REMARK  Name = ZINC08971871
REMARK  5 active torsions:
REMARK  status: ('A' for Active; 'I' for Inactive)
REMARK    1  A    between atoms: C_1  and  C_2
REMARK    2  A    between atoms: C_5  and  C_8
REMARK    3  A    between atoms: C_8  and  C_10
REMARK    4  A    between atoms: C_30  and  C_38
REMARK    5  A    between atoms: C_32  and  C_37
REMARK                            x       y       z     vdW  Elec       q    Type
REMARK                         _______ _______ _______ _____ _____    ______ ____
ROOT
ATOM      1  C   UNL     1       1.481   1.878  -0.002  0.00  0.00    +0.066 C 
ATOM      2  C   UNL     1       0.023   1.359   0.029  0.00  0.00    -0.055 C 
ATOM      3  C   UNL     1      -0.647   1.655  -1.324  0.00  0.00    -0.016 C 
ATOM      4  C   UNL     1      -0.364   0.423  -2.205  0.00  0.00    -0.020 C 
ATOM      5  C   UNL     1       0.487  -0.514  -1.325  0.00  0.00    -0.076 C 
ATOM      6  C   UNL     1       1.354  -0.379   0.925  0.00  0.00    +0.060 C 
ATOM      7  C   UNL     1       2.226   0.870   0.890  0.00  0.00    +0.085 C 
ATOM      8  C   UNL     1       3.599   0.583   0.350  0.00  0.00    -0.011 A 
ATOM      9  C   UNL     1       4.060   0.064  -0.840  0.00  0.00    +0.006 A 
ATOM     10  C   UNL     1       5.419  -0.083  -1.050  0.00  0.00    +0.000 A 
ATOM     11  C   UNL     1       6.313   0.291  -0.063  0.00  0.00    +0.002 A 
ATOM     12  C   UNL     1       5.856   0.809   1.131  0.00  0.00    +0.023 A 
ATOM     13  C   UNL     1       4.489   0.961   1.351  0.00  0.00    +0.038 A 
ATOM     14  N   UNL     1       3.791   1.454   2.456  0.00  0.00    -0.285 N 
ATOM     15  C   UNL     1       2.458   1.433   2.266  0.00  0.00    +0.228 C 
ATOM     16  O   UNL     1       1.609   1.798   3.051  0.00  0.00    -0.275 OA
ATOM     17  C   UNL     1       0.932  -0.717   2.331  0.00  0.00    -0.026 A 
ATOM     18  C   UNL     1       0.219  -0.035   3.291  0.00  0.00    +0.008 A 
ATOM     19  C   UNL     1      -0.017  -0.620   4.523  0.00  0.00    -0.050 A 
ATOM     20  C   UNL     1       0.466  -1.889   4.785  0.00  0.00    +0.008 A 
ATOM     21  C   UNL     1       1.180  -2.576   3.825  0.00  0.00    -0.029 A 
ATOM     22  C   UNL     1       1.422  -1.994   2.582  0.00  0.00    +0.039 A 
ATOM     23  N   UNL     1       2.106  -2.477   1.465  0.00  0.00    -0.286 N 
ATOM     24  C   UNL     1       2.112  -1.593   0.451  0.00  0.00    +0.212 C 
ATOM     25  O   UNL     1       2.628  -1.743  -0.636  0.00  0.00    -0.277 OA
ATOM     26  C   UNL     1       1.701  -3.958   4.121  0.00  0.00    +0.045 C 
ATOM     27  C   UNL     1      -0.797   0.124   5.575  0.00  0.00    +0.044 C 
ATOM     28  H   UNL     1       4.217   1.773   3.267  0.00  0.00    +0.155 HD
ATOM     29  H   UNL     1       2.528  -3.350   1.425  0.00  0.00    +0.155 HD
ATOM     30  N   UNL     1       0.203  -0.082   0.051  0.00  0.00    +0.395 N 
ATOM     31  H   UNL     1      -0.641  -0.549   0.404  0.00  0.00    -0.079 HD
ENDROOT
BRANCH   1  32
ATOM     32  C   UNL     1       2.026   1.852  -1.407  0.00  0.00    +0.166 C 
ATOM     33  O   UNL     1       1.560   1.088  -2.224  0.00  0.00    -0.292 OA
BRANCH  32  38
ATOM     34  C   UNL     1       6.321   5.374  -2.888  0.00  0.00    +0.044 C 
ATOM     35  C   UNL     1       5.195   4.451  -2.499  0.00  0.00    -0.050 A 
ATOM     36  C   UNL     1       4.665   3.581  -3.436  0.00  0.00    +0.004 A 
ATOM     37  C   UNL     1       3.635   2.733  -3.088  0.00  0.00    +0.011 A 
ATOM     38  C   UNL     1       3.126   2.754  -1.786  0.00  0.00    +0.018 A 
ATOM     39  C   UNL     1       3.663   3.641  -0.847  0.00  0.00    +0.011 A 
ATOM     40  C   UNL     1       4.697   4.478  -1.208  0.00  0.00    +0.004 A 
ENDBRANCH  32  38
ENDBRANCH   1  32
TORSDOF 2
