REMARK  Name = ZINC39675250
REMARK  13 active torsions:
REMARK  status: ('A' for Active; 'I' for Inactive)
REMARK    1  A    between atoms: C_1  and  C_2
REMARK    2  A    between atoms: C_2  and  C_4
REMARK    3  A    between atoms: C_2  and  N_14
REMARK    4  A    between atoms: C_4  and  C_5
REMARK    5  A    between atoms: C_5  and  C_6
REMARK    6  A    between atoms: C_9  and  O_12
REMARK    7  A    between atoms: O_12  and  C_13
REMARK    8  A    between atoms: C_15  and  C_17
REMARK    9  A    between atoms: C_28  and  C_30
REMARK   10  A    between atoms: C_33  and  O_38
REMARK   11  A    between atoms: C_35  and  O_36
REMARK   12  A    between atoms: O_36  and  C_37
REMARK   13  A    between atoms: O_38  and  C_39
REMARK                            x       y       z     vdW  Elec       q    Type
REMARK                         _______ _______ _______ _____ _____    ______ ____
ROOT
ATOM      1  C   UNL     1      -4.003  -0.875  -1.069  0.00  0.00    +0.100 C 
ATOM      2  C   UNL     1      -3.797  -2.345  -0.636  0.00  0.00    +0.121 C 
ATOM      3  N   UNL     1      -4.695  -3.124  -1.521  0.00  0.00    -0.296 N 
ATOM      4  C   UNL     1      -4.575  -2.463  -2.843  0.00  0.00    +0.115 C 
ATOM      5  C   UNL     1      -4.513  -0.957  -2.517  0.00  0.00    -0.004 C 
ATOM      6  C   UNL     1      -5.902  -0.336  -2.624  0.00  0.00    -0.010 C 
ATOM      7  C   UNL     1      -6.364  -0.378  -4.083  0.00  0.00    -0.082 C 
ATOM      8  N   UNL     1      -5.410   0.359  -4.922  0.00  0.00    +0.379 N 
ATOM      9  C   UNL     1      -4.099  -0.300  -4.886  0.00  0.00    -0.082 C 
ATOM     10  C   UNL     1      -3.541  -0.254  -3.460  0.00  0.00    -0.010 C 
ATOM     11  C   UNL     1      -5.450  -4.192  -1.197  0.00  0.00    +0.250 C 
ATOM     12  O   UNL     1      -6.067  -4.785  -2.061  0.00  0.00    -0.270 OA
ATOM     13  H   UNL     1      -5.747   0.381  -5.872  0.00  0.00    -0.086 HD
ATOM     14  H   UNL     1      -5.321   1.303  -4.577  0.00  0.00    -0.086 HD
ENDROOT
BRANCH  11  15
ATOM     15  C   UNL     1      -5.529  -4.642   0.203  0.00  0.00    +0.079 A 
ATOM     16  C   UNL     1      -4.409  -4.543   1.036  0.00  0.00    +0.020 A 
ATOM     17  C   UNL     1      -4.486  -4.963   2.344  0.00  0.00    +0.046 A 
ATOM     18  C   UNL     1      -5.675  -5.487   2.842  0.00  0.00    +0.124 A 
ATOM     19  C   UNL     1      -6.791  -5.590   2.025  0.00  0.00    +0.092 A 
ATOM     20  C   UNL     1      -6.728  -5.165   0.709  0.00  0.00    +0.136 A 
BRANCH  20  21
ATOM     21  O   UNL     1      -7.820  -5.260  -0.090  0.00  0.00    -0.494 OA
ATOM     22  C   UNL     1      -9.006  -5.803   0.494  0.00  0.00    +0.277 C 
ENDBRANCH  20  21
BRANCH  18  23
ATOM     23  O   UNL     1      -5.743  -5.900   4.133  0.00  0.00    -0.495 OA
ATOM     24  C   UNL     1      -4.557  -5.766   4.920  0.00  0.00    +0.277 C 
ENDBRANCH  18  23
ENDBRANCH  11  15
BRANCH   1  26
ATOM     25  N   UNL     1      -2.691   1.200  -0.769  0.00  0.00    -0.312 N 
ATOM     26  C   UNL     1      -2.697  -0.125  -1.014  0.00  0.00    +0.218 C 
ATOM     27  O   UNL     1      -1.651  -0.714  -1.190  0.00  0.00    -0.275 OA
ATOM     28  H   UNL     1      -3.527   1.671  -0.627  0.00  0.00    +0.149 HD
BRANCH  25  30
ATOM     29  C   UNL     1      -1.008   2.338  -2.131  0.00  0.00    +0.028 C 
ATOM     30  C   UNL     1      -1.421   1.930  -0.715  0.00  0.00    +0.070 C 
BRANCH  30  31
ATOM     31  C   UNL     1      -1.588   3.181   0.148  0.00  0.00    +0.026 C 
BRANCH  31  32
ATOM     32  C   UNL     1      -1.879   2.769   1.593  0.00  0.00    +0.037 C 
BRANCH  32  33
ATOM     33  C   UNL     1      -2.043   4.002   2.444  0.00  0.00    -0.047 A 
ATOM     34  C   UNL     1      -0.943   4.564   3.064  0.00  0.00    +0.007 A 
ATOM     35  C   UNL     1      -1.091   5.694   3.845  0.00  0.00    +0.046 A 
ATOM     36  C   UNL     1      -2.345   6.265   4.006  0.00  0.00    +0.120 A 
ATOM     37  C   UNL     1      -3.448   5.699   3.382  0.00  0.00    +0.046 A 
ATOM     38  C   UNL     1      -3.293   4.572   2.598  0.00  0.00    +0.007 A 
BRANCH  36  39
ATOM     39  O   UNL     1      -2.494   7.376   4.774  0.00  0.00    -0.495 OA
ATOM     40  C   UNL     1      -3.814   7.910   4.895  0.00  0.00    +0.277 C 
ENDBRANCH  36  39
ENDBRANCH  32  33
ENDBRANCH  31  32
ENDBRANCH  30  31
ENDBRANCH  25  30
ENDBRANCH   1  26
TORSDOF 9
