REMARK  Name = ZINC49468693
REMARK  10 active torsions:
REMARK  status: ('A' for Active; 'I' for Inactive)
REMARK    1  A    between atoms: C_1  and  C_2
REMARK    2  A    between atoms: C_3  and  C_12
REMARK    3  A    between atoms: C_5  and  C_7
REMARK    4  A    between atoms: N_17  and  C_19
REMARK    5  A    between atoms: C_19  and  C_20
REMARK    6  A    between atoms: C_20  and  N_21
REMARK    7  A    between atoms: C_22  and  C_24
REMARK    8  A    between atoms: C_24  and  C_26
REMARK    9  A    between atoms: C_24  and  O_27
REMARK   10  A    between atoms: O_27  and  C_28
REMARK                            x       y       z     vdW  Elec       q    Type
REMARK                         _______ _______ _______ _____ _____    ______ ____
ROOT
ATOM      1  C   UNL     1      -0.191  -0.453  -3.662  0.00  0.00    +0.100 A 
ATOM      2  C   UNL     1      -0.124  -1.162  -4.886  0.00  0.00    +0.036 A 
ATOM      3  C   UNL     1      -0.052  -0.446  -6.043  0.00  0.00    +0.074 A 
ATOM      4  C   UNL     1      -0.049   0.964  -5.950  0.00  0.00    +0.267 A 
ATOM      5  O   UNL     1       0.014   1.647  -6.960  0.00  0.00    -0.266 OA
ATOM      6  N   UNL     1      -0.116   1.550  -4.740  0.00  0.00    -0.227 N 
ATOM      7  N   UNL     1      -0.188   0.862  -3.658  0.00  0.00    -0.168 NA
ENDROOT
BRANCH   1  10
ATOM      8  C   UNL     1      -0.359   0.768  -0.840  0.00  0.00    +0.067 C 
ATOM      9  C   UNL     1      -0.347  -0.716  -1.100  0.00  0.00    +0.055 A 
ATOM     10  C   UNL     1      -0.270  -1.192  -2.386  0.00  0.00    +0.062 A 
ATOM     11  S   UNL     1      -0.293  -2.955  -2.087  0.00  0.00    -0.065 S 
ATOM     12  C   UNL     1      -0.402  -2.874  -0.304  0.00  0.00    +0.116 A 
ATOM     13  N   UNL     1      -0.405  -1.560  -0.101  0.00  0.00    -0.243 NA
BRANCH  12  14
ATOM     14  C   UNL     1      -0.464  -3.968   0.675  0.00  0.00    +0.044 A 
ATOM     15  C   UNL     1      -0.554  -3.900   2.054  0.00  0.00    +0.018 A 
ATOM     16  C   UNL     1      -0.600  -5.076   2.766  0.00  0.00    +0.008 A 
ATOM     17  C   UNL     1      -0.556  -6.259   2.099  0.00  0.00    +0.046 A 
ATOM     18  S   UNL     1      -0.453  -5.731   0.396  0.00  0.00    -0.095 S 
ENDBRANCH  12  14
ENDBRANCH   1  10
BRANCH   6  19
ATOM     19  C   UNL     1      -0.111   3.013  -4.655  0.00  0.00    +0.166 C 
BRANCH  19  20
ATOM     20  C   UNL     1      -1.550   3.531  -4.710  0.00  0.00    +0.127 C 
BRANCH  20  21
ATOM     21  N   UNL     1      -1.545   4.994  -4.625  0.00  0.00    -0.311 N 
ATOM     22  C   UNL     1      -2.708   5.674  -4.654  0.00  0.00    +0.254 C 
ATOM     23  O   UNL     1      -3.759   5.075  -4.750  0.00  0.00    -0.272 OA
ATOM     24  H   UNL     1      -0.705   5.472  -4.548  0.00  0.00    +0.149 HD
BRANCH  22  25
ATOM     25  C   UNL     1      -2.704   7.178  -4.567  0.00  0.00    +0.255 C 
ATOM     26  C   UNL     1      -2.017   7.759  -5.804  0.00  0.00    +0.062 C 
BRANCH  25  27
ATOM     27  O   UNL     1      -4.049   7.656  -4.500  0.00  0.00    -0.480 OA
BRANCH  27  28
ATOM     28  C   UNL     1      -4.246   8.867  -3.915  0.00  0.00    +0.122 A 
ATOM     29  C   UNL     1      -5.534   9.338  -3.712  0.00  0.00    +0.048 A 
ATOM     30  C   UNL     1      -5.733  10.569  -3.117  0.00  0.00    +0.042 A 
ATOM     31  C   UNL     1      -4.646  11.333  -2.724  0.00  0.00    +0.124 A 
ATOM     32  C   UNL     1      -3.360  10.864  -2.927  0.00  0.00    +0.042 A 
ATOM     33  C   UNL     1      -3.158   9.630  -3.516  0.00  0.00    +0.048 A 
ATOM     34  F   UNL     1      -4.842  12.537  -2.143  0.00  0.00    -0.205 F 
ENDBRANCH  27  28
ENDBRANCH  25  27
ENDBRANCH  22  25
ENDBRANCH  20  21
ENDBRANCH  19  20
ENDBRANCH   6  19
TORSDOF 8
