REMARK  Name = ZINC36638404
REMARK  6 active torsions:
REMARK  status: ('A' for Active; 'I' for Inactive)
REMARK    1  A    between atoms: C_1  and  C_2
REMARK    2  A    between atoms: N_11  and  C_15
REMARK    3  A    between atoms: C_15  and  C_16
REMARK    4  A    between atoms: N_18  and  C_19
REMARK    5  A    between atoms: C_24  and  C_25
REMARK    6  A    between atoms: N_27  and  C_28
REMARK                            x       y       z     vdW  Elec       q    Type
REMARK                         _______ _______ _______ _____ _____    ______ ____
ROOT
ATOM      1  C   UNL     1       1.156   0.528   5.534  0.00  0.00    +0.235 C 
ATOM      2  O   UNL     1       1.583  -0.584   5.305  0.00  0.00    -0.274 OA
ATOM      3  N   UNL     1       1.030   0.953   6.807  0.00  0.00    -0.284 N 
ATOM      4  H   UNL     1       0.766   1.868   6.989  0.00  0.00    +0.155 HD
ENDROOT
BRANCH   3   5
ATOM      5  C   UNL     1       1.280   0.077   7.861  0.00  0.00    +0.046 A 
ATOM      6  C   UNL     1       1.143  -1.292   7.678  0.00  0.00    +0.024 A 
ATOM      7  C   UNL     1       1.390  -2.158   8.725  0.00  0.00    +0.002 A 
ATOM      8  C   UNL     1       1.777  -1.669   9.962  0.00  0.00    +0.001 A 
ATOM      9  C   UNL     1       1.919  -0.313  10.162  0.00  0.00    +0.015 A 
ATOM     10  C   UNL     1       1.677   0.575   9.111  0.00  0.00    +0.058 A 
BRANCH  10  11
ATOM     11  C   UNL     1       1.833   2.027   9.316  0.00  0.00    +0.246 C 
ATOM     12  O   UNL     1       1.531   2.802   8.430  0.00  0.00    -0.270 OA
ATOM     13  N   UNL     1       2.310   2.495  10.487  0.00  0.00    -0.308 N 
ATOM     14  H   UNL     1       2.551   1.877  11.194  0.00  0.00    +0.149 HD
BRANCH  13  15
ATOM     15  C   UNL     1       2.465   3.937  10.691  0.00  0.00    +0.073 C 
ATOM     16  C   UNL     1       3.851   4.396  10.192  0.00  0.00    +0.022 C 
ATOM     17  C   UNL     1       4.281   5.481  11.211  0.00  0.00    +0.002 C 
ATOM     18  C   UNL     1       3.760   4.914  12.555  0.00  0.00    +0.002 C 
ATOM     19  C   UNL     1       2.407   4.267  12.193  0.00  0.00    +0.022 C 
ENDBRANCH  13  15
ENDBRANCH  10  11
ENDBRANCH   3   5
BRANCH   1  20
ATOM     20  C   UNL     1       0.766   1.434   4.395  0.00  0.00    +0.214 C 
BRANCH  20  30
ATOM     21  C   UNL     1      -0.035   1.513   0.012  0.00  0.00    +0.010 C 
ATOM     22  C   UNL     1       0.004  -0.017   0.004  0.00  0.00    +0.018 C 
ATOM     23  C   UNL     1       0.725  -0.502  -1.257  0.00  0.00    +0.006 C 
ATOM     24  C   UNL     1       0.781  -2.031  -1.254  0.00  0.00    +0.000 C 
ATOM     25  C   UNL     1       1.548  -2.513  -0.021  0.00  0.00    +0.003 C 
ATOM     26  C   UNL     1       0.831  -2.035   1.244  0.00  0.00    +0.035 C 
ATOM     27  C   UNL     1       0.749  -0.513   1.238  0.00  0.00    +0.115 C 
ATOM     28  C   UNL     1       0.074  -0.016   2.497  0.00  0.00    +0.247 C 
ATOM     29  O   UNL     1      -1.056  -0.253   2.866  0.00  0.00    -0.273 OA
ATOM     30  N   UNL     1       0.995   0.746   3.122  0.00  0.00    -0.215 N 
ATOM     31  C   UNL     1       2.143   0.794   2.436  0.00  0.00    +0.310 C 
ATOM     32  O   UNL     1       3.122   1.418   2.799  0.00  0.00    -0.252 OA
ATOM     33  N   UNL     1       2.093   0.075   1.299  0.00  0.00    -0.285 N 
ATOM     34  H   UNL     1       2.804  -0.034   0.648  0.00  0.00    +0.151 HD
ENDBRANCH  20  30
ENDBRANCH   1  20
TORSDOF 5
