REMARK  Name = ZINC36027150
REMARK  7 active torsions:
REMARK  status: ('A' for Active; 'I' for Inactive)
REMARK    1  A    between atoms: C_1  and  C_2
REMARK    2  A    between atoms: C_2  and  C_3
REMARK    3  A    between atoms: C_3  and  C_5
REMARK    4  A    between atoms: C_3  and  N_6
REMARK    5  A    between atoms: C_9  and  C_28
REMARK    6  A    between atoms: N_15  and  S_18
REMARK    7  A    between atoms: S_18  and  C_21
REMARK                            x       y       z     vdW  Elec       q    Type
REMARK                         _______ _______ _______ _____ _____    ______ ____
ROOT
ATOM      1  N   UNL     1       2.151  -0.113   1.203  0.00  0.00    -0.311 N 
ATOM      2  C   UNL     1       3.009  -0.381   0.196  0.00  0.00    +0.200 C 
ATOM      3  O   UNL     1       2.743  -0.991  -0.818  0.00  0.00    -0.277 OA
ATOM      4  C   UNL     1       4.358   0.208   0.545  0.00  0.00    +0.016 C 
ATOM      5  N   UNL     1       4.079   1.175   1.634  0.00  0.00    +0.401 N 
ATOM      6  C   UNL     1       2.846   0.643   2.248  0.00  0.00    +0.006 C 
ATOM      7  C   UNL     1       3.210  -0.277   3.413  0.00  0.00    +0.023 C 
ATOM      8  C   UNL     1       1.929  -0.855   4.023  0.00  0.00    +0.109 C 
ATOM      9  N   UNL     1       1.031   0.253   4.376  0.00  0.00    -0.177 NA
ATOM     10  C   UNL     1       0.680   1.235   3.341  0.00  0.00    +0.109 C 
ATOM     11  C   UNL     1       1.971   1.797   2.736  0.00  0.00    +0.023 C 
ATOM     12  C   UNL     1       4.956   0.926  -0.667  0.00  0.00    -0.004 C 
ATOM     13  H   UNL     1       4.835   1.188   2.302  0.00  0.00    -0.082 HD
ATOM     14  H   UNL     1       3.916   2.097   1.259  0.00  0.00    -0.082 HD
ENDROOT
BRANCH   9  15
ATOM     15  S   UNL     1       0.426   0.392   5.911  0.00  0.00    +0.061 S 
ATOM     16  O   UNL     1      -0.772   1.149   5.808  0.00  0.00    -0.153 OA
ATOM     17  O   UNL     1       0.458  -0.910   6.479  0.00  0.00    -0.153 OA
BRANCH  15  18
ATOM     18  C   UNL     1       1.564   1.372   6.833  0.00  0.00    +0.106 A 
ATOM     19  C   UNL     1       2.604   0.766   7.512  0.00  0.00    +0.031 A 
ATOM     20  C   UNL     1       3.498   1.534   8.235  0.00  0.00    +0.040 A 
ATOM     21  C   UNL     1       3.350   2.910   8.279  0.00  0.00    +0.124 A 
ATOM     22  C   UNL     1       2.308   3.515   7.598  0.00  0.00    +0.040 A 
ATOM     23  C   UNL     1       1.419   2.746   6.872  0.00  0.00    +0.031 A 
ATOM     24  F   UNL     1       4.223   3.661   8.986  0.00  0.00    -0.205 F 
ENDBRANCH  15  18
ENDBRANCH   9  15
BRANCH   1  25
ATOM     25  C   UNL     1       0.742  -0.511   1.242  0.00  0.00    +0.071 C 
ATOM     26  C   UNL     1       0.615  -1.978   0.828  0.00  0.00    +0.028 C 
BRANCH  25  28
ATOM     27  C   UNL     1      -0.037   1.814   0.761  0.00  0.00    +0.005 C 
ATOM     28  C   UNL     1      -0.061   0.363   0.276  0.00  0.00    +0.019 C 
ENDBRANCH  25  28
ENDBRANCH   1  25
TORSDOF 4
