REMARK  Name = ZINC12491046
REMARK  12 active torsions:
REMARK  status: ('A' for Active; 'I' for Inactive)
REMARK    1  A    between atoms: C_1  and  O_2
REMARK    2  A    between atoms: O_2  and  C_3
REMARK    3  A    between atoms: C_6  and  C_10
REMARK    4  A    between atoms: C_7  and  O_9
REMARK    5  A    between atoms: C_10  and  C_12
REMARK    6  A    between atoms: C_13  and  C_14
REMARK    7  A    between atoms: N_16  and  C_17
REMARK    8  A    between atoms: N_16  and  C_23
REMARK    9  A    between atoms: C_17  and  C_18
REMARK   10  A    between atoms: C_23  and  C_25
REMARK   11  A    between atoms: C_23  and  C_31
REMARK   12  A    between atoms: N_33  and  C_34
REMARK                            x       y       z     vdW  Elec       q    Type
REMARK                         _______ _______ _______ _____ _____    ______ ____
ROOT
ATOM      1  C   UNL     1      -1.226   2.083  -1.097  0.00  0.00    +0.241 C 
ATOM      2  O   UNL     1      -1.600   2.967  -0.352  0.00  0.00    -0.271 OA
ATOM      3  N   UNL     1       0.059   1.677  -1.069  0.00  0.00    -0.275 N 
ENDROOT
BRANCH   1   5
ATOM      4  C   UNL     1      -3.459   1.858  -2.059  0.00  0.00    +0.056 C 
ATOM      5  C   UNL     1      -2.179   1.453  -2.031  0.00  0.00    +0.071 C 
BRANCH   4   6
ATOM      6  C   UNL     1      -4.412   1.228  -2.993  0.00  0.00    +0.190 C 
ATOM      7  O   UNL     1      -4.037   0.343  -3.739  0.00  0.00    -0.287 OA
BRANCH   6  11
ATOM      8  C   UNL     1      -8.455   2.510  -3.075  0.00  0.00    +0.124 A 
ATOM      9  C   UNL     1      -7.550   3.099  -2.195  0.00  0.00    +0.046 A 
ATOM     10  C   UNL     1      -6.250   2.686  -2.162  0.00  0.00    +0.019 A 
ATOM     11  C   UNL     1      -5.814   1.671  -3.023  0.00  0.00    +0.063 A 
ATOM     12  C   UNL     1      -6.725   1.074  -3.912  0.00  0.00    +0.131 A 
ATOM     13  C   UNL     1      -8.042   1.499  -3.931  0.00  0.00    +0.091 A 
BRANCH   8  15
ATOM     14  C   UNL     1     -10.106   3.970  -2.188  0.00  0.00    +0.277 C 
ATOM     15  O   UNL     1      -9.746   2.926  -3.095  0.00  0.00    -0.495 OA
ENDBRANCH   8  15
BRANCH  12  16
ATOM     16  O   UNL     1      -6.315   0.086  -4.747  0.00  0.00    -0.506 OA
ATOM     17  H   UNL     1      -6.399  -0.803  -4.376  0.00  0.00    +0.292 HD
ENDBRANCH  12  16
ENDBRANCH   6  11
ENDBRANCH   4   6
ENDBRANCH   1   5
BRANCH   3  18
ATOM     18  C   UNL     1       0.510   0.611  -1.967  0.00  0.00    +0.183 C 
BRANCH  18  19
ATOM     19  C   UNL     1       0.210  -0.729  -1.346  0.00  0.00    +0.122 A 
ATOM     20  C   UNL     1      -0.911  -1.448  -1.531  0.00  0.00    +0.046 A 
ATOM     21  C   UNL     1      -0.771  -2.629  -0.766  0.00  0.00    +0.041 A 
ATOM     22  C   UNL     1       0.428  -2.561  -0.160  0.00  0.00    +0.195 A 
ATOM     23  O   UNL     1       1.020  -1.411  -0.520  0.00  0.00    -0.466 OA
ENDBRANCH  18  19
ENDBRANCH   3  18
BRANCH   3  24
ATOM     24  C   UNL     1       1.006   2.306  -0.146  0.00  0.00    +0.193 C 
BRANCH  24  25
ATOM     25  C   UNL     1       0.551   2.079   1.273  0.00  0.00    -0.015 A 
ATOM     26  C   UNL     1      -0.140   0.928   1.621  0.00  0.00    +0.025 A 
ATOM     27  C   UNL     1      -0.538   0.753   2.933  0.00  0.00    +0.111 A 
ATOM     28  N   UNL     1      -0.276   1.668   3.845  0.00  0.00    -0.263 NA
ATOM     29  C   UNL     1       0.374   2.776   3.550  0.00  0.00    +0.111 A 
ATOM     30  C   UNL     1       0.808   3.018   2.260  0.00  0.00    +0.025 A 
ENDBRANCH  24  25
BRANCH  24  31
ATOM     31  C   UNL     1       2.373   1.701  -0.338  0.00  0.00    +0.238 C 
ATOM     32  O   UNL     1       2.522   0.500  -0.247  0.00  0.00    -0.273 OA
ATOM     33  N   UNL     1       3.429   2.493  -0.610  0.00  0.00    -0.311 N 
ATOM     34  H   UNL     1       3.309   3.452  -0.683  0.00  0.00    +0.149 HD
BRANCH  33  35
ATOM     35  C   UNL     1       4.757   1.904  -0.797  0.00  0.00    +0.073 C 
ATOM     36  C   UNL     1       5.431   1.723   0.565  0.00  0.00    +0.022 C 
ATOM     37  C   UNL     1       6.818   1.108   0.370  0.00  0.00    +0.002 C 
ATOM     38  C   UNL     1       7.669   2.035  -0.501  0.00  0.00    +0.000 C 
ATOM     39  C   UNL     1       6.995   2.215  -1.863  0.00  0.00    +0.002 C 
ATOM     40  C   UNL     1       5.608   2.830  -1.668  0.00  0.00    +0.022 C 
ENDBRANCH  33  35
ENDBRANCH  24  31
ENDBRANCH   3  24
TORSDOF 11
