REMARK  Name = ZINC37640135
REMARK  3 active torsions:
REMARK  status: ('A' for Active; 'I' for Inactive)
REMARK    1  A    between atoms: C_6  and  C_7
REMARK    2  A    between atoms: C_7  and  N_8
REMARK    3  A    between atoms: N_16  and  C_19
REMARK                            x       y       z     vdW  Elec       q    Type
REMARK                         _______ _______ _______ _____ _____    ______ ____
ROOT
ATOM      1  N   UNL     1      -1.726  -1.017  -1.368  0.00  0.00    -0.256 N 
ATOM      2  C   UNL     1      -2.516  -0.113  -1.976  0.00  0.00    +0.265 A 
ATOM      3  O   UNL     1      -2.867   0.894  -1.387  0.00  0.00    -0.267 OA
ATOM      4  C   UNL     1      -2.951  -0.358  -3.367  0.00  0.00    +0.074 A 
ATOM      5  C   UNL     1      -3.806   0.486  -4.215  0.00  0.00    -0.023 A 
ATOM      6  C   UNL     1      -4.032  -0.001  -5.446  0.00  0.00    -0.004 A 
ATOM      7  S   UNL     1      -3.140  -1.534  -5.492  0.00  0.00    -0.075 S 
ATOM      8  C   UNL     1      -2.497  -1.536  -3.952  0.00  0.00    +0.097 A 
ATOM      9  N   UNL     1      -1.693  -2.405  -3.260  0.00  0.00    -0.284 N 
ATOM     10  C   UNL     1      -1.319  -2.133  -1.995  0.00  0.00    +0.333 A 
ATOM     11  O   UNL     1      -0.602  -2.918  -1.405  0.00  0.00    -0.246 OA
ATOM     12  C   UNL     1      -4.915   0.909  -6.256  0.00  0.00    +0.043 C 
ATOM     13  C   UNL     1      -5.571   1.844  -5.216  0.00  0.00    +0.010 C 
ATOM     14  C   UNL     1      -4.534   1.821  -4.074  0.00  0.00    +0.037 C 
ENDROOT
BRANCH   9  15
ATOM     15  C   UNL     1      -1.232  -3.637  -3.904  0.00  0.00    +0.093 C 
ATOM     16  C   UNL     1      -1.662  -4.862  -3.070  0.00  0.00    +0.025 C 
ATOM     17  C   UNL     1      -0.470  -5.843  -3.195  0.00  0.00    +0.002 C 
ATOM     18  C   UNL     1       0.757  -4.898  -3.156  0.00  0.00    +0.002 C 
ATOM     19  C   UNL     1       0.306  -3.660  -3.958  0.00  0.00    +0.025 C 
ENDBRANCH   9  15
BRANCH   1  20
ATOM     20  C   UNL     1      -1.293  -0.775   0.010  0.00  0.00    +0.165 C 
BRANCH  20  26
ATOM     21  C   UNL     1      -0.017   1.378   0.010  0.00  0.00    +0.008 A 
ATOM     22  C   UNL     1       1.170   2.086   0.002  0.00  0.00    +0.038 A 
ATOM     23  C   UNL     1       2.379   1.410  -0.013  0.00  0.00    +0.123 A 
ATOM     24  C   UNL     1       2.396   0.026  -0.021  0.00  0.00    +0.038 A 
ATOM     25  C   UNL     1       1.208  -0.680  -0.013  0.00  0.00    +0.008 A 
ATOM     26  C   UNL     1       0.002  -0.004   0.002  0.00  0.00    -0.027 A 
ATOM     27  F   UNL     1       3.540   2.101  -0.021  0.00  0.00    -0.205 F 
ENDBRANCH  20  26
ENDBRANCH   1  20
TORSDOF 3
