REMARK  Name = ZINC04714256
REMARK  7 active torsions:
REMARK  status: ('A' for Active; 'I' for Inactive)
REMARK    1  A    between atoms: C_1  and  C_2
REMARK    2  A    between atoms: C_5  and  N_8
REMARK    3  A    between atoms: N_8  and  C_9
REMARK    4  A    between atoms: C_12  and  C_33
REMARK    5  A    between atoms: C_18  and  C_21
REMARK    6  A    between atoms: C_22  and  C_24
REMARK    7  A    between atoms: C_27  and  N_30
REMARK                            x       y       z     vdW  Elec       q    Type
REMARK                         _______ _______ _______ _____ _____    ______ ____
ROOT
ATOM      1  C   UNL     1      -2.495  -0.474   1.513  0.00  0.00    +0.104 C 
ATOM      2  C   UNL     1      -1.724   0.448   0.569  0.00  0.00    +0.049 C 
ATOM      3  C   UNL     1      -0.307  -0.108   0.380  0.00  0.00    +0.081 C 
ATOM      4  N   UNL     1       0.365  -0.080   1.686  0.00  0.00    -0.264 N 
ATOM      5  C   UNL     1      -0.334  -0.525   2.816  0.00  0.00    +0.042 A 
ATOM      6  C   UNL     1      -1.706  -0.719   2.772  0.00  0.00    -0.006 A 
ATOM      7  C   UNL     1      -2.371  -1.154   3.906  0.00  0.00    +0.010 A 
ATOM      8  C   UNL     1      -1.673  -1.396   5.074  0.00  0.00    -0.050 A 
ATOM      9  C   UNL     1      -0.304  -1.206   5.117  0.00  0.00    +0.005 A 
ATOM     10  C   UNL     1       0.367  -0.771   3.991  0.00  0.00    +0.024 A 
ATOM     11  C   UNL     1      -2.406  -1.868   6.303  0.00  0.00    +0.044 C 
ATOM     12  C   UNL     1       1.632   0.367   1.796  0.00  0.00    +0.251 C 
ATOM     13  O   UNL     1       2.045   1.216   1.030  0.00  0.00    -0.270 OA
ATOM     14  C   UNL     1       0.462   0.761  -0.617  0.00  0.00    +0.028 C 
ENDROOT
BRANCH  12  15
ATOM     15  C   UNL     1       2.518  -0.175   2.847  0.00  0.00    +0.037 A 
ATOM     16  C   UNL     1       2.570  -1.551   3.080  0.00  0.00    +0.015 A 
ATOM     17  C   UNL     1       3.404  -2.051   4.059  0.00  0.00    +0.033 A 
ATOM     18  C   UNL     1       4.179  -1.191   4.816  0.00  0.00    +0.126 A 
ATOM     19  C   UNL     1       4.128   0.174   4.595  0.00  0.00    +0.033 A 
ATOM     20  C   UNL     1       3.303   0.686   3.615  0.00  0.00    +0.015 A 
BRANCH  18  21
ATOM     21  N   UNL     1       5.068  -1.734   5.869  0.00  0.00    +0.056 N 
ATOM     22  O   UNL     1       5.751  -0.980   6.537  0.00  0.00    -0.126 OA
ATOM     23  O   UNL     1       5.115  -2.935   6.066  0.00  0.00    -0.126 OA
ENDBRANCH  18  21
ENDBRANCH  12  15
BRANCH   1  24
ATOM     24  N   UNL     1      -2.745  -1.753   0.843  0.00  0.00    -0.337 N 
ATOM     25  H   UNL     1      -2.111  -2.481   0.935  0.00  0.00    +0.147 HD
BRANCH  24  30
ATOM     26  C   UNL     1      -7.423  -2.445  -2.287  0.00  0.00    +0.044 C 
ATOM     27  C   UNL     1      -6.180  -2.261  -1.455  0.00  0.00    -0.050 A 
ATOM     28  C   UNL     1      -5.330  -3.330  -1.240  0.00  0.00    +0.005 A 
ATOM     29  C   UNL     1      -4.189  -3.165  -0.478  0.00  0.00    +0.023 A 
ATOM     30  C   UNL     1      -3.897  -1.923   0.072  0.00  0.00    +0.028 A 
ATOM     31  C   UNL     1      -4.756  -0.853  -0.143  0.00  0.00    +0.023 A 
ATOM     32  C   UNL     1      -5.892  -1.024  -0.910  0.00  0.00    +0.005 A 
ENDBRANCH  24  30
ENDBRANCH   1  24
TORSDOF 4
