REMARK  Name = ZINC01894479
REMARK  8 active torsions:
REMARK  status: ('A' for Active; 'I' for Inactive)
REMARK    1  A    between atoms: C_2  and  C_3
REMARK    2  A    between atoms: C_2  and  N_13
REMARK    3  A    between atoms: N_13  and  N_14
REMARK    4  A    between atoms: C_15  and  C_17
REMARK    5  A    between atoms: C_17  and  S_18
REMARK    6  A    between atoms: S_18  and  C_19
REMARK    7  A    between atoms: C_22  and  C_31
REMARK    8  A    between atoms: N_23  and  C_24
REMARK                            x       y       z     vdW  Elec       q    Type
REMARK                         _______ _______ _______ _____ _____    ______ ____
ROOT
ATOM      1  S   UNL     1       6.279  -1.008  -0.386  0.00  0.00    -0.076 S 
ENDROOT
BRANCH   1   2
ATOM      2  C   UNL     1       7.692   0.034  -0.528  0.00  0.00    +0.197 A 
ATOM      3  N   UNL     1       7.691   1.348  -0.579  0.00  0.00    -0.122 NA
ATOM      4  N   UNL     1       8.894   1.788  -0.682  0.00  0.00    -0.128 NA
ATOM      5  C   UNL     1       9.739   0.784  -0.704  0.00  0.00    +0.169 A 
ATOM      6  N   UNL     1       8.997  -0.372  -0.600  0.00  0.00    -0.270 N 
BRANCH   6   7
ATOM      7  C   UNL     1       9.477  -1.689  -0.576  0.00  0.00    +0.051 A 
ATOM      8  C   UNL     1      10.260  -2.124   0.485  0.00  0.00    +0.028 A 
ATOM      9  C   UNL     1      10.732  -3.422   0.506  0.00  0.00    +0.022 A 
ATOM     10  C   UNL     1      10.424  -4.289  -0.527  0.00  0.00    +0.041 A 
ATOM     11  C   UNL     1       9.644  -3.857  -1.586  0.00  0.00    +0.022 A 
ATOM     12  C   UNL     1       9.165  -2.562  -1.609  0.00  0.00    +0.028 A 
ATOM     13 CL   UNL     1      11.018  -5.920  -0.497  0.00  0.00    -0.084 Cl
ENDBRANCH   6   7
BRANCH   5  14
ATOM     14  C   UNL     1      11.210   0.876  -0.814  0.00  0.00    +0.020 A 
ATOM     15  C   UNL     1      11.961  -0.254  -1.143  0.00  0.00    +0.013 A 
ATOM     16  C   UNL     1      13.333  -0.162  -1.245  0.00  0.00    +0.021 A 
ATOM     17  C   UNL     1      13.967   1.049  -1.020  0.00  0.00    +0.041 A 
ATOM     18  C   UNL     1      13.228   2.173  -0.693  0.00  0.00    +0.021 A 
ATOM     19  C   UNL     1      11.854   2.095  -0.594  0.00  0.00    +0.013 A 
ATOM     20 CL   UNL     1      15.695   1.157  -1.149  0.00  0.00    -0.084 Cl
ENDBRANCH   5  14
ENDBRANCH   1   2
BRANCH   1  21
ATOM     21  C   UNL     1       4.883   0.149  -0.340  0.00  0.00    +0.174 C 
BRANCH  21  23
ATOM     22  N   UNL     1       2.418   0.034  -0.166  0.00  0.00    -0.236 N 
ATOM     23  C   UNL     1       3.594  -0.622  -0.218  0.00  0.00    +0.239 C 
ATOM     24  O   UNL     1       3.615  -1.834  -0.167  0.00  0.00    -0.273 OA
ATOM     25  H   UNL     1       2.401   1.003  -0.206  0.00  0.00    +0.173 HD
BRANCH  22  26
ATOM     26  N   UNL     1       1.220  -0.684  -0.052  0.00  0.00    -0.264 N 
ATOM     27  H   UNL     1       1.237  -1.653  -0.011  0.00  0.00    +0.170 HD
BRANCH  26  29
ATOM     28  C   UNL     1      -0.021   1.330  -0.054  0.00  0.00    +0.035 C 
ATOM     29  C   UNL     1       0.002  -0.004   0.002  0.00  0.00    +0.045 C 
BRANCH  29  30
ATOM     30  C   UNL     1      -1.262  -0.761   0.122  0.00  0.00    +0.004 A 
ATOM     31  C   UNL     1      -2.265  -0.602  -0.820  0.00  0.00    +0.010 A 
ATOM     32  C   UNL     1      -3.456  -1.310  -0.714  0.00  0.00    +0.001 A 
ATOM     33  C   UNL     1      -3.671  -2.178   0.314  0.00  0.00    +0.008 A 
ATOM     34  C   UNL     1      -2.680  -2.371   1.292  0.00  0.00    -0.017 A 
ATOM     35  C   UNL     1      -1.458  -1.661   1.197  0.00  0.00    -0.009 A 
ATOM     36  C   UNL     1      -0.469  -1.858   2.171  0.00  0.00    +0.009 A 
ATOM     37  C   UNL     1      -0.692  -2.732   3.192  0.00  0.00    +0.001 A 
ATOM     38  C   UNL     1      -1.891  -3.435   3.284  0.00  0.00    +0.001 A 
ATOM     39  C   UNL     1      -2.877  -3.260   2.363  0.00  0.00    +0.008 A 
ENDBRANCH  29  30
ENDBRANCH  26  29
ENDBRANCH  22  26
ENDBRANCH  21  23
ENDBRANCH   1  21
TORSDOF 8
