REMARK  Name = ZINC08763873
REMARK  11 active torsions:
REMARK  status: ('A' for Active; 'I' for Inactive)
REMARK    1  A    between atoms: C_1  and  C_2
REMARK    2  A    between atoms: C_4  and  C_33
REMARK    3  A    between atoms: C_6  and  O_8
REMARK    4  A    between atoms: O_8  and  C_9
REMARK    5  A    between atoms: C_14  and  O_20
REMARK    6  A    between atoms: O_20  and  C_21
REMARK    7  A    between atoms: C_21  and  C_22
REMARK    8  A    between atoms: C_22  and  C_24
REMARK    9  A    between atoms: C_22  and  O_32
REMARK   10  A    between atoms: C_24  and  N_63
REMARK   11  A    between atoms: C_29  and  C_31
REMARK                            x       y       z     vdW  Elec       q    Type
REMARK                         _______ _______ _______ _____ _____    ______ ____
ROOT
ATOM      1  C   UNL     1       8.909  10.420   2.619  0.00  0.00    +0.210 A 
ATOM      2  C   UNL     1       7.664  10.874   2.865  0.00  0.00    +0.245 A 
ATOM      3  O   UNL     1       6.580  10.090   2.795  0.00  0.00    -0.459 OA
ATOM      4  C   UNL     1       6.653   8.783   2.471  0.00  0.00    +0.142 A 
ATOM      5  C   UNL     1       5.510   7.999   2.407  0.00  0.00    +0.092 A 
ATOM      6  C   UNL     1       5.614   6.660   2.072  0.00  0.00    +0.124 A 
ATOM      7  C   UNL     1       6.857   6.090   1.804  0.00  0.00    +0.046 A 
ATOM      8  C   UNL     1       7.991   6.850   1.858  0.00  0.00    +0.019 A 
ATOM      9  C   UNL     1       7.902   8.201   2.193  0.00  0.00    +0.068 A 
ATOM     10  C   UNL     1       9.102   9.054   2.268  0.00  0.00    +0.234 A 
ATOM     11  O   UNL     1      10.213   8.608   2.038  0.00  0.00    -0.283 OA
ENDROOT
BRANCH   1  12
ATOM     12  O   UNL     1       9.975  11.262   2.706  0.00  0.00    -0.449 OA
BRANCH  12  18
ATOM     13  C   UNL     1       9.632  11.819  -2.131  0.00  0.00    +0.044 C 
ATOM     14  C   UNL     1      10.258  12.169  -0.806  0.00  0.00    -0.047 A 
ATOM     15  C   UNL     1      11.269  13.111  -0.747  0.00  0.00    +0.007 A 
ATOM     16  C   UNL     1      11.847  13.434   0.467  0.00  0.00    -0.047 A 
ATOM     17  C   UNL     1      11.415  12.817   1.625  0.00  0.00    +0.049 A 
ATOM     18  C   UNL     1      10.401  11.871   1.569  0.00  0.00    +0.129 A 
ATOM     19  C   UNL     1       9.827  11.545   0.348  0.00  0.00    +0.049 A 
ATOM     20  C   UNL     1      12.948  14.461   0.527  0.00  0.00    +0.044 C 
ENDBRANCH  12  18
ENDBRANCH   1  12
BRANCH   6  21
ATOM     21  O   UNL     1       4.495   5.893   2.010  0.00  0.00    -0.489 OA
BRANCH  21  22
ATOM     22  C   UNL     1       4.669   4.519   1.659  0.00  0.00    +0.258 C 
BRANCH  22  23
ATOM     23  C   UNL     1       3.308   3.820   1.640  0.00  0.00    +0.135 C 
BRANCH  23  24
ATOM     24  O   UNL     1       2.761   3.807   2.961  0.00  0.00    -0.390 OA
ATOM     25  H   UNL     1       3.310   3.345   3.609  0.00  0.00    +0.210 HD
ENDBRANCH  23  24
BRANCH  23  26
ATOM     26  C   UNL     1       3.479   2.383   1.144  0.00  0.00    -0.043 C 
BRANCH  26  33
ATOM     27  C   UNL     1       1.415   2.318  -0.119  0.00  0.00    -0.078 C 
ATOM     28  C   UNL     1      -0.003   1.743  -0.138  0.00  0.00    -0.019 C 
ATOM     29  C   UNL     1       0.071   0.218  -0.264  0.00  0.00    -0.003 C 
ATOM     30  C   UNL     1       0.892  -0.343   0.900  0.00  0.00    -0.016 C 
ATOM     31  C   UNL     1       2.284   0.293   0.889  0.00  0.00    -0.072 C 
ATOM     32  C   UNL     1       3.102  -0.250   2.062  0.00  0.00    -0.013 C 
ATOM     33  N   UNL     1       2.145   1.757   1.038  0.00  0.00    +0.383 N 
ATOM     34  H   UNL     1       1.614   1.956   1.894  0.00  0.00    -0.081 HD
ENDBRANCH  26  33
ENDBRANCH  23  26
ENDBRANCH  22  23
ENDBRANCH  21  22
ENDBRANCH   6  21
TORSDOF 8
