REMARK  Name = ZINC03085314
REMARK  8 active torsions:
REMARK  status: ('A' for Active; 'I' for Inactive)
REMARK    1  A    between atoms: C_6  and  N_11
REMARK    2  A    between atoms: C_12  and  C_14
REMARK    3  A    between atoms: C_14  and  S_15
REMARK    4  A    between atoms: S_15  and  C_16
REMARK    5  A    between atoms: C_19  and  C_21
REMARK    6  A    between atoms: N_22  and  N_23
REMARK    7  A    between atoms: C_24  and  C_26
REMARK    8  A    between atoms: C_31  and  N_32
REMARK                            x       y       z     vdW  Elec       q    Type
REMARK                         _______ _______ _______ _____ _____    ______ ____
ROOT
ATOM      1  C   UNL     1      -8.744   0.988   0.619  0.00  0.00    +0.162 A 
ATOM      2  C   UNL     1      -9.408  -0.306   0.809  0.00  0.00    +0.057 A 
ATOM      3  C   UNL     1      -8.442  -1.253   0.762  0.00  0.00    +0.052 A 
ATOM      4  C   UNL     1      -7.170  -0.549   0.551  0.00  0.00    +0.149 A 
ATOM      5  O   UNL     1      -7.425   0.773   0.473  0.00  0.00    -0.448 OA
ENDROOT
BRANCH   4   6
ATOM      6  C   UNL     1      -5.918  -1.144   0.445  0.00  0.00    +0.176 C 
ATOM      7  N   UNL     1      -4.843  -0.395   0.250  0.00  0.00    -0.184 NA
BRANCH   7   8
ATOM      8  N   UNL     1      -3.682  -0.948   0.151  0.00  0.00    -0.203 N 
ATOM      9  C   UNL     1      -2.588  -0.186  -0.048  0.00  0.00    +0.265 C 
ATOM     10  O   UNL     1      -2.696   1.021  -0.134  0.00  0.00    -0.268 OA
ATOM     11  H   UNL     1      -3.596  -1.911   0.221  0.00  0.00    +0.178 HD
BRANCH   9  12
ATOM     12  C   UNL     1      -1.258  -0.818  -0.160  0.00  0.00    +0.068 A 
ATOM     13  C   UNL     1      -0.986  -1.697  -1.211  0.00  0.00    +0.015 A 
ATOM     14  C   UNL     1       0.258  -2.285  -1.310  0.00  0.00    +0.001 A 
ATOM     15  C   UNL     1       1.235  -2.005  -0.370  0.00  0.00    +0.002 A 
ATOM     16  C   UNL     1       0.974  -1.131   0.670  0.00  0.00    +0.033 A 
ATOM     17  C   UNL     1      -0.267  -0.541   0.784  0.00  0.00    +0.138 A 
BRANCH  17  18
ATOM     18  N   UNL     1      -0.546   0.390   1.901  0.00  0.00    +0.057 N 
ATOM     19  O   UNL     1       0.359   0.586   2.837  0.00  0.00    -0.126 OA
ATOM     20  O   UNL     1      -1.698   1.026   1.956  0.00  0.00    -0.126 OA
ENDBRANCH  17  18
ENDBRANCH   9  12
ENDBRANCH   7   8
ENDBRANCH   4   6
BRANCH   1  21
ATOM     21  S   UNL     1      -9.518   2.515   0.587  0.00  0.00    -0.079 S 
BRANCH  21  22
ATOM     22  C   UNL     1      -8.086   3.588   0.320  0.00  0.00    +0.173 C 
BRANCH  22  24
ATOM     23  N   UNL     1      -7.638   6.007   0.062  0.00  0.00    -0.285 N 
ATOM     24  C   UNL     1      -8.539   5.024   0.256  0.00  0.00    +0.227 C 
ATOM     25  O   UNL     1      -9.715   5.295   0.379  0.00  0.00    -0.275 OA
ATOM     26  H   UNL     1      -6.706   5.787  -0.091  0.00  0.00    +0.155 HD
BRANCH  23  32
ATOM     27  C   UNL     1      -8.482  12.285   0.638  0.00  0.00    +0.001 A 
ATOM     28  C   UNL     1      -7.230  11.947   1.150  0.00  0.00    +0.001 A 
ATOM     29  C   UNL     1      -6.798  10.657   1.148  0.00  0.00    +0.008 A 
ATOM     30  C   UNL     1      -7.624   9.647   0.624  0.00  0.00    -0.016 A 
ATOM     31  C   UNL     1      -7.210   8.305   0.605  0.00  0.00    +0.031 A 
ATOM     32  C   UNL     1      -8.047   7.345   0.082  0.00  0.00    +0.034 A 
ATOM     33  C   UNL     1      -9.300   7.694  -0.434  0.00  0.00    +0.024 A 
ATOM     34  C   UNL     1      -9.726   8.985  -0.423  0.00  0.00    +0.010 A 
ATOM     35  C   UNL     1      -8.897   9.991   0.103  0.00  0.00    -0.018 A 
ATOM     36  C   UNL     1      -9.308  11.335   0.122  0.00  0.00    +0.008 A 
ENDBRANCH  23  32
ENDBRANCH  22  24
ENDBRANCH  21  22
ENDBRANCH   1  21
TORSDOF 8
