REMARK  Name = ZINC21368157
REMARK  8 active torsions:
REMARK  status: ('A' for Active; 'I' for Inactive)
REMARK    1  A    between atoms: C_1  and  C_2
REMARK    2  A    between atoms: C_2  and  C_3
REMARK    3  A    between atoms: C_3  and  C_27
REMARK    4  A    between atoms: N_6  and  C_10
REMARK    5  A    between atoms: C_10  and  C_11
REMARK    6  A    between atoms: N_13  and  C_14
REMARK    7  A    between atoms: C_14  and  C_16
REMARK    8  A    between atoms: C_14  and  C_17
REMARK                            x       y       z     vdW  Elec       q    Type
REMARK                         _______ _______ _______ _____ _____    ______ ____
ROOT
ATOM      1  C   UNL     1       5.766  -0.454   3.112  0.00  0.00    +0.138 C 
ATOM      2  C   UNL     1       4.837   0.685   2.743  0.00  0.00    +0.251 C 
ATOM      3  O   UNL     1       4.395   1.539   3.482  0.00  0.00    -0.272 OA
ATOM      4  N   UNL     1       4.602   0.550   1.423  0.00  0.00    -0.215 N 
ATOM      5  C   UNL     1       5.253  -0.500   0.911  0.00  0.00    +0.310 C 
ATOM      6  O   UNL     1       5.201  -0.822  -0.260  0.00  0.00    -0.252 OA
ATOM      7  N   UNL     1       5.973  -1.160   1.836  0.00  0.00    -0.281 N 
ATOM      8  H   UNL     1       6.621  -2.048   1.798  0.00  0.00    +0.152 HD
ENDROOT
BRANCH   1   9
ATOM      9  C   UNL     1       7.073   0.083   3.639  0.00  0.00    -0.015 A 
ATOM     10  C   UNL     1       7.261   0.229   5.000  0.00  0.00    +0.007 A 
ATOM     11  C   UNL     1       8.461   0.715   5.484  0.00  0.00    +0.020 A 
ATOM     12  C   UNL     1       9.469   1.067   4.604  0.00  0.00    +0.041 A 
ATOM     13  C   UNL     1       9.278   0.926   3.241  0.00  0.00    +0.020 A 
ATOM     14  C   UNL     1       8.080   0.434   2.759  0.00  0.00    +0.007 A 
ATOM     15 CL   UNL     1      10.974   1.686   5.210  0.00  0.00    -0.084 Cl
ENDBRANCH   1   9
BRANCH   1  17
ATOM     16  C   UNL     1       3.823  -1.961   3.552  0.00  0.00    +0.007 C 
ATOM     17  C   UNL     1       5.110  -1.378   4.139  0.00  0.00    +0.037 C 
ENDBRANCH   1  17
BRANCH   4  18
ATOM     18  C   UNL     1       3.745   1.447   0.644  0.00  0.00    +0.213 C 
BRANCH  18  19
ATOM     19  C   UNL     1       2.331   0.926   0.654  0.00  0.00    +0.231 C 
ATOM     20  O   UNL     1       2.066  -0.095   1.254  0.00  0.00    -0.274 OA
ATOM     21  N   UNL     1       1.362   1.593  -0.002  0.00  0.00    -0.307 N 
ATOM     22  H   UNL     1       1.602   2.518  -0.546  0.00  0.00    +0.149 HD
BRANCH  21  23
ATOM     23  C   UNL     1      -0.013   1.086   0.008  0.00  0.00    +0.100 C 
ATOM     24  C   UNL     1      -0.729   1.579   1.267  0.00  0.00    +0.033 C 
BRANCH  23  25
ATOM     25  C   UNL     1      -0.742   1.585  -1.213  0.00  0.00    -0.027 A 
ATOM     26  C   UNL     1      -0.538   2.894  -1.647  0.00  0.00    +0.006 A 
ATOM     27  C   UNL     1      -1.180   3.376  -2.746  0.00  0.00    +0.009 A 
ATOM     28  C   UNL     1      -2.063   2.544  -3.456  0.00  0.00    -0.018 A 
ATOM     29  C   UNL     1      -2.743   3.006  -4.595  0.00  0.00    +0.008 A 
ATOM     30  C   UNL     1      -3.590   2.172  -5.258  0.00  0.00    +0.001 A 
ATOM     31  C   UNL     1      -3.794   0.863  -4.824  0.00  0.00    +0.001 A 
ATOM     32  C   UNL     1      -3.152   0.382  -3.725  0.00  0.00    +0.008 A 
ATOM     33  C   UNL     1      -2.270   1.214  -3.014  0.00  0.00    -0.018 A 
ATOM     34  C   UNL     1      -1.585   0.750  -1.879  0.00  0.00    +0.014 A 
ENDBRANCH  23  25
ENDBRANCH  21  23
ENDBRANCH  18  19
ENDBRANCH   4  18
TORSDOF 6
