REMARK  Name = ZINC13552691
REMARK  7 active torsions:
REMARK  status: ('A' for Active; 'I' for Inactive)
REMARK    1  A    between atoms: C_1  and  C_2
REMARK    2  A    between atoms: C_5  and  N_9
REMARK    3  A    between atoms: C_6  and  C_8
REMARK    4  A    between atoms: C_10  and  C_12
REMARK    5  A    between atoms: C_13  and  C_29
REMARK    6  A    between atoms: C_16  and  C_27
REMARK    7  A    between atoms: C_20  and  C_22
REMARK                            x       y       z     vdW  Elec       q    Type
REMARK                         _______ _______ _______ _____ _____    ______ ____
ROOT
ATOM      1  C   UNL     1       0.150  -6.247  -1.001  0.00  0.00    +0.061 C 
ATOM      2  C   UNL     1       0.222  -6.958  -2.136  0.00  0.00    +0.017 C 
ATOM      3  N   UNL     1       0.260  -8.331  -2.134  0.00  0.00    -0.302 N 
ATOM      4  C   UNL     1      -0.041  -8.973  -0.944  0.00  0.00    +0.140 A 
ATOM      5  C   UNL     1      -0.310 -10.304  -0.697  0.00  0.00    +0.111 A 
ATOM      6  C   UNL     1      -0.560 -10.421   0.693  0.00  0.00    +0.155 A 
ATOM      7  N   UNL     1      -0.446  -9.235   1.230  0.00  0.00    -0.176 NA
ATOM      8  N   UNL     1      -0.120  -8.314   0.239  0.00  0.00    -0.237 N 
ATOM      9  C   UNL     1       0.124  -6.874   0.366  0.00  0.00    +0.182 C 
ATOM     10  C   UNL     1       0.262  -6.229  -3.454  0.00  0.00    +0.061 C 
ATOM     11  H   UNL     1       0.490  -8.831  -2.933  0.00  0.00    +0.153 HD
ENDROOT
BRANCH   9  12
ATOM     12  C   UNL     1       1.446  -6.643   1.050  0.00  0.00    +0.019 A 
ATOM     13  C   UNL     1       1.704  -5.999   2.215  0.00  0.00    +0.013 A 
ATOM     14  C   UNL     1       3.011  -5.907   2.656  0.00  0.00    +0.008 A 
ATOM     15  C   UNL     1       3.996  -6.465   1.910  0.00  0.00    +0.045 A 
ATOM     16  S   UNL     1       3.080  -7.152   0.541  0.00  0.00    -0.099 S 
ENDBRANCH   9  12
BRANCH   1  18
ATOM     17  N   UNL     1       1.201  -4.147  -1.462  0.00  0.00    -0.281 N 
ATOM     18  C   UNL     1       0.102  -4.836  -1.094  0.00  0.00    +0.248 C 
ATOM     19  O   UNL     1      -0.932  -4.244  -0.842  0.00  0.00    -0.270 OA
ATOM     20  H   UNL     1       2.008  -4.622  -1.716  0.00  0.00    +0.155 HD
BRANCH  17  25
ATOM     21  C   UNL     1       1.105   1.524  -1.516  0.00  0.00    +0.044 C 
ATOM     22  C   UNL     1       1.131   0.017  -1.502  0.00  0.00    -0.050 A 
ATOM     23  C   UNL     1      -0.007  -0.695  -1.834  0.00  0.00    +0.005 A 
ATOM     24  C   UNL     1       0.012  -2.076  -1.822  0.00  0.00    +0.024 A 
ATOM     25  C   UNL     1       1.177  -2.749  -1.476  0.00  0.00    +0.037 A 
ATOM     26  C   UNL     1       2.318  -2.031  -1.143  0.00  0.00    -0.029 A 
ATOM     27  C   UNL     1       2.293  -0.650  -1.162  0.00  0.00    +0.008 A 
ATOM     28  C   UNL     1       3.584  -2.757  -0.767  0.00  0.00    +0.045 C 
ENDBRANCH  17  25
ENDBRANCH   1  18
BRANCH   5  29
ATOM     29  C   UNL     1      -0.331 -11.364  -1.660  0.00  0.00    +0.104 C 
ATOM     30  N   UNL     1      -0.347 -12.205  -2.424  0.00  0.00    -0.191 NA
ENDBRANCH   5  29
TORSDOF 4
