REMARK  Name = ZINC25783327
REMARK  14 active torsions:
REMARK  status: ('A' for Active; 'I' for Inactive)
REMARK    1  A    between atoms: C_1  and  C_2
REMARK    2  A    between atoms: C_2  and  C_3
REMARK    3  A    between atoms: C_2  and  C_4
REMARK    4  A    between atoms: C_2  and  C_5
REMARK    5  A    between atoms: C_7  and  C_16
REMARK    6  A    between atoms: C_9  and  C_12
REMARK    7  A    between atoms: C_10  and  O_11
REMARK    8  A    between atoms: C_12  and  C_13
REMARK    9  A    between atoms: C_12  and  C_14
REMARK   10  A    between atoms: C_12  and  C_15
REMARK   11  A    between atoms: N_17  and  N_18
REMARK   12  A    between atoms: C_19  and  C_21
REMARK   13  A    between atoms: C_22  and  C_32
REMARK   14  A    between atoms: C_32  and  N_33
REMARK                            x       y       z     vdW  Elec       q    Type
REMARK                         _______ _______ _______ _____ _____    ______ ____
ROOT
ATOM      1  N   UNL     1      -3.568  -0.120   4.958  0.00  0.00    -0.202 N 
ATOM      2  C   UNL     1      -2.580   0.192   4.096  0.00  0.00    +0.284 C 
ATOM      3  O   UNL     1      -2.400  -0.490   3.104  0.00  0.00    -0.267 OA
ATOM      4  H   UNL     1      -3.786   0.543   5.807  0.00  0.00    +0.178 HD
ENDROOT
BRANCH   2   5
ATOM      5  C   UNL     1      -1.720   1.357   4.353  0.00  0.00    +0.157 A 
ATOM      6  C   UNL     1      -0.517   1.371   5.009  0.00  0.00    +0.110 A 
ATOM      7  N   UNL     1      -0.104   2.639   5.011  0.00  0.00    -0.132 NA
ATOM      8  N   UNL     1      -0.965   3.371   4.399  0.00  0.00    -0.058 NA
ATOM      9  N   UNL     1      -1.955   2.660   3.986  0.00  0.00    -0.183 N 
ATOM     10  C   UNL     1      -3.072   3.130   3.288  0.00  0.00    +0.241 A 
ATOM     11  C   UNL     1      -3.265   4.499   2.800  0.00  0.00    +0.206 A 
ATOM     12  N   UNL     1      -4.420   4.561   2.198  0.00  0.00    -0.032 NA
ATOM     13  O   UNL     1      -5.013   3.276   2.265  0.00  0.00    -0.239 OA
ATOM     14  N   UNL     1      -4.116   2.425   2.955  0.00  0.00    -0.027 NA
ATOM     15  N   UNL     1      -2.369   5.551   2.953  0.00  0.00    -0.337 N 
ATOM     16  H   UNL     1      -2.613   6.544   2.547  0.00  0.00    +0.144 HD
ATOM     17  H   UNL     1      -1.417   5.391   3.480  0.00  0.00    +0.144 HD
BRANCH   6  18
ATOM     18  C   UNL     1       0.195   0.189   5.615  0.00  0.00    +0.144 C 
BRANCH  18  19
ATOM     19  N   UNL     1       1.083  -0.414   4.612  0.00  0.00    -0.292 NA
ATOM     20  C   UNL     1       1.966  -1.416   5.226  0.00  0.00    +0.113 C 
ATOM     21  C   UNL     1       2.832  -2.061   4.140  0.00  0.00    +0.175 C 
ATOM     22  O   UNL     1       3.563  -1.042   3.453  0.00  0.00    -0.377 OA
ATOM     23  C   UNL     1       2.733  -0.050   2.842  0.00  0.00    +0.175 C 
ATOM     24  C   UNL     1       1.867   0.615   3.915  0.00  0.00    +0.113 C 
ENDBRANCH  18  19
ENDBRANCH   6  18
ENDBRANCH   2   5
BRANCH   1  26
ATOM     25  C   UNL     1      -5.268  -1.591   5.602  0.00  0.00    +0.138 C 
ATOM     26  N   UNL     1      -4.316  -1.290   4.772  0.00  0.00    -0.187 NA
BRANCH  25  29
ATOM     27  C   UNL     1      -7.813  -4.298   6.112  0.00  0.00    +0.000 A 
ATOM     28  C   UNL     1      -7.080  -3.147   6.299  0.00  0.00    +0.017 A 
ATOM     29  C   UNL     1      -6.055  -2.821   5.406  0.00  0.00    -0.005 A 
ATOM     30  C   UNL     1      -5.783  -3.663   4.324  0.00  0.00    +0.017 A 
ATOM     31  C   UNL     1      -6.519  -4.815   4.148  0.00  0.00    +0.000 A 
ATOM     32  C   UNL     1      -7.536  -5.135   5.038  0.00  0.00    +0.124 A 
BRANCH  27  34
ATOM     33  C   UNL     1      -9.016  -3.574   8.156  0.00  0.00    +0.015 C 
ATOM     34  C   UNL     1      -8.919  -4.651   7.074  0.00  0.00    -0.009 C 
ATOM     35  C   UNL     1     -10.246  -4.735   6.317  0.00  0.00    +0.015 C 
ATOM     36  C   UNL     1      -8.616  -6.002   7.725  0.00  0.00    +0.015 C 
ENDBRANCH  27  34
BRANCH  31  37
ATOM     37  C   UNL     1      -6.223  -5.726   2.985  0.00  0.00    -0.009 C 
ATOM     38  C   UNL     1      -5.066  -5.149   2.166  0.00  0.00    +0.015 C 
ATOM     39  C   UNL     1      -5.836  -7.111   3.508  0.00  0.00    +0.015 C 
ATOM     40  C   UNL     1      -7.465  -5.843   2.100  0.00  0.00    +0.015 C 
ENDBRANCH  31  37
BRANCH  32  41
ATOM     41  O   UNL     1      -8.262  -6.268   4.857  0.00  0.00    -0.506 OA
ATOM     42  H   UNL     1      -8.044  -6.931   4.007  0.00  0.00    +0.292 HD
ENDBRANCH  32  41
ENDBRANCH  25  29
ENDBRANCH   1  26
TORSDOF 8
