REMARK  Name = ZINC13079175
REMARK  10 active torsions:
REMARK  status: ('A' for Active; 'I' for Inactive)
REMARK    1  A    between atoms: C_1  and  C_2
REMARK    2  A    between atoms: C_4  and  C_28
REMARK    3  A    between atoms: C_6  and  S_9
REMARK    4  A    between atoms: C_7  and  C_8
REMARK    5  A    between atoms: S_9  and  N_12
REMARK    6  A    between atoms: C_15  and  C_18
REMARK    7  A    between atoms: C_20  and  C_27
REMARK    8  A    between atoms: N_21  and  C_24
REMARK    9  A    between atoms: C_22  and  C_23
REMARK   10  A    between atoms: C_24  and  C_25
REMARK                            x       y       z     vdW  Elec       q    Type
REMARK                         _______ _______ _______ _____ _____    ______ ____
ROOT
ATOM      1  N   UNL     1       4.948   5.199   0.045  0.00  0.00    -0.194 N 
ATOM      2  C   UNL     1       3.701   4.622   0.223  0.00  0.00    +0.178 A 
ATOM      3  N   UNL     1       3.385   3.345   0.294  0.00  0.00    -0.224 NA
ATOM      4  C   UNL     1       2.128   2.957   0.465  0.00  0.00    +0.082 A 
ATOM      5  C   UNL     1       1.169   3.922   0.577  0.00  0.00    +0.077 A 
ATOM      6  S   UNL     1       2.161   5.399   0.416  0.00  0.00    -0.059 S 
ATOM      7  H   UNL     1       5.742   4.642   0.022  0.00  0.00    +0.176 HD
ENDROOT
BRANCH   4   8
ATOM      8  C   UNL     1       1.776   1.517   0.539  0.00  0.00    +0.022 A 
ATOM      9  C   UNL     1       0.478   0.975   0.724  0.00  0.00    +0.032 A 
ATOM     10  C   UNL     1       0.600  -0.366   0.733  0.00  0.00    +0.017 A 
ATOM     11  N   UNL     1       1.915  -0.683   0.562  0.00  0.00    -0.344 N 
ATOM     12  C   UNL     1       2.636   0.469   0.443  0.00  0.00    +0.025 A 
ATOM     13  C   UNL     1       4.127   0.563   0.241  0.00  0.00    +0.064 C 
ATOM     14  C   UNL     1      -0.528  -1.350   0.904  0.00  0.00    +0.063 C 
BRANCH  11  15
ATOM     15  C   UNL     1       2.464  -2.040   0.513  0.00  0.00    +0.148 C 
BRANCH  15  16
ATOM     16  C   UNL     1       2.463  -2.531  -0.912  0.00  0.00    -0.013 C 
ATOM     17  C   UNL     1       3.573  -2.960  -1.458  0.00  0.00    +0.005 C 
ENDBRANCH  15  16
ENDBRANCH  11  15
ENDBRANCH   4   8
BRANCH   1  18
ATOM     18  S   UNL     1       5.084   6.840  -0.130  0.00  0.00    +0.074 S 
ATOM     19  O   UNL     1       6.470   7.121  -0.270  0.00  0.00    -0.150 OA
ATOM     20  O   UNL     1       4.127   7.225  -1.108  0.00  0.00    -0.150 OA
BRANCH  18  26
ATOM     21  C   UNL     1       5.703   7.652   4.995  0.00  0.00    +0.044 C 
ATOM     22  C   UNL     1       4.906   7.909   3.743  0.00  0.00    -0.045 A 
ATOM     23  C   UNL     1       3.784   8.711   3.793  0.00  0.00    +0.018 A 
ATOM     24  C   UNL     1       3.046   8.947   2.631  0.00  0.00    +0.065 A 
ATOM     25  C   UNL     1       3.450   8.370   1.426  0.00  0.00    +0.044 A 
ATOM     26  C   UNL     1       4.573   7.570   1.390  0.00  0.00    +0.112 A 
ATOM     27  C   UNL     1       5.297   7.335   2.546  0.00  0.00    -0.021 A 
ATOM     28  C   UNL     1       6.519   6.456   2.500  0.00  0.00    +0.046 C 
BRANCH  24  29
ATOM     29  C   UNL     1       1.844   9.804   2.678  0.00  0.00    +0.387 C 
ATOM     30  O   UNL     1       1.204  10.008   1.666  0.00  0.00    -0.241 OA
ATOM     31  O   UNL     1       1.457  10.360   3.842  0.00  0.00    -0.241 OA
ENDBRANCH  24  29
ENDBRANCH  18  26
ENDBRANCH   1  18
TORSDOF 6
