REMARK  Name = ZINC07402930
REMARK  10 active torsions:
REMARK  status: ('A' for Active; 'I' for Inactive)
REMARK    1  A    between atoms: C_1  and  C_2
REMARK    2  A    between atoms: C_3  and  S_8
REMARK    3  A    between atoms: C_4  and  C_7
REMARK    4  A    between atoms: S_8  and  N_11
REMARK    5  A    between atoms: N_11  and  N_12
REMARK    6  A    between atoms: C_13  and  C_15
REMARK    7  A    between atoms: C_22  and  C_25
REMARK    8  A    between atoms: C_25  and  C_26
REMARK    9  A    between atoms: C_25  and  C_27
REMARK   10  A    between atoms: C_25  and  C_28
REMARK                            x       y       z     vdW  Elec       q    Type
REMARK                         _______ _______ _______ _____ _____    ______ ____
ROOT
ATOM      1  N   UNL     1      -0.011   0.966   0.007  0.00  0.00    -0.227 N 
ATOM      2  C   UNL     1      -1.187   1.624   0.017  0.00  0.00    +0.265 C 
ATOM      3  O   UNL     1      -1.204   2.841   0.023  0.00  0.00    -0.268 OA
ATOM      4  H   UNL     1       0.002  -0.004   0.002  0.00  0.00    +0.171 HD
ENDROOT
BRANCH   2   5
ATOM      5  C   UNL     1      -2.447   0.874   0.018  0.00  0.00    +0.076 A 
ATOM      6  C   UNL     1      -3.745   1.349   0.033  0.00  0.00    +0.024 A 
ATOM      7  C   UNL     1      -4.779   0.428   0.027  0.00  0.00    -0.036 A 
ATOM      8  C   UNL     1      -4.427  -0.892   0.018  0.00  0.00    -0.006 A 
ATOM      9  S   UNL     1      -2.705  -0.892   0.011  0.00  0.00    -0.088 S 
ATOM     10  C   UNL     1      -5.349  -2.072   0.015  0.00  0.00    +0.043 C 
ATOM     11  C   UNL     1      -6.758  -1.585  -0.353  0.00  0.00    +0.009 C 
ATOM     12  C   UNL     1      -7.090  -0.354   0.495  0.00  0.00    -0.001 C 
ATOM     13  C   UNL     1      -6.250   0.838   0.036  0.00  0.00    +0.040 C 
BRANCH  12  14
ATOM     14  C   UNL     1      -8.575  -0.018   0.343  0.00  0.00    -0.035 C 
ATOM     15  C   UNL     1      -8.880   0.288  -1.125  0.00  0.00    +0.011 C 
ATOM     16  C   UNL     1      -9.418  -1.210   0.802  0.00  0.00    +0.011 C 
ATOM     17  C   UNL     1      -8.912   1.205   1.199  0.00  0.00    +0.011 C 
ENDBRANCH  12  14
ENDBRANCH   2   5
BRANCH   1  18
ATOM     18  N   UNL     1       1.193   1.683  -0.000  0.00  0.00    -0.107 NA
ATOM     19  H   UNL     1       1.356   2.349  -0.686  0.00  0.00    +0.172 HD
BRANCH  18  20
ATOM     20  S   UNL     1       2.336   1.393   1.162  0.00  0.00    +0.079 S 
ATOM     21  O   UNL     1       3.480   2.157   0.805  0.00  0.00    -0.152 OA
ATOM     22  O   UNL     1       1.685   1.538   2.417  0.00  0.00    -0.152 OA
BRANCH  20  25
ATOM     23  C   UNL     1       4.775  -0.120  -0.673  0.00  0.00    +0.071 C 
ATOM     24  C   UNL     1       3.831  -0.861   0.239  0.00  0.00    +0.107 A 
ATOM     25  C   UNL     1       2.799  -0.301   1.027  0.00  0.00    +0.171 A 
ATOM     26  C   UNL     1       2.253  -1.368   1.658  0.00  0.00    +0.161 A 
ATOM     27  O   UNL     1       2.933  -2.445   1.240  0.00  0.00    -0.358 OA
ATOM     28  N   UNL     1       3.804  -2.144   0.457  0.00  0.00    -0.081 NA
ATOM     29  C   UNL     1       1.107  -1.348   2.635  0.00  0.00    +0.091 C 
ENDBRANCH  20  25
ENDBRANCH  18  20
ENDBRANCH   1  18
TORSDOF 5
