REMARK  Name = ZINC09009040
REMARK  6 active torsions:
REMARK  status: ('A' for Active; 'I' for Inactive)
REMARK    1  A    between atoms: C_1  and  C_2
REMARK    2  A    between atoms: C_4  and  C_8
REMARK    3  A    between atoms: N_12  and  N_13
REMARK    4  A    between atoms: C_14  and  C_15
REMARK    5  A    between atoms: C_16  and  C_17
REMARK    6  A    between atoms: C_22  and  N_23
REMARK                            x       y       z     vdW  Elec       q    Type
REMARK                         _______ _______ _______ _____ _____    ______ ____
ROOT
ATOM      1  C   UNL     1      -2.151   2.302   3.591  0.00  0.00    +0.203 A 
ATOM      2  N   UNL     1      -2.362   0.993   3.262  0.00  0.00    -0.125 NA
ATOM      3  N   UNL     1      -1.570   0.658   2.306  0.00  0.00    -0.119 NA
ATOM      4  C   UNL     1      -0.798   1.730   1.957  0.00  0.00    +0.223 A 
ATOM      5  N   UNL     1      -1.163   2.779   2.765  0.00  0.00    -0.185 N 
ATOM      6  S   UNL     1       0.400   1.761   0.735  0.00  0.00    -0.007 SA
ENDROOT
BRANCH   1  10
ATOM      7  C   UNL     1      -4.955   3.583   7.546  0.00  0.00    +0.067 C 
ATOM      8  C   UNL     1      -4.060   3.609   6.334  0.00  0.00    +0.060 A 
ATOM      9  C   UNL     1      -3.621   2.503   5.627  0.00  0.00    +0.055 A 
ATOM     10  C   UNL     1      -2.820   3.024   4.583  0.00  0.00    +0.105 A 
ATOM     11  N   UNL     1      -2.838   4.394   4.748  0.00  0.00    -0.274 N 
ATOM     12  H   UNL     1      -2.282   5.039   4.052  0.00  0.00    +0.189 HD
ATOM     13  N   UNL     1      -3.560   4.689   5.769  0.00  0.00    -0.179 NA
ENDBRANCH   1  10
BRANCH   5  14
ATOM     14  N   UNL     1      -0.633   4.075   2.749  0.00  0.00    -0.171 NA
ATOM     15  C   UNL     1       0.394   4.368   3.495  0.00  0.00    +0.133 C 
BRANCH  15  16
ATOM     16  C   UNL     1       0.930   5.680   3.480  0.00  0.00    +0.022 C 
ATOM     17  C   UNL     1       1.994   5.983   4.253  0.00  0.00    +0.012 C 
BRANCH  17  18
ATOM     18  C   UNL     1       2.551   7.346   4.237  0.00  0.00    +0.005 A 
ATOM     19  C   UNL     1       2.078   8.288   3.317  0.00  0.00    +0.010 A 
ATOM     20  C   UNL     1       2.604   9.562   3.309  0.00  0.00    +0.001 A 
ATOM     21  C   UNL     1       3.599   9.910   4.207  0.00  0.00    +0.002 A 
ATOM     22  C   UNL     1       4.072   8.983   5.120  0.00  0.00    +0.033 A 
ATOM     23  C   UNL     1       3.551   7.706   5.144  0.00  0.00    +0.133 A 
BRANCH  23  24
ATOM     24  N   UNL     1       4.054   6.719   6.126  0.00  0.00    +0.057 N 
ATOM     25  O   UNL     1       4.349   7.100   7.351  0.00  0.00    -0.126 OA
ATOM     26  O   UNL     1       4.207   5.459   5.773  0.00  0.00    -0.126 OA
ENDBRANCH  23  24
ENDBRANCH  17  18
ENDBRANCH  15  16
ENDBRANCH   5  14
TORSDOF 5
