REMARK  Name = ZINC01886702
REMARK  15 active torsions:
REMARK  status: ('A' for Active; 'I' for Inactive)
REMARK    1  A    between atoms: C_1  and  C_2
REMARK    2  A    between atoms: C_2  and  C_41
REMARK    3  A    between atoms: C_9  and  C_24
REMARK    4  A    between atoms: C_9  and  N_28
REMARK    5  A    between atoms: N_12  and  C_13
REMARK    6  A    between atoms: C_13  and  C_14
REMARK    7  A    between atoms: C_16  and  O_22
REMARK    8  A    between atoms: C_18  and  O_20
REMARK    9  A    between atoms: O_20  and  C_21
REMARK   10  A    between atoms: O_22  and  C_23
REMARK   11  A    between atoms: C_29  and  C_31
REMARK   12  A    between atoms: C_31  and  C_32
REMARK   13  A    between atoms: C_32  and  C_33
REMARK   14  A    between atoms: C_36  and  O_39
REMARK   15  A    between atoms: O_39  and  C_40
REMARK                            x       y       z     vdW  Elec       q    Type
REMARK                         _______ _______ _______ _____ _____    ______ ____
ROOT
ATOM      1  C   UNL     1       0.026   1.319   0.547  0.00  0.00    +0.011 C 
ATOM      2  C   UNL     1       0.105  -0.207   0.475  0.00  0.00    -0.023 C 
ATOM      3  C   UNL     1       0.658  -0.622  -0.893  0.00  0.00    +0.058 C 
ATOM      4  C   UNL     1       2.082  -0.113  -1.000  0.00  0.00    +0.024 C 
ATOM      5  C   UNL     1       2.850   0.086   0.105  0.00  0.00    +0.053 C 
ATOM      6  C   UNL     1       2.409  -0.164   1.413  0.00  0.00    +0.164 C 
ATOM      7  O   UNL     1       3.124   0.057   2.369  0.00  0.00    -0.292 OA
ATOM      8  C   UNL     1       1.013  -0.720   1.593  0.00  0.00    +0.086 C 
ATOM      9  C   UNL     1       4.180   0.596  -0.378  0.00  0.00    +0.237 C 
ATOM     10  C   UNL     1       4.011   0.633  -1.886  0.00  0.00    +0.257 C 
ATOM     11  O   UNL     1       4.836   0.982  -2.703  0.00  0.00    -0.272 OA
ATOM     12  N   UNL     1       2.758   0.201  -2.135  0.00  0.00    -0.268 N 
ATOM     13  C   UNL     1      -1.297  -0.795   0.650  0.00  0.00    +0.011 C 
ENDROOT
BRANCH   9  14
ATOM     14  C   UNL     1       5.302  -0.367   0.016  0.00  0.00    +0.424 C 
ATOM     15  F   UNL     1       5.002  -1.650  -0.453  0.00  0.00    -0.167 F 
ATOM     16  F   UNL     1       6.507   0.066  -0.549  0.00  0.00    -0.167 F 
ATOM     17  F   UNL     1       5.425  -0.396   1.409  0.00  0.00    -0.167 F 
ENDBRANCH   9  14
BRANCH   9  18
ATOM     18  N   UNL     1       4.440   1.938   0.147  0.00  0.00    -0.291 N 
ATOM     19  C   UNL     1       3.630   2.962  -0.188  0.00  0.00    +0.215 C 
ATOM     20  O   UNL     1       2.631   2.755  -0.845  0.00  0.00    -0.276 OA
ATOM     21  H   UNL     1       5.196   2.091   0.736  0.00  0.00    +0.150 HD
BRANCH  19  22
ATOM     22  C   UNL     1       3.964   4.363   0.253  0.00  0.00    +0.100 C 
BRANCH  22  23
ATOM     23  C   UNL     1       2.891   5.328  -0.255  0.00  0.00    +0.044 C 
BRANCH  23  24
ATOM     24  C   UNL     1       3.225   6.729   0.186  0.00  0.00    -0.047 A 
ATOM     25  C   UNL     1       2.755   7.202   1.398  0.00  0.00    +0.007 A 
ATOM     26  C   UNL     1       3.060   8.487   1.804  0.00  0.00    +0.046 A 
ATOM     27  C   UNL     1       3.838   9.303   0.996  0.00  0.00    +0.120 A 
ATOM     28  C   UNL     1       4.309   8.826  -0.218  0.00  0.00    +0.046 A 
ATOM     29  C   UNL     1       4.006   7.539  -0.618  0.00  0.00    +0.007 A 
BRANCH  27  30
ATOM     30  O   UNL     1       4.139  10.567   1.394  0.00  0.00    -0.495 OA
ATOM     31  C   UNL     1       4.945  11.350   0.511  0.00  0.00    +0.277 C 
ENDBRANCH  27  30
ENDBRANCH  23  24
ENDBRANCH  22  23
ENDBRANCH  19  22
ENDBRANCH   9  18
BRANCH  12  32
ATOM     32  C   UNL     1       2.191   0.082  -3.480  0.00  0.00    +0.148 C 
BRANCH  32  33
ATOM     33  C   UNL     1       1.517   1.377  -3.857  0.00  0.00    -0.023 A 
ATOM     34  C   UNL     1       0.183   1.574  -3.556  0.00  0.00    +0.051 A 
ATOM     35  C   UNL     1      -0.439   2.765  -3.902  0.00  0.00    +0.124 A 
ATOM     36  C   UNL     1       0.279   3.758  -4.551  0.00  0.00    +0.091 A 
ATOM     37  C   UNL     1       1.618   3.558  -4.852  0.00  0.00    +0.124 A 
ATOM     38  C   UNL     1       2.237   2.367  -4.499  0.00  0.00    +0.051 A 
BRANCH  37  39
ATOM     39  O   UNL     1       2.324   4.529  -5.489  0.00  0.00    -0.495 OA
ATOM     40  C   UNL     1       1.624   5.730  -5.817  0.00  0.00    +0.277 C 
ENDBRANCH  37  39
BRANCH  35  41
ATOM     41  O   UNL     1      -1.751   2.958  -3.607  0.00  0.00    -0.495 OA
ATOM     42  C   UNL     1      -2.326   4.208  -3.993  0.00  0.00    +0.277 C 
ENDBRANCH  35  41
ENDBRANCH  32  33
ENDBRANCH  12  32
TORSDOF 10
