REMARK  Name = ZINC09135540
REMARK  9 active torsions:
REMARK  status: ('A' for Active; 'I' for Inactive)
REMARK    1  A    between atoms: C_1  and  N_2
REMARK    2  A    between atoms: C_10  and  C_12
REMARK    3  A    between atoms: C_12  and  C_14
REMARK    4  A    between atoms: C_12  and  N_64
REMARK    5  A    between atoms: C_14  and  N_15
REMARK    6  A    between atoms: C_16  and  C_18
REMARK    7  A    between atoms: N_20  and  C_21
REMARK    8  A    between atoms: C_25  and  S_27
REMARK    9  A    between atoms: S_27  and  C_28
REMARK                            x       y       z     vdW  Elec       q    Type
REMARK                         _______ _______ _______ _____ _____    ______ ____
ROOT
ATOM      1  C   UNL     1       2.121   1.875   0.736  0.00  0.00    -0.020 C 
ENDROOT
BRANCH   1  11
ATOM      2  C   UNL     1      -3.265   2.327  -2.536  0.00  0.00    +0.129 C 
ATOM      3  N   UNL     1      -2.160   3.277  -2.717  0.00  0.00    -0.333 N 
ATOM      4  C   UNL     1      -2.631   4.659  -2.597  0.00  0.00    +0.105 C 
ATOM      5  C   UNL     1      -1.433   5.602  -2.768  0.00  0.00    +0.024 C 
ATOM      6  C   UNL     1      -0.519   5.427  -1.554  0.00  0.00    +0.038 C 
ATOM      7  C   UNL     1      -0.298   3.958  -1.292  0.00  0.00    -0.026 A 
ATOM      8  C   UNL     1      -1.102   2.983  -1.858  0.00  0.00    +0.033 A 
ATOM      9  C   UNL     1      -0.852   1.640  -1.575  0.00  0.00    +0.023 A 
ATOM     10  C   UNL     1       0.182   1.284  -0.735  0.00  0.00    +0.004 A 
ATOM     11  C   UNL     1       0.985   2.262  -0.176  0.00  0.00    -0.059 A 
ATOM     12  C   UNL     1       0.743   3.593  -0.454  0.00  0.00    +0.007 A 
ENDBRANCH   1  11
BRANCH   1  17
ATOM     13  C   UNL     1       2.696   0.614   2.737  0.00  0.00    -0.078 C 
ATOM     14  C   UNL     1       1.894   0.048   3.937  0.00  0.00    -0.020 C 
ATOM     15  C   UNL     1       0.611   0.909   3.932  0.00  0.00    -0.020 C 
ATOM     16  C   UNL     1       0.500   1.458   2.497  0.00  0.00    -0.078 C 
ATOM     17  N   UNL     1       1.635   0.902   1.759  0.00  0.00    +0.385 N 
ATOM     18  H   UNL     1       1.351   0.034   1.290  0.00  0.00    -0.081 HD
ENDBRANCH   1  17
BRANCH   1  19
ATOM     19  C   UNL     1       3.243   1.242  -0.089  0.00  0.00    +0.094 C 
BRANCH  19  20
ATOM     20  N   UNL     1       4.432   1.076   0.751  0.00  0.00    -0.309 N 
ATOM     21  C   UNL     1       5.502   0.405   0.280  0.00  0.00    +0.299 C 
ATOM     22  O   UNL     1       5.480  -0.062  -0.840  0.00  0.00    -0.265 OA
ATOM     23  H   UNL     1       4.449   1.449   1.646  0.00  0.00    +0.149 HD
BRANCH  21  24
ATOM     24  C   UNL     1       6.713   0.235   1.136  0.00  0.00    +0.303 C 
ATOM     25  O   UNL     1       6.735   0.702   2.256  0.00  0.00    -0.265 OA
ATOM     26  N   UNL     1       7.783  -0.436   0.665  0.00  0.00    -0.278 N 
ATOM     27  H   UNL     1       7.801  -0.733  -0.259  0.00  0.00    +0.155 HD
BRANCH  26  28
ATOM     28  C   UNL     1       8.865  -0.706   1.506  0.00  0.00    +0.035 A 
ATOM     29  C   UNL     1      10.155  -0.748   0.990  0.00  0.00    +0.023 A 
ATOM     30  C   UNL     1      11.226  -1.008   1.822  0.00  0.00    +0.003 A 
ATOM     31  C   UNL     1      11.019  -1.238   3.168  0.00  0.00    +0.015 A 
ATOM     32  C   UNL     1       9.732  -1.204   3.691  0.00  0.00    +0.009 A 
ATOM     33  C   UNL     1       8.653  -0.936   2.858  0.00  0.00    +0.038 A 
BRANCH  32  34
ATOM     34  S   UNL     1       9.469  -1.498   5.408  0.00  0.00    -0.129 S 
ATOM     35  C   UNL     1      11.134  -1.792   6.063  0.00  0.00    +0.090 C 
ENDBRANCH  32  34
ENDBRANCH  26  28
ENDBRANCH  21  24
ENDBRANCH  19  20
ENDBRANCH   1  19
TORSDOF 7
