REMARK  Name = ZINC44243885
REMARK  8 active torsions:
REMARK  status: ('A' for Active; 'I' for Inactive)
REMARK    1  A    between atoms: C_1  and  C_2
REMARK    2  A    between atoms: C_2  and  C_3
REMARK    3  A    between atoms: C_3  and  C_4
REMARK    4  A    between atoms: C_3  and  C_5
REMARK    5  A    between atoms: C_3  and  N_9
REMARK    6  A    between atoms: N_6  and  O_7
REMARK    7  A    between atoms: N_9  and  S_10
REMARK    8  A    between atoms: S_10  and  C_13
REMARK                            x       y       z     vdW  Elec       q    Type
REMARK                         _______ _______ _______ _____ _____    ______ ____
ROOT
ATOM      1  N   UNL     1       2.192  -0.120   1.696  0.00  0.00    -0.177 NA
ATOM      2  H   UNL     1       2.316   0.720   2.164  0.00  0.00    +0.149 HD
ENDROOT
BRANCH   1   3
ATOM      3  S   UNL     1       3.362  -0.672   0.662  0.00  0.00    +0.061 S 
ATOM      4  O   UNL     1       2.698  -1.057  -0.534  0.00  0.00    -0.153 OA
ATOM      5  O   UNL     1       4.405   0.292   0.677  0.00  0.00    -0.153 OA
BRANCH   3   6
ATOM      6  C   UNL     1       4.026  -2.144   1.366  0.00  0.00    +0.124 A 
ATOM      7  C   UNL     1       4.957  -2.074   2.391  0.00  0.00    +0.046 A 
ATOM      8  C   UNL     1       5.453  -3.259   2.914  0.00  0.00    +0.038 A 
ATOM      9  C   UNL     1       5.005  -4.463   2.400  0.00  0.00    +0.126 A 
ATOM     10  N   UNL     1       4.118  -4.490   1.425  0.00  0.00    -0.260 NA
ATOM     11  C   UNL     1       3.622  -3.384   0.907  0.00  0.00    +0.139 A 
ATOM     12 BR   UNL     1       6.726  -3.230   4.312  0.00  0.00    -0.049 Br
ENDBRANCH   3   6
ENDBRANCH   1   3
BRANCH   1  13
ATOM     13  C   UNL     1       0.970  -0.901   1.904  0.00  0.00    +0.095 C 
ATOM     14  C   UNL     1       1.335  -2.369   2.132  0.00  0.00    +0.037 C 
BRANCH  13  15
ATOM     15  C   UNL     1       0.235  -0.373   3.109  0.00  0.00    +0.153 C 
ATOM     16  N   UNL     1      -1.000  -0.007   3.004  0.00  0.00    -0.075 NA
ATOM     17  N   UNL     1       0.880  -0.280   4.322  0.00  0.00    -0.342 N 
ATOM     18  H   UNL     1       1.807  -0.554   4.401  0.00  0.00    +0.144 HD
ATOM     19  H   UNL     1       0.407   0.060   5.098  0.00  0.00    +0.144 HD
BRANCH  16  20
ATOM     20  O   UNL     1      -1.690   0.489   4.136  0.00  0.00    -0.408 OA
ATOM     21  H   UNL     1      -2.608   0.736   3.960  0.00  0.00    +0.328 HD
ENDBRANCH  16  20
ENDBRANCH  13  15
BRANCH  13  23
ATOM     22  C   UNL     1      -0.216   0.692   0.387  0.00  0.00    +0.006 C 
ATOM     23  C   UNL     1       0.074  -0.784   0.669  0.00  0.00    +0.028 C 
ENDBRANCH  13  23
ENDBRANCH   1  13
TORSDOF 6
