REMARK  Name = ZINC35781256
REMARK  8 active torsions:
REMARK  status: ('A' for Active; 'I' for Inactive)
REMARK    1  A    between atoms: C_1  and  C_2
REMARK    2  A    between atoms: C_2  and  C_4
REMARK    3  A    between atoms: C_2  and  O_29
REMARK    4  A    between atoms: C_4  and  N_5
REMARK    5  A    between atoms: N_5  and  C_6
REMARK    6  A    between atoms: N_5  and  C_12
REMARK    7  A    between atoms: C_6  and  C_7
REMARK    8  A    between atoms: C_12  and  C_13
REMARK                            x       y       z     vdW  Elec       q    Type
REMARK                         _______ _______ _______ _____ _____    ______ ____
ROOT
ATOM      1  C   UNL     1      -1.359  -1.940  -0.051  0.00  0.00    +0.094 A 
ATOM      2  N   UNL     1      -2.637  -2.341   0.170  0.00  0.00    -0.312 N 
ATOM      3  H   UNL     1      -3.098  -2.855  -0.510  0.00  0.00    +0.170 HD
ATOM      4  C   UNL     1      -3.277  -2.039   1.315  0.00  0.00    +0.260 A 
ATOM      5  O   UNL     1      -4.425  -2.406   1.500  0.00  0.00    -0.267 OA
ATOM      6  C   UNL     1      -2.586  -1.278   2.314  0.00  0.00    +0.075 A 
ATOM      7  C   UNL     1      -3.081  -0.840   3.623  0.00  0.00    -0.023 A 
ATOM      8  C   UNL     1      -2.228  -0.124   4.385  0.00  0.00    -0.004 A 
ATOM      9  S   UNL     1      -0.740  -0.005   3.427  0.00  0.00    -0.073 S 
ATOM     10  C   UNL     1      -1.270  -0.910   1.996  0.00  0.00    +0.116 A 
ATOM     11  N   UNL     1      -0.702  -1.250   0.843  0.00  0.00    -0.229 NA
ATOM     12  C   UNL     1      -2.477   0.460   5.741  0.00  0.00    +0.043 C 
ATOM     13  C   UNL     1      -3.083  -0.616   6.652  0.00  0.00    +0.005 C 
ATOM     14  C   UNL     1      -4.601  -0.564   6.515  0.00  0.00    +0.001 C 
ATOM     15  C   UNL     1      -4.983  -0.158   5.092  0.00  0.00    +0.005 C 
ATOM     16  C   UNL     1      -4.490  -1.194   4.089  0.00  0.00    +0.037 C 
ENDROOT
BRANCH   1  17
ATOM     17  C   UNL     1      -0.684  -2.301  -1.350  0.00  0.00    -0.003 C 
BRANCH  17  18
ATOM     18  N   UNL     1       0.726  -1.894  -1.299  0.00  0.00    +0.391 N 
ATOM     19  H   UNL     1       0.786  -0.919  -1.047  0.00  0.00    -0.080 HD
BRANCH  18  20
ATOM     20  C   UNL     1       1.343  -2.098  -2.617  0.00  0.00    -0.046 C 
BRANCH  20  22
ATOM     21  C   UNL     1       1.339  -1.368  -5.006  0.00  0.00    +0.035 C 
ATOM     22  C   UNL     1       0.699  -1.153  -3.633  0.00  0.00    +0.095 C 
BRANCH  22  23
ATOM     23  O   UNL     1       0.903   0.200  -3.220  0.00  0.00    -0.394 OA
ATOM     24  H   UNL     1       0.456   0.853  -3.776  0.00  0.00    +0.210 HD
ENDBRANCH  22  23
ENDBRANCH  20  22
ENDBRANCH  18  20
BRANCH  18  25
ATOM     25  C   UNL     1       1.433  -2.702  -0.297  0.00  0.00    -0.002 C 
BRANCH  25  26
ATOM     26  C   UNL     1       2.848  -2.203  -0.157  0.00  0.00    +0.089 A 
ATOM     27  C   UNL     1       3.267  -1.257   0.703  0.00  0.00    +0.042 A 
ATOM     28  C   UNL     1       4.657  -1.103   0.496  0.00  0.00    +0.041 A 
ATOM     29  C   UNL     1       5.005  -1.964  -0.477  0.00  0.00    +0.195 A 
ATOM     30  O   UNL     1       3.906  -2.632  -0.864  0.00  0.00    -0.470 OA
ENDBRANCH  25  26
ENDBRANCH  18  25
ENDBRANCH  17  18
ENDBRANCH   1  17
TORSDOF 7
