REMARK  Name = ZINC27239758
REMARK  12 active torsions:
REMARK  status: ('A' for Active; 'I' for Inactive)
REMARK    1  A    between atoms: C_1  and  C_2
REMARK    2  A    between atoms: C_2  and  C_3
REMARK    3  A    between atoms: C_6  and  C_9
REMARK    4  A    between atoms: C_9  and  C_10
REMARK    5  A    between atoms: C_9  and  C_17
REMARK    6  A    between atoms: C_9  and  O_36
REMARK    7  A    between atoms: C_10  and  C_11
REMARK    8  A    between atoms: C_17  and  C_19
REMARK    9  A    between atoms: C_17  and  O_27
REMARK   10  A    between atoms: C_19  and  N_20
REMARK   11  A    between atoms: O_27  and  C_28
REMARK   12  A    between atoms: C_33  and  C_34
REMARK                            x       y       z     vdW  Elec       q    Type
REMARK                         _______ _______ _______ _____ _____    ______ ____
ROOT
ATOM      1  C   UNL     1       2.642  -1.415  -1.588  0.00  0.00    +0.193 C 
ENDROOT
BRANCH   1   2
ATOM      2  C   UNL     1       4.150  -1.650  -1.479  0.00  0.00    +0.130 C 
BRANCH   2   6
ATOM      3  C   UNL     1       5.050  -5.676  -2.586  0.00  0.00    -0.048 A 
ATOM      4  C   UNL     1       5.978  -4.676  -2.803  0.00  0.00    +0.004 A 
ATOM      5  C   UNL     1       5.687  -3.373  -2.445  0.00  0.00    +0.007 A 
ATOM      6  C   UNL     1       4.467  -3.070  -1.869  0.00  0.00    -0.012 A 
ATOM      7  C   UNL     1       3.541  -4.071  -1.647  0.00  0.00    +0.007 A 
ATOM      8  C   UNL     1       3.830  -5.374  -2.009  0.00  0.00    +0.004 A 
BRANCH   3  10
ATOM      9  C   UNL     1       6.034  -7.813  -1.801  0.00  0.00    +0.009 C 
ATOM     10  C   UNL     1       5.367  -7.097  -2.977  0.00  0.00    +0.032 C 
ENDBRANCH   3  10
ENDBRANCH   2   6
BRANCH   2  11
ATOM     11  O   UNL     1       4.836  -0.751  -2.353  0.00  0.00    -0.380 OA
ATOM     12  H   UNL     1       4.726   0.336  -2.222  0.00  0.00    +0.211 HD
ENDBRANCH   2  11
BRANCH   2  13
ATOM     13  C   UNL     1       4.602  -1.404  -0.038  0.00  0.00    +0.078 C 
BRANCH  13  14
ATOM     14  C   UNL     1       4.481   0.064   0.283  0.00  0.00    -0.044 A 
ATOM     15  C   UNL     1       3.322   0.553   0.856  0.00  0.00    +0.004 A 
ATOM     16  C   UNL     1       3.212   1.899   1.150  0.00  0.00    +0.000 A 
ATOM     17  C   UNL     1       4.260   2.756   0.870  0.00  0.00    +0.000 A 
ATOM     18  C   UNL     1       5.418   2.267   0.297  0.00  0.00    +0.000 A 
ATOM     19  C   UNL     1       5.529   0.921   0.003  0.00  0.00    +0.004 A 
ENDBRANCH  13  14
ENDBRANCH   2  13
ENDBRANCH   1   2
BRANCH   1  20
ATOM     20  C   UNL     1       2.155  -1.864  -2.967  0.00  0.00    -0.030 C 
BRANCH  20  21
ATOM     21  N   UNL     1       0.687  -1.918  -2.974  0.00  0.00    +0.382 N 
ATOM     22  C   UNL     1       0.185  -2.829  -1.921  0.00  0.00    -0.079 C 
ATOM     23  C   UNL     1      -1.283  -3.129  -2.059  0.00  0.00    -0.019 C 
ATOM     24  C   UNL     1      -1.442  -4.432  -2.871  0.00  0.00    -0.002 C 
ATOM     25  C   UNL     1      -1.269  -4.213  -4.303  0.00  0.00    -0.002 C 
ATOM     26  C   UNL     1       0.136  -3.674  -4.646  0.00  0.00    -0.019 C 
ATOM     27  C   UNL     1       0.173  -2.203  -4.332  0.00  0.00    -0.079 C 
ATOM     28  H   UNL     1       0.293  -0.924  -2.714  0.00  0.00    -0.082 HD
ENDBRANCH  20  21
ENDBRANCH   1  20
BRANCH   1  29
ATOM     29  O   UNL     1       2.362  -0.025  -1.412  0.00  0.00    -0.487 OA
BRANCH  29  30
ATOM     30  C   UNL     1       2.737   0.811  -2.416  0.00  0.00    +0.124 A 
ATOM     31  C   UNL     1       3.494   0.331  -3.474  0.00  0.00    +0.047 A 
ATOM     32  C   UNL     1       3.871   1.182  -4.495  0.00  0.00    +0.023 A 
ATOM     33  C   UNL     1       3.503   2.515  -4.457  0.00  0.00    +0.041 A 
ATOM     34  C   UNL     1       2.753   2.997  -3.400  0.00  0.00    +0.027 A 
ATOM     35  C   UNL     1       2.370   2.148  -2.379  0.00  0.00    -0.007 A 
ATOM     36  C   UNL     1       1.552   2.674  -1.227  0.00  0.00    +0.047 C 
ATOM     37 CL   UNL     1       3.984   3.584  -5.738  0.00  0.00    -0.084 Cl
ENDBRANCH  29  30
ENDBRANCH   1  29
TORSDOF 10
