REMARK  Name = ZINC05582970
REMARK  5 active torsions:
REMARK  status: ('A' for Active; 'I' for Inactive)
REMARK    1  A    between atoms: C_9  and  C_11
REMARK    2  A    between atoms: C_11  and  C_25
REMARK    3  A    between atoms: C_12  and  N_13
REMARK    4  A    between atoms: N_13  and  C_14
REMARK    5  A    between atoms: C_15  and  C_23
REMARK                            x       y       z     vdW  Elec       q    Type
REMARK                         _______ _______ _______ _____ _____    ______ ____
ROOT
ATOM      1  C   UNL     1       5.922   0.756  -0.067  0.00  0.00    +0.127 C 
ATOM      2  C   UNL     1       6.593   1.942  -0.156  0.00  0.00    +0.096 C 
ENDROOT
BRANCH   1  11
ATOM      3  C   UNL     1      -0.001  -0.003  -0.213  0.00  0.00    +0.024 A 
ATOM      4  C   UNL     1       1.194  -0.693  -0.178  0.00  0.00    +0.050 A 
ATOM      5  C   UNL     1       2.393   0.002  -0.153  0.00  0.00    +0.156 A 
ATOM      6  C   UNL     1       2.386   1.407  -0.163  0.00  0.00    +0.111 A 
ATOM      7  C   UNL     1       1.170   2.092  -0.199  0.00  0.00    +0.051 A 
ATOM      8  C   UNL     1      -0.013   1.384  -0.223  0.00  0.00    +0.043 A 
ATOM      9 CL   UNL     1      -1.526   2.234  -0.267  0.00  0.00    -0.083 Cl
ATOM     10  N   UNL     1       3.685   1.804  -0.132  0.00  0.00    -0.208 NA
ATOM     11  C   UNL     1       4.450   0.738  -0.105  0.00  0.00    +0.240 A 
ATOM     12  O   UNL     1       3.691  -0.374  -0.117  0.00  0.00    -0.435 OA
ENDBRANCH   1  11
BRANCH   2  13
ATOM     13  N   UNL     1       5.903   3.118  -0.143  0.00  0.00    -0.313 N 
ATOM     14  H   UNL     1       4.946   3.117   0.013  0.00  0.00    +0.152 HD
BRANCH  13  15
ATOM     15  C   UNL     1       6.570   4.314  -0.351  0.00  0.00    +0.087 A 
ATOM     16  C   UNL     1       6.058   5.606  -0.371  0.00  0.00    +0.084 A 
ATOM     17  C   UNL     1       6.983   6.699  -0.614  0.00  0.00    -0.018 A 
ATOM     18  C   UNL     1       8.277   6.356  -0.802  0.00  0.00    -0.004 A 
ATOM     19  S   UNL     1       8.306   4.590  -0.656  0.00  0.00    -0.077 S 
ATOM     20  C   UNL     1       9.429   7.275  -1.070  0.00  0.00    +0.043 C 
ATOM     21  C   UNL     1       8.871   8.648  -1.470  0.00  0.00    +0.005 C 
ATOM     22  C   UNL     1       7.784   9.047  -0.469  0.00  0.00    +0.005 C 
ATOM     23  C   UNL     1       6.551   8.162  -0.660  0.00  0.00    +0.037 C 
BRANCH  16  24
ATOM     24  C   UNL     1       4.663   5.852  -0.158  0.00  0.00    +0.102 C 
ATOM     25  N   UNL     1       3.557   6.046   0.011  0.00  0.00    -0.191 NA
ENDBRANCH  16  24
ENDBRANCH  13  15
ENDBRANCH   2  13
BRANCH   1  26
ATOM     26  C   UNL     1       6.650  -0.470   0.064  0.00  0.00    +0.106 C 
ATOM     27  N   UNL     1       7.227  -1.443   0.167  0.00  0.00    -0.191 NA
ENDBRANCH   1  26
TORSDOF 5
