REMARK  Name = ZINC39595804
REMARK  8 active torsions:
REMARK  status: ('A' for Active; 'I' for Inactive)
REMARK    1  A    between atoms: C_1  and  C_2
REMARK    2  A    between atoms: C_2  and  C_4
REMARK    3  A    between atoms: C_2  and  O_32
REMARK    4  A    between atoms: C_4  and  N_5
REMARK    5  A    between atoms: C_6  and  C_8
REMARK    6  A    between atoms: C_19  and  C_21
REMARK    7  A    between atoms: C_25  and  C_27
REMARK    8  A    between atoms: O_32  and  C_33
REMARK                            x       y       z     vdW  Elec       q    Type
REMARK                         _______ _______ _______ _____ _____    ______ ____
ROOT
ATOM      1  C   UNL     1       1.380  -2.150  -4.041  0.00  0.00    +0.100 C 
ATOM      2  C   UNL     1       2.272  -2.854  -2.995  0.00  0.00    +0.121 C 
ATOM      3  N   UNL     1       3.098  -3.800  -3.783  0.00  0.00    -0.296 N 
ATOM      4  C   UNL     1       3.435  -3.054  -5.019  0.00  0.00    +0.115 C 
ATOM      5  C   UNL     1       2.146  -2.282  -5.368  0.00  0.00    -0.004 C 
ATOM      6  C   UNL     1       2.491  -0.902  -5.919  0.00  0.00    -0.010 C 
ATOM      7  C   UNL     1       3.201  -1.058  -7.267  0.00  0.00    -0.082 C 
ATOM      8  N   UNL     1       2.327  -1.777  -8.202  0.00  0.00    +0.379 N 
ATOM      9  C   UNL     1       2.076  -3.136  -7.709  0.00  0.00    -0.082 C 
ATOM     10  C   UNL     1       1.318  -3.068  -6.380  0.00  0.00    -0.010 C 
ATOM     11  C   UNL     1       3.460  -5.054  -3.451  0.00  0.00    +0.247 C 
ATOM     12  O   UNL     1       3.013  -5.570  -2.445  0.00  0.00    -0.270 OA
ATOM     13  H   UNL     1       1.451  -1.284  -8.287  0.00  0.00    -0.086 HD
ATOM     14  H   UNL     1       2.772  -1.825  -9.107  0.00  0.00    -0.086 HD
ENDROOT
BRANCH  11  15
ATOM     15  C   UNL     1       4.401  -5.803  -4.309  0.00  0.00    +0.038 A 
ATOM     16  C   UNL     1       5.253  -5.119  -5.179  0.00  0.00    +0.016 A 
ATOM     17  C   UNL     1       6.128  -5.822  -5.977  0.00  0.00    +0.039 A 
ATOM     18  C   UNL     1       6.164  -7.208  -5.918  0.00  0.00    +0.135 A 
ATOM     19  C   UNL     1       5.321  -7.892  -5.057  0.00  0.00    +0.091 A 
ATOM     20  C   UNL     1       4.445  -7.198  -4.250  0.00  0.00    +0.028 A 
ATOM     21  F   UNL     1       7.024  -7.893  -6.704  0.00  0.00    -0.205 F 
BRANCH  19  22
ATOM     22  C   UNL     1       5.365  -9.397  -4.999  0.00  0.00    +0.420 C 
ATOM     23  F   UNL     1       4.430  -9.855  -4.064  0.00  0.00    -0.166 F 
ATOM     24  F   UNL     1       5.060  -9.922  -6.260  0.00  0.00    -0.166 F 
ATOM     25  F   UNL     1       6.646  -9.812  -4.619  0.00  0.00    -0.166 F 
ENDBRANCH  19  22
ENDBRANCH  11  15
BRANCH   1  27
ATOM     26  N   UNL     1       0.072  -0.050  -4.047  0.00  0.00    -0.312 N 
ATOM     27  C   UNL     1       1.197  -0.697  -3.683  0.00  0.00    +0.218 C 
ATOM     28  O   UNL     1       2.063  -0.111  -3.069  0.00  0.00    -0.275 OA
ATOM     29  H   UNL     1      -0.620  -0.519  -4.538  0.00  0.00    +0.149 HD
BRANCH  26  30
ATOM     30  C   UNL     1      -0.105   1.362  -3.699  0.00  0.00    +0.148 C 
BRANCH  30  32
ATOM     31  C   UNL     1      -1.641   3.326  -3.861  0.00  0.00    +0.053 C 
ATOM     32  C   UNL     1      -1.456   1.851  -4.224  0.00  0.00    +0.187 C 
BRANCH  32  33
ATOM     33  O   UNL     1      -1.497   1.702  -5.644  0.00  0.00    -0.488 OA
BRANCH  33  34
ATOM     34  C   UNL     1      -2.724   1.580  -6.217  0.00  0.00    +0.121 A 
ATOM     35  C   UNL     1      -2.834   1.311  -7.573  0.00  0.00    +0.048 A 
ATOM     36  C   UNL     1      -4.081   1.187  -8.154  0.00  0.00    +0.042 A 
ATOM     37  C   UNL     1      -5.222   1.332  -7.383  0.00  0.00    +0.124 A 
ATOM     38  C   UNL     1      -5.114   1.601  -6.029  0.00  0.00    +0.042 A 
ATOM     39  C   UNL     1      -3.868   1.719  -5.444  0.00  0.00    +0.048 A 
ATOM     40  F   UNL     1      -6.441   1.212  -7.952  0.00  0.00    -0.205 F 
ENDBRANCH  33  34
ENDBRANCH  32  33
ENDBRANCH  30  32
ENDBRANCH  26  30
ENDBRANCH   1  27
TORSDOF 7
