REMARK  Name = ZINC04367064
REMARK  7 active torsions:
REMARK  status: ('A' for Active; 'I' for Inactive)
REMARK    1  A    between atoms: C_1  and  C_2
REMARK    2  A    between atoms: C_2  and  C_15
REMARK    3  A    between atoms: N_3  and  N_4
REMARK    4  A    between atoms: N_4  and  S_5
REMARK    5  A    between atoms: S_5  and  C_8
REMARK    6  A    between atoms: C_11  and  N_14
REMARK    7  A    between atoms: C_16  and  C_17
REMARK                            x       y       z     vdW  Elec       q    Type
REMARK                         _______ _______ _______ _____ _____    ______ ____
ROOT
ATOM      1  N   UNL     1       1.160   4.349   1.589  0.00  0.00    -0.136 N 
ATOM      2  H   UNL     1       0.429   4.883   1.936  0.00  0.00    +0.197 HD
ENDROOT
BRANCH   1   5
ATOM      3  C   UNL     1       3.464   4.126   4.516  0.00  0.00    +0.067 C 
ATOM      4  C   UNL     1       2.268   4.429   3.650  0.00  0.00    +0.058 C 
ATOM      5  N   UNL     1       2.217   3.977   2.429  0.00  0.00    -0.171 NA
BRANCH   4   6
ATOM      6  C   UNL     1       1.199   5.205   4.164  0.00  0.00    +0.025 C 
ATOM      7  C   UNL     1       1.299   5.764   5.387  0.00  0.00    +0.010 C 
BRANCH   7   8
ATOM      8  C   UNL     1       0.237   6.660   5.876  0.00  0.00    -0.025 A 
ATOM      9  C   UNL     1      -0.873   6.938   5.072  0.00  0.00    +0.008 A 
ATOM     10  C   UNL     1      -1.865   7.774   5.539  0.00  0.00    +0.001 A 
ATOM     11  C   UNL     1      -1.759   8.346   6.795  0.00  0.00    +0.000 A 
ATOM     12  C   UNL     1      -0.661   8.080   7.594  0.00  0.00    +0.001 A 
ATOM     13  C   UNL     1       0.337   7.242   7.143  0.00  0.00    +0.008 A 
ENDBRANCH   7   8
ENDBRANCH   4   6
ENDBRANCH   1   5
BRANCH   1  14
ATOM     14  S   UNL     1       1.159   3.877   0.001  0.00  0.00    +0.086 S 
ATOM     15  O   UNL     1       2.399   4.301  -0.549  0.00  0.00    -0.149 OA
ATOM     16  O   UNL     1      -0.092   4.277  -0.541  0.00  0.00    -0.149 OA
BRANCH  14  17
ATOM     17  C   UNL     1       1.176   2.115  -0.018  0.00  0.00    +0.110 A 
ATOM     18  C   UNL     1      -0.016   1.414  -0.021  0.00  0.00    +0.030 A 
ATOM     19  C   UNL     1      -0.007   0.033  -0.037  0.00  0.00    +0.024 A 
ATOM     20  C   UNL     1       1.202  -0.652  -0.049  0.00  0.00    +0.025 A 
ATOM     21  C   UNL     1       2.397   0.056  -0.046  0.00  0.00    +0.024 A 
ATOM     22  C   UNL     1       2.381   1.437  -0.030  0.00  0.00    +0.030 A 
BRANCH  20  23
ATOM     23  N   UNL     1       1.215  -2.048  -0.064  0.00  0.00    -0.358 N 
ATOM     24  H   UNL     1       0.379  -2.541  -0.066  0.00  0.00    +0.142 HD
ATOM     25  H   UNL     1       2.059  -2.525  -0.073  0.00  0.00    +0.142 HD
ENDBRANCH  20  23
ENDBRANCH  14  17
ENDBRANCH   1  14
TORSDOF 6
