REMARK  Name = ZINC20377457
REMARK  8 active torsions:
REMARK  status: ('A' for Active; 'I' for Inactive)
REMARK    1  A    between atoms: C_1  and  C_2
REMARK    2  A    between atoms: C_7  and  N_12
REMARK    3  A    between atoms: C_9  and  C_11
REMARK    4  A    between atoms: C_13  and  C_15
REMARK    5  A    between atoms: C_18  and  C_21
REMARK    6  A    between atoms: C_21  and  N_22
REMARK    7  A    between atoms: N_22  and  S_23
REMARK    8  A    between atoms: S_23  and  C_26
REMARK                            x       y       z     vdW  Elec       q    Type
REMARK                         _______ _______ _______ _____ _____    ______ ____
ROOT
ATOM      1  C   UNL     1      -4.179   0.846   2.459  0.00  0.00    +0.075 C 
ATOM      2  C   UNL     1      -5.075   1.783   1.645  0.00  0.00    +0.013 C 
ATOM      3  C   UNL     1      -5.043   3.183   2.262  0.00  0.00    +0.005 C 
ATOM      4  C   UNL     1      -5.551   3.116   3.703  0.00  0.00    +0.005 C 
ATOM      5  C   UNL     1      -4.656   2.180   4.517  0.00  0.00    +0.005 C 
ATOM      6  C   UNL     1      -4.688   0.780   3.900  0.00  0.00    +0.013 C 
ENDROOT
BRANCH   1   8
ATOM      7  N   UNL     1      -2.109   1.512   1.280  0.00  0.00    -0.312 N 
ATOM      8  C   UNL     1      -2.765   1.368   2.448  0.00  0.00    +0.216 C 
ATOM      9  O   UNL     1      -2.218   1.658   3.491  0.00  0.00    -0.276 OA
ATOM     10  H   UNL     1      -2.606   1.249   0.334  0.00  0.00    +0.149 HD
BRANCH   7  16
ATOM     11  C   UNL     1       2.133   1.562  -1.259  0.00  0.00    +0.008 C 
ATOM     12  C   UNL     1       1.417   2.055  -0.000  0.00  0.00    -0.009 C 
ATOM     13  C   UNL     1       1.396   3.585   0.008  0.00  0.00    +0.003 C 
ATOM     14  C   UNL     1       0.680   4.079   1.267  0.00  0.00    +0.002 C 
ATOM     15  C   UNL     1      -0.756   3.549   1.278  0.00  0.00    +0.022 C 
ATOM     16  C   UNL     1      -0.735   2.019   1.269  0.00  0.00    +0.076 C 
ATOM     17  C   UNL     1      -0.019   1.526   0.010  0.00  0.00    +0.009 C 
ATOM     18  C   UNL     1       0.002  -0.004   0.002  0.00  0.00    +0.009 C 
ENDBRANCH   7  16
ENDBRANCH   1   8
BRANCH   4  19
ATOM     19  C   UNL     1      -5.519   4.516   4.320  0.00  0.00    +0.109 C 
BRANCH  19  20
ATOM     20  N   UNL     1      -6.467   5.382   3.615  0.00  0.00    -0.190 NA
ATOM     21  H   UNL     1      -6.749   5.157   2.575  0.00  0.00    +0.148 HD
BRANCH  20  22
ATOM     22  S   UNL     1      -6.922   6.828   4.282  0.00  0.00    +0.060 S 
ATOM     23  O   UNL     1      -7.814   7.438   3.359  0.00  0.00    -0.153 OA
ATOM     24  O   UNL     1      -7.287   6.557   5.628  0.00  0.00    -0.153 OA
BRANCH  22  25
ATOM     25  C   UNL     1      -5.487   7.848   4.345  0.00  0.00    +0.131 A 
ATOM     26  C   UNL     1      -5.425   8.987   3.602  0.00  0.00    +0.031 A 
ATOM     27  C   UNL     1      -4.300   9.807   3.636  0.00  0.00    +0.003 A 
ATOM     28  C   UNL     1      -3.229   9.492   4.417  0.00  0.00    +0.010 A 
ATOM     29  C   UNL     1      -3.259   8.326   5.197  0.00  0.00    +0.002 A 
ATOM     30  C   UNL     1      -4.404   7.492   5.167  0.00  0.00    +0.097 A 
ATOM     31  N   UNL     1      -4.439   6.383   5.913  0.00  0.00    -0.253 NA
ATOM     32  C   UNL     1      -3.433   6.047   6.683  0.00  0.00    +0.111 A 
ATOM     33  C   UNL     1      -2.279   6.825   6.762  0.00  0.00    +0.020 A 
ATOM     34  C   UNL     1      -2.173   7.965   6.017  0.00  0.00    +0.011 A 
ENDBRANCH  22  25
ENDBRANCH  20  22
ENDBRANCH  19  20
ENDBRANCH   4  19
TORSDOF 6
