REMARK  Name = ZINC20360584
REMARK  7 active torsions:
REMARK  status: ('A' for Active; 'I' for Inactive)
REMARK    1  A    between atoms: C_1  and  C_2
REMARK    2  A    between atoms: C_2  and  C_4
REMARK    3  A    between atoms: C_2  and  N_11
REMARK    4  A    between atoms: N_9  and  C_10
REMARK    5  A    between atoms: N_11  and  C_12
REMARK    6  A    between atoms: C_17  and  S_18
REMARK    7  A    between atoms: S_18  and  C_19
REMARK                            x       y       z     vdW  Elec       q    Type
REMARK                         _______ _______ _______ _____ _____    ______ ____
ROOT
ATOM      1  N   UNL     1       1.158   3.488   0.009  0.00  0.00    -0.332 N 
ATOM      2  H   UNL     1       2.104   4.050   0.003  0.00  0.00    +0.147 HD
ENDROOT
BRANCH   1   3
ATOM      3  C   UNL     1       1.174   2.088   0.002  0.00  0.00    +0.041 A 
ATOM      4  C   UNL     1      -0.017   1.379   0.010  0.00  0.00    +0.024 A 
ATOM      5  C   UNL     1       0.002  -0.004   0.002  0.00  0.00    +0.002 A 
ATOM      6  C   UNL     1       1.206  -0.683  -0.013  0.00  0.00    +0.001 A 
ATOM      7  C   UNL     1       2.399   0.016  -0.021  0.00  0.00    +0.017 A 
ATOM      8  C   UNL     1       2.390   1.403  -0.013  0.00  0.00    +0.034 A 
BRANCH   8   9
ATOM      9  S   UNL     1       3.908   2.297  -0.023  0.00  0.00    -0.054 S 
BRANCH   9  10
ATOM     10  C   UNL     1       5.179   1.003  -0.043  0.00  0.00    +0.404 C 
ATOM     11  F   UNL     1       5.047   0.202   1.096  0.00  0.00    -0.197 F 
ATOM     12  F   UNL     1       5.024   0.214  -1.188  0.00  0.00    -0.197 F 
ENDBRANCH   9  10
ENDBRANCH   8   9
ENDBRANCH   1   3
BRANCH   1  14
ATOM     13  C   UNL     1      -0.612   4.338   1.467  0.00  0.00    +0.038 C 
ATOM     14  C   UNL     1      -0.120   4.205   0.025  0.00  0.00    +0.154 C 
BRANCH  14  15
ATOM     15  C   UNL     1       0.067   5.577  -0.571  0.00  0.00    +0.240 C 
ATOM     16  O   UNL     1       1.159   5.922  -0.969  0.00  0.00    -0.273 OA
ATOM     17  N   UNL     1      -0.980   6.421  -0.661  0.00  0.00    -0.239 N 
ATOM     18  C   UNL     1      -0.813   7.648  -1.193  0.00  0.00    +0.306 C 
ATOM     19  O   UNL     1       0.282   7.993  -1.592  0.00  0.00    -0.252 OA
ATOM     20  N   UNL     1      -1.860   8.492  -1.283  0.00  0.00    -0.302 N 
ATOM     21  C   UNL     1      -1.678   9.825  -1.862  0.00  0.00    +0.129 C 
ATOM     22  H   UNL     1      -1.971   6.108  -0.299  0.00  0.00    +0.159 HD
ATOM     23  H   UNL     1      -2.850   8.179  -0.922  0.00  0.00    +0.150 HD
ENDBRANCH  14  15
ENDBRANCH   1  14
TORSDOF 5
