REMARK  Name = ZINC01222622
REMARK  8 active torsions:
REMARK  status: ('A' for Active; 'I' for Inactive)
REMARK    1  A    between atoms: C_1  and  C_2
REMARK    2  A    between atoms: C_4  and  C_37
REMARK    3  A    between atoms: C_7  and  C_14
REMARK    4  A    between atoms: C_14  and  N_15
REMARK    5  A    between atoms: N_15  and  C_16
REMARK    6  A    between atoms: N_15  and  S_24
REMARK    7  A    between atoms: C_16  and  C_17
REMARK    8  A    between atoms: S_24  and  C_27
REMARK                            x       y       z     vdW  Elec       q    Type
REMARK                         _______ _______ _______ _____ _____    ______ ____
ROOT
ATOM      1  N   UNL     1       4.184  -1.186  -1.578  0.00  0.00    -0.168 NA
ENDROOT
BRANCH   1   2
ATOM      2  S   UNL     1       3.584  -0.778  -0.090  0.00  0.00    +0.062 S 
ATOM      3  O   UNL     1       4.619  -0.077   0.587  0.00  0.00    -0.153 OA
ATOM      4  O   UNL     1       2.985  -1.951   0.442  0.00  0.00    -0.153 OA
BRANCH   2   5
ATOM      5  C   UNL     1       2.281   0.379  -0.353  0.00  0.00    +0.109 A 
ATOM      6  C   UNL     1       0.970  -0.057  -0.392  0.00  0.00    +0.032 A 
ATOM      7  C   UNL     1      -0.055   0.847  -0.598  0.00  0.00    +0.051 A 
ATOM      8  C   UNL     1       0.230   2.194  -0.768  0.00  0.00    +0.162 A 
ATOM      9  C   UNL     1       1.548   2.632  -0.726  0.00  0.00    +0.164 A 
ATOM     10  C   UNL     1       2.572   1.720  -0.519  0.00  0.00    +0.078 A 
ATOM     11  O   UNL     1       1.849   3.950  -0.881  0.00  0.00    -0.485 OA
ATOM     12  C   UNL     1       0.834   4.779  -1.458  0.00  0.00    +0.270 C 
ATOM     13  C   UNL     1      -0.498   4.458  -0.767  0.00  0.00    +0.270 C 
ATOM     14  O   UNL     1      -0.789   3.071  -0.979  0.00  0.00    -0.485 OA
ENDBRANCH   2   5
ENDBRANCH   1   2
BRANCH   1  15
ATOM     15  C   UNL     1       3.709  -2.396  -2.253  0.00  0.00    +0.150 C 
BRANCH  15  22
ATOM     16  C   UNL     1       0.572  -0.492  -9.335  0.00  0.00    +0.044 C 
ATOM     17  C   UNL     1       1.365  -0.880  -8.113  0.00  0.00    -0.048 A 
ATOM     18  C   UNL     1       2.715  -1.183  -8.238  0.00  0.00    +0.007 A 
ATOM     19  C   UNL     1       3.451  -1.538  -7.144  0.00  0.00    -0.041 A 
ATOM     20  C   UNL     1       2.841  -1.597  -5.886  0.00  0.00    +0.002 A 
ATOM     21  C   UNL     1       3.602  -1.968  -4.692  0.00  0.00    +0.020 A 
ATOM     22  C   UNL     1       2.957  -2.013  -3.501  0.00  0.00    +0.033 A 
ATOM     23  C   UNL     1       1.583  -1.697  -3.424  0.00  0.00    +0.254 A 
ATOM     24  O   UNL     1       1.023  -1.739  -2.342  0.00  0.00    -0.268 OA
ATOM     25  N   UNL     1       0.877  -1.350  -4.515  0.00  0.00    -0.322 N 
ATOM     26  H   UNL     1      -0.094  -1.132  -4.424  0.00  0.00    +0.169 HD
ATOM     27  C   UNL     1       1.474  -1.290  -5.756  0.00  0.00    +0.050 A 
ATOM     28  C   UNL     1       0.744  -0.931  -6.885  0.00  0.00    +0.029 A 
ATOM     29  C   UNL     1       4.915  -1.864  -7.291  0.00  0.00    +0.044 C 
ENDBRANCH  15  22
ENDBRANCH   1  15
BRANCH   1  30
ATOM     30  C   UNL     1       5.191  -0.337  -2.220  0.00  0.00    +0.145 C 
BRANCH  30  31
ATOM     31  C   UNL     1       6.567  -0.871  -1.917  0.00  0.00    -0.031 A 
ATOM     32  C   UNL     1       7.249  -0.428  -0.800  0.00  0.00    +0.008 A 
ATOM     33  C   UNL     1       8.509  -0.922  -0.518  0.00  0.00    +0.038 A 
ATOM     34  C   UNL     1       9.092  -1.852  -1.362  0.00  0.00    +0.123 A 
ATOM     35  C   UNL     1       8.410  -2.291  -2.484  0.00  0.00    +0.038 A 
ATOM     36  C   UNL     1       7.148  -1.800  -2.760  0.00  0.00    +0.008 A 
ATOM     37  F   UNL     1      10.326  -2.331  -1.091  0.00  0.00    -0.205 F 
ENDBRANCH  30  31
ENDBRANCH   1  30
TORSDOF 6
