REMARK  Name = ZINC64941165
REMARK  5 active torsions:
REMARK  status: ('A' for Active; 'I' for Inactive)
REMARK    1  A    between atoms: C_6  and  N_7
REMARK    2  A    between atoms: C_8  and  C_10
REMARK    3  A    between atoms: C_13  and  C_15
REMARK    4  A    between atoms: N_20  and  S_21
REMARK    5  A    between atoms: S_21  and  C_24
REMARK                            x       y       z     vdW  Elec       q    Type
REMARK                         _______ _______ _______ _____ _____    ______ ____
ROOT
ATOM      1  C   UNL     1      -3.630  -0.826   0.247  0.00  0.00    +0.187 A 
ATOM      2  N   UNL     1      -3.835  -2.140   0.267  0.00  0.00    -0.136 NA
ATOM      3  N   UNL     1      -5.019  -2.568   0.380  0.00  0.00    -0.144 NA
ATOM      4  C   UNL     1      -6.051  -1.754   0.477  0.00  0.00    +0.121 A 
ATOM      5  S   UNL     1      -5.311  -0.241   0.413  0.00  0.00    -0.044 S 
ENDROOT
BRANCH   4   6
ATOM      6  C   UNL     1      -7.513  -2.090   0.616  0.00  0.00    +0.137 C 
ATOM      7  C   UNL     1      -8.061  -2.615  -0.727  0.00  0.00    +0.029 C 
ATOM      8  C   UNL     1      -9.031  -3.745  -0.289  0.00  0.00    +0.019 C 
ATOM      9  C   UNL     1      -8.293  -4.329   0.941  0.00  0.00    +0.110 C 
ATOM     10  N   UNL     1      -7.689  -3.158   1.611  0.00  0.00    -0.167 NA
BRANCH  10  11
ATOM     11  S   UNL     1      -7.277  -3.063   3.212  0.00  0.00    +0.061 S 
ATOM     12  O   UNL     1      -7.078  -4.397   3.660  0.00  0.00    -0.153 OA
ATOM     13  O   UNL     1      -6.268  -2.068   3.313  0.00  0.00    -0.153 OA
BRANCH  11  14
ATOM     14  C   UNL     1      -8.682  -2.446   4.076  0.00  0.00    +0.106 A 
ATOM     15  C   UNL     1      -8.849  -1.083   4.245  0.00  0.00    +0.029 A 
ATOM     16  C   UNL     1      -9.951  -0.608   4.926  0.00  0.00    +0.006 A 
ATOM     17  C   UNL     1     -10.895  -1.486   5.442  0.00  0.00    -0.044 A 
ATOM     18  C   UNL     1     -10.732  -2.842   5.269  0.00  0.00    -0.042 A 
ATOM     19  C   UNL     1      -9.623  -3.319   4.582  0.00  0.00    +0.032 A 
ATOM     20  C   UNL     1     -11.723  -3.850   5.787  0.00  0.00    +0.035 C 
ATOM     21  C   UNL     1     -12.621  -3.223   6.852  0.00  0.00    +0.005 C 
ATOM     22  C   UNL     1     -13.200  -1.919   6.290  0.00  0.00    +0.005 C 
ATOM     23  C   UNL     1     -12.069  -0.898   6.180  0.00  0.00    +0.035 C 
ENDBRANCH  11  14
ENDBRANCH  10  11
ENDBRANCH   4   6
BRANCH   1  25
ATOM     24  N   UNL     1      -1.201  -0.721   0.010  0.00  0.00    -0.280 N 
ATOM     25  C   UNL     1      -2.373  -0.067   0.127  0.00  0.00    +0.275 C 
ATOM     26  O   UNL     1      -2.394   1.149   0.134  0.00  0.00    -0.268 OA
ATOM     27  H   UNL     1      -1.189  -1.688  -0.063  0.00  0.00    +0.155 HD
BRANCH  24  33
ATOM     28  C   UNL     1       1.139  -0.541   0.582  0.00  0.00    +0.027 A 
ATOM     29  C   UNL     1       2.326   0.166   0.566  0.00  0.00    +0.051 A 
ATOM     30  C   UNL     1       2.386   1.412  -0.036  0.00  0.00    +0.166 A 
ATOM     31  C   UNL     1       1.246   1.954  -0.627  0.00  0.00    +0.168 A 
ATOM     32  C   UNL     1       0.057   1.245  -0.611  0.00  0.00    +0.072 A 
ATOM     33  C   UNL     1       0.002  -0.003  -0.006  0.00  0.00    +0.037 A 
ATOM     34  O   UNL     1       1.563   3.176  -1.145  0.00  0.00    -0.453 OA
ATOM     35  C   UNL     1       2.798   3.555  -0.509  0.00  0.00    +0.466 C 
ATOM     36  O   UNL     1       3.416   2.296  -0.184  0.00  0.00    -0.453 OA
ENDBRANCH  24  33
ENDBRANCH   1  25
TORSDOF 5
