REMARK  Name = ZINC02614026
REMARK  4 active torsions:
REMARK  status: ('A' for Active; 'I' for Inactive)
REMARK    1  A    between atoms: C_1  and  C_2
REMARK    2  A    between atoms: C_8  and  C_10
REMARK    3  A    between atoms: C_10  and  S_11
REMARK    4  A    between atoms: S_11  and  C_12
REMARK                            x       y       z     vdW  Elec       q    Type
REMARK                         _______ _______ _______ _____ _____    ______ ____
ROOT
ATOM      1  C   UNL     1      -7.945   4.014   5.532  0.00  0.00    +0.170 A 
ATOM      2  N   UNL     1      -8.596   4.448   6.650  0.00  0.00    -0.301 N 
ATOM      3  H   UNL     1      -8.076   4.610   7.489  0.00  0.00    +0.171 HD
ATOM      4  C   UNL     1      -9.924   4.663   6.646  0.00  0.00    +0.261 A 
ATOM      5  O   UNL     1     -10.490   5.056   7.652  0.00  0.00    -0.267 OA
ATOM      6  C   UNL     1     -10.664   4.421   5.445  0.00  0.00    +0.075 A 
ATOM      7  C   UNL     1     -12.101   4.583   5.216  0.00  0.00    -0.023 A 
ATOM      8  C   UNL     1     -12.562   4.288   3.984  0.00  0.00    -0.004 A 
ATOM      9  S   UNL     1     -11.132   3.783   3.067  0.00  0.00    -0.073 S 
ATOM     10  C   UNL     1      -9.915   3.971   4.345  0.00  0.00    +0.117 A 
ATOM     11  N   UNL     1      -8.602   3.783   4.413  0.00  0.00    -0.216 NA
ATOM     12  C   UNL     1     -13.978   4.370   3.501  0.00  0.00    +0.043 C 
ATOM     13  C   UNL     1     -14.900   4.490   4.723  0.00  0.00    +0.005 C 
ATOM     14  C   UNL     1     -14.340   5.565   5.658  0.00  0.00    +0.005 C 
ATOM     15  C   UNL     1     -13.050   5.064   6.310  0.00  0.00    +0.037 C 
ENDROOT
BRANCH   1  16
ATOM     16  S   UNL     1      -6.203   3.752   5.587  0.00  0.00    -0.078 S 
BRANCH  16  17
ATOM     17  C   UNL     1      -5.916   3.196   3.889  0.00  0.00    +0.173 C 
BRANCH  17  25
ATOM     18  C   UNL     1      -0.013   1.086   0.008  0.00  0.00    +0.066 C 
ATOM     19  C   UNL     1      -0.718   1.572   1.248  0.00  0.00    +0.047 A 
ATOM     20  C   UNL     1      -0.029   1.806   2.391  0.00  0.00    +0.071 A 
ATOM     21  S   UNL     1      -1.348   2.342   3.471  0.00  0.00    -0.060 S 
ATOM     22  C   UNL     1      -2.646   2.204   2.326  0.00  0.00    +0.165 A 
ATOM     23  N   UNL     1      -2.019   1.784   1.244  0.00  0.00    -0.230 NA
ATOM     24  N   UNL     1      -3.999   2.473   2.502  0.00  0.00    -0.264 N 
ATOM     25  C   UNL     1      -4.449   2.904   3.697  0.00  0.00    +0.229 C 
ATOM     26  O   UNL     1      -3.675   3.058   4.618  0.00  0.00    -0.275 OA
ATOM     27  H   UNL     1      -4.618   2.351   1.766  0.00  0.00    +0.157 HD
ENDBRANCH  17  25
ENDBRANCH  16  17
ENDBRANCH   1  16
TORSDOF 3
