REMARK  Name = ZINC14595826
REMARK  7 active torsions:
REMARK  status: ('A' for Active; 'I' for Inactive)
REMARK    1  A    between atoms: C_1  and  C_2
REMARK    2  A    between atoms: C_5  and  C_17
REMARK    3  A    between atoms: C_7  and  S_8
REMARK    4  A    between atoms: S_8  and  N_11
REMARK    5  A    between atoms: N_19  and  N_20
REMARK    6  A    between atoms: C_21  and  C_23
REMARK    7  A    between atoms: C_23  and  C_24
REMARK                            x       y       z     vdW  Elec       q    Type
REMARK                         _______ _______ _______ _____ _____    ______ ____
ROOT
ATOM      1  C   UNL     1      -2.437   4.603  -0.185  0.00  0.00    +0.260 C 
ATOM      2  O   UNL     1      -2.254   5.799  -0.303  0.00  0.00    -0.269 OA
ATOM      3  N   UNL     1      -3.688   4.123  -0.046  0.00  0.00    -0.230 N 
ATOM      4  H   UNL     1      -3.834   3.169   0.048  0.00  0.00    +0.173 HD
ENDROOT
BRANCH   1   9
ATOM      5  C   UNL     1       2.042   0.989  -0.225  0.00  0.00    +0.046 C 
ATOM      6  C   UNL     1       0.869   1.936  -0.214  0.00  0.00    -0.024 A 
ATOM      7  C   UNL     1      -0.415   1.440  -0.072  0.00  0.00    +0.006 A 
ATOM      8  C   UNL     1      -1.493   2.300  -0.067  0.00  0.00    +0.013 A 
ATOM      9  C   UNL     1      -1.286   3.675  -0.196  0.00  0.00    +0.040 A 
ATOM     10  C   UNL     1       0.011   4.168  -0.340  0.00  0.00    +0.042 A 
ATOM     11  C   UNL     1       1.081   3.296  -0.348  0.00  0.00    +0.109 A 
BRANCH  11  12
ATOM     12  S   UNL     1       2.720   3.917  -0.530  0.00  0.00    +0.061 S 
ATOM     13  O   UNL     1       2.613   5.333  -0.592  0.00  0.00    -0.153 OA
ATOM     14  O   UNL     1       3.515   3.254   0.443  0.00  0.00    -0.153 OA
BRANCH  12  15
ATOM     15  N   UNL     1       3.270   3.419  -2.011  0.00  0.00    -0.177 NA
ATOM     16  C   UNL     1       4.047   2.179  -2.142  0.00  0.00    +0.109 C 
ATOM     17  C   UNL     1       3.376   1.293  -3.204  0.00  0.00    +0.017 C 
ATOM     18  C   UNL     1       3.234   2.086  -4.505  0.00  0.00    +0.003 C 
ATOM     19  C   UNL     1       2.343   3.308  -4.265  0.00  0.00    +0.017 C 
ATOM     20  C   UNL     1       2.997   4.213  -3.217  0.00  0.00    +0.109 C 
ENDBRANCH  12  15
ENDBRANCH  11  12
ENDBRANCH   1   9
BRANCH   3  21
ATOM     21  N   UNL     1      -4.779   5.003  -0.036  0.00  0.00    -0.234 N 
ATOM     22  C   UNL     1      -6.030   4.524   0.103  0.00  0.00    +0.230 C 
ATOM     23  O   UNL     1      -6.213   3.330   0.220  0.00  0.00    -0.274 OA
ATOM     24  H   UNL     1      -4.633   5.958  -0.130  0.00  0.00    +0.173 HD
BRANCH  22  25
ATOM     25  C   UNL     1      -7.203   5.470   0.114  0.00  0.00    +0.104 C 
BRANCH  25  26
ATOM     26  C   UNL     1      -8.499   4.674   0.283  0.00  0.00    -0.020 C 
ATOM     27  C   UNL     1      -8.649   3.689  -0.878  0.00  0.00    +0.011 C 
ATOM     28  C   UNL     1      -9.945   2.894  -0.708  0.00  0.00    -0.010 C 
ATOM     29  C   UNL     1     -11.135   3.855  -0.697  0.00  0.00    +0.007 C 
ATOM     30  C   UNL     1     -10.986   4.840   0.464  0.00  0.00    -0.010 C 
ATOM     31  C   UNL     1      -9.690   5.635   0.294  0.00  0.00    +0.011 C 
ATOM     32  C   UNL     1     -10.941   4.068   1.785  0.00  0.00    +0.007 C 
ATOM     33  C   UNL     1      -9.750   3.107   1.774  0.00  0.00    -0.010 C 
ATOM     34  C   UNL     1      -9.900   2.123   0.613  0.00  0.00    +0.007 C 
ATOM     35  C   UNL     1      -8.454   3.903   1.604  0.00  0.00    +0.011 C 
ENDBRANCH  25  26
ENDBRANCH  22  25
ENDBRANCH   3  21
TORSDOF 6
