REMARK  Name = ZINC66244529
REMARK  4 active torsions:
REMARK  status: ('A' for Active; 'I' for Inactive)
REMARK    1  A    between atoms: C_4  and  N_7
REMARK    2  A    between atoms: N_10  and  C_11
REMARK    3  A    between atoms: C_11  and  C_12
REMARK    4  A    between atoms: N_16  and  C_18
REMARK                            x       y       z     vdW  Elec       q    Type
REMARK                         _______ _______ _______ _____ _____    ______ ____
ROOT
ATOM      1  N   UNL     1       3.621  -0.651  -0.034  0.00  0.00    -0.328 N 
ATOM      2  C   UNL     1       3.638  -2.022  -0.149  0.00  0.00    +0.173 C 
ATOM      3  N   UNL     1       2.518  -2.683  -0.239  0.00  0.00    -0.371 N 
ATOM      4  N   UNL     1       4.837  -2.696  -0.168  0.00  0.00    -0.357 N 
ATOM      5  H   UNL     1       2.783  -0.168  -0.111  0.00  0.00    +0.169 HD
ATOM      6  H   UNL     1       2.526  -3.653  -0.244  0.00  0.00    +0.159 HD
ATOM      7  H   UNL     1       5.670  -2.204  -0.101  0.00  0.00    +0.162 HD
ATOM      8  H   UNL     1       1.677  -2.204  -0.301  0.00  0.00    +0.159 HD
ENDROOT
BRANCH   1  12
ATOM      9  C   UNL     1       7.167   1.428   0.642  0.00  0.00    +0.000 A 
ATOM     10  C   UNL     1       6.228   1.933  -0.239  0.00  0.00    +0.002 A 
ATOM     11  C   UNL     1       5.052   1.247  -0.465  0.00  0.00    +0.026 A 
ATOM     12  C   UNL     1       4.812   0.047   0.193  0.00  0.00    +0.042 A 
ATOM     13  C   UNL     1       5.757  -0.458   1.076  0.00  0.00    +0.026 A 
ATOM     14  C   UNL     1       6.931   0.234   1.298  0.00  0.00    +0.002 A 
ENDBRANCH   1  12
BRANCH   4  15
ATOM     15  C   UNL     1       4.855  -4.155  -0.290  0.00  0.00    +0.120 C 
BRANCH  15  16
ATOM     16  C   UNL     1       6.303  -4.649  -0.287  0.00  0.00    +0.027 C 
ATOM     17  C   UNL     1       7.034  -4.239  -1.593  0.00  0.00    +0.025 C 
ATOM     18  C   UNL     1       8.124  -5.322  -1.734  0.00  0.00    +0.105 C 
ATOM     19  N   UNL     1       7.681  -6.491  -0.960  0.00  0.00    -0.330 N 
ATOM     20  C   UNL     1       6.363  -6.195  -0.369  0.00  0.00    +0.110 C 
BRANCH  19  21
ATOM     21  C   UNL     1       8.391  -7.685  -0.810  0.00  0.00    +0.030 A 
ATOM     22  C   UNL     1       7.858  -8.721  -0.054  0.00  0.00    +0.024 A 
ATOM     23  C   UNL     1       8.562  -9.900   0.093  0.00  0.00    +0.017 A 
ATOM     24  C   UNL     1       9.797 -10.049  -0.512  0.00  0.00    +0.018 A 
ATOM     25  C   UNL     1      10.331  -9.019  -1.265  0.00  0.00    +0.017 A 
ATOM     26  C   UNL     1       9.629  -7.840  -1.421  0.00  0.00    +0.024 A 
ATOM     27 BR   UNL     1      10.759 -11.665  -0.307  0.00  0.00    -0.050 Br
ENDBRANCH  19  21
ENDBRANCH  15  16
ENDBRANCH   4  15
TORSDOF 4
