REMARK  Name = ZINC16607051
REMARK  10 active torsions:
REMARK  status: ('A' for Active; 'I' for Inactive)
REMARK    1  A    between atoms: C_1  and  C_2
REMARK    2  A    between atoms: C_2  and  C_3
REMARK    3  A    between atoms: C_3  and  C_5
REMARK    4  A    between atoms: C_3  and  C_6
REMARK    5  A    between atoms: C_6  and  C_8
REMARK    6  A    between atoms: C_6  and  N_23
REMARK    7  A    between atoms: C_14  and  C_16
REMARK    8  A    between atoms: N_26  and  C_27
REMARK    9  A    between atoms: C_30  and  C_34
REMARK   10  A    between atoms: C_32  and  C_33
REMARK                            x       y       z     vdW  Elec       q    Type
REMARK                         _______ _______ _______ _____ _____    ______ ____
ROOT
ATOM      1  C   UNL     1      -2.465  -2.644   0.315  0.00  0.00    +0.163 C 
ENDROOT
BRANCH   1   2
ATOM      2  C   UNL     1      -1.364  -1.638   0.097  0.00  0.00    +0.239 C 
ATOM      3  O   UNL     1      -0.242  -2.015  -0.170  0.00  0.00    -0.273 OA
ATOM      4  N   UNL     1      -1.625  -0.320   0.199  0.00  0.00    -0.262 N 
ATOM      5  C   UNL     1      -0.591   0.603   0.103  0.00  0.00    +0.188 A 
ATOM      6  N   UNL     1       0.703   0.401  -0.086  0.00  0.00    -0.125 NA
ATOM      7  N   UNL     1       1.526   1.356  -0.151  0.00  0.00    -0.140 NA
ATOM      8  C   UNL     1       1.109   2.611  -0.031  0.00  0.00    +0.134 A 
ATOM      9  S   UNL     1      -0.645   2.339   0.197  0.00  0.00    -0.030 S 
ATOM     10  H   UNL     1      -2.535  -0.016   0.340  0.00  0.00    +0.157 HD
BRANCH   8  11
ATOM     11  C   UNL     1       1.875   3.874  -0.074  0.00  0.00    +0.010 A 
ATOM     12  C   UNL     1       3.258   3.848  -0.266  0.00  0.00    +0.011 A 
ATOM     13  C   UNL     1       3.968   5.030  -0.305  0.00  0.00    +0.002 A 
ATOM     14  C   UNL     1       3.313   6.240  -0.156  0.00  0.00    +0.020 A 
ATOM     15  C   UNL     1       1.942   6.273   0.035  0.00  0.00    +0.042 A 
ATOM     16  C   UNL     1       1.219   5.097   0.071  0.00  0.00    +0.030 A 
ATOM     17 CL   UNL     1       1.130   7.795   0.222  0.00  0.00    -0.084 Cl
ENDBRANCH   8  11
ENDBRANCH   1   2
BRANCH   1  18
ATOM     18  N   UNL     1      -1.946  -3.994   0.079  0.00  0.00    -0.288 N 
ATOM     19  C   UNL     1      -2.749  -4.941  -0.445  0.00  0.00    +0.304 C 
ATOM     20  O   UNL     1      -3.872  -4.653  -0.811  0.00  0.00    -0.252 OA
ATOM     21  N   UNL     1      -2.306  -6.209  -0.563  0.00  0.00    -0.269 N 
ATOM     22  H   UNL     1      -1.026  -4.205   0.300  0.00  0.00    +0.151 HD
ATOM     23  H   UNL     1      -1.433  -6.452  -0.217  0.00  0.00    +0.156 HD
BRANCH  21  24
ATOM     24  C   UNL     1      -3.106  -7.174  -1.185  0.00  0.00    +0.038 A 
ATOM     25  C   UNL     1      -4.490  -7.073  -1.129  0.00  0.00    +0.024 A 
ATOM     26  C   UNL     1      -5.276  -8.027  -1.744  0.00  0.00    +0.005 A 
ATOM     27  C   UNL     1      -4.687  -9.082  -2.416  0.00  0.00    -0.050 A 
ATOM     28  C   UNL     1      -3.310  -9.186  -2.475  0.00  0.00    +0.008 A 
ATOM     29  C   UNL     1      -2.518  -8.232  -1.866  0.00  0.00    -0.029 A 
ATOM     30  C   UNL     1      -1.016  -8.342  -1.935  0.00  0.00    +0.045 C 
ATOM     31  C   UNL     1      -5.549 -10.121  -3.086  0.00  0.00    +0.044 C 
ENDBRANCH  21  24
ENDBRANCH   1  18
BRANCH   1  32
ATOM     32  C   UNL     1      -2.975  -2.538   1.754  0.00  0.00    +0.015 C 
ATOM     33  C   UNL     1      -4.192  -3.448   1.931  0.00  0.00    +0.010 C 
BRANCH  32  35
ATOM     34  C   UNL     1      -0.733  -1.946   2.683  0.00  0.00    +0.004 C 
ATOM     35  C   UNL     1      -1.870  -2.969   2.720  0.00  0.00    +0.002 C 
ENDBRANCH  32  35
ENDBRANCH   1  32
TORSDOF 6
