REMARK  Name = ZINC03104290
REMARK  10 active torsions:
REMARK  status: ('A' for Active; 'I' for Inactive)
REMARK    1  A    between atoms: C_1  and  C_2
REMARK    2  A    between atoms: C_2  and  C_3
REMARK    3  A    between atoms: C_2  and  C_4
REMARK    4  A    between atoms: C_2  and  C_5
REMARK    5  A    between atoms: C_8  and  S_11
REMARK    6  A    between atoms: S_11  and  N_14
REMARK    7  A    between atoms: N_14  and  C_15
REMARK    8  A    between atoms: C_18  and  N_21
REMARK    9  A    between atoms: N_24  and  C_27
REMARK   10  A    between atoms: C_30  and  C_32
REMARK                            x       y       z     vdW  Elec       q    Type
REMARK                         _______ _______ _______ _____ _____    ______ ____
ROOT
ATOM      1  C   UNL     1       0.425  -9.050  -1.404  0.00  0.00    +0.048 A 
ATOM      2  C   UNL     1       1.554  -8.459  -1.956  0.00  0.00    +0.026 A 
ATOM      3  C   UNL     1       1.588  -7.094  -2.162  0.00  0.00    +0.025 A 
ATOM      4  C   UNL     1       0.493  -6.312  -1.817  0.00  0.00    +0.030 A 
ATOM      5  C   UNL     1      -0.633  -6.902  -1.260  0.00  0.00    +0.025 A 
ATOM      6  C   UNL     1      -0.669  -8.268  -1.058  0.00  0.00    +0.026 A 
ENDROOT
BRANCH   4   7
ATOM      7  N   UNL     1       0.528  -4.928  -2.026  0.00  0.00    -0.327 N 
ATOM      8  C   UNL     1      -0.727  -4.298  -1.593  0.00  0.00    +0.124 C 
ATOM      9  C   UNL     1      -0.680  -2.802  -1.910  0.00  0.00    +0.125 C 
ATOM     10  N   UNL     1       0.473  -2.196  -1.229  0.00  0.00    -0.313 N 
ATOM     11  C   UNL     1       1.728  -2.825  -1.662  0.00  0.00    +0.125 C 
ATOM     12  C   UNL     1       1.681  -4.322  -1.345  0.00  0.00    +0.124 C 
BRANCH  10  13
ATOM     13  C   UNL     1       0.507  -0.821  -1.436  0.00  0.00    +0.118 A 
ATOM     14  C   UNL     1       0.470   0.043  -0.344  0.00  0.00    +0.079 A 
ATOM     15  C   UNL     1       0.506   1.408  -0.565  0.00  0.00    +0.037 A 
ATOM     16  C   UNL     1       0.577   1.866  -1.875  0.00  0.00    +0.072 A 
ATOM     17  C   UNL     1       0.610   0.953  -2.909  0.00  0.00    +0.096 A 
ATOM     18 CL   UNL     1       0.381  -0.585   1.272  0.00  0.00    -0.080 Cl
ATOM     19  N   UNL     1       0.577  -0.395  -2.730  0.00  0.00    -0.348 N 
ATOM     20  H   UNL     1       0.603  -1.051  -3.519  0.00  0.00    +0.167 HD
BRANCH  16  21
ATOM     21  C   UNL     1       0.619   3.344  -2.163  0.00  0.00    +0.419 C 
ATOM     22  F   UNL     1       0.689   3.548  -3.546  0.00  0.00    -0.166 F 
ATOM     23  F   UNL     1      -0.538   3.950  -1.661  0.00  0.00    -0.166 F 
ATOM     24  F   UNL     1       1.743   3.908  -1.551  0.00  0.00    -0.166 F 
ENDBRANCH  16  21
ENDBRANCH  10  13
ENDBRANCH   4   7
BRANCH   1  25
ATOM     25  N   UNL     1       0.390 -10.434  -1.195  0.00  0.00    -0.216 N 
ATOM     26  H   UNL     1       0.268 -11.035  -1.946  0.00  0.00    +0.174 HD
BRANCH  25  27
ATOM     27  S   UNL     1       0.559 -11.044   0.335  0.00  0.00    +0.072 S 
ATOM     28  O   UNL     1      -0.359 -10.338   1.158  0.00  0.00    -0.150 OA
ATOM     29  O   UNL     1       0.539 -12.460   0.212  0.00  0.00    -0.150 OA
BRANCH  27  33
ATOM     30  C   UNL     1       4.705  -9.931   1.772  0.00  0.00    -0.042 A 
ATOM     31  C   UNL     1       3.622  -9.137   2.102  0.00  0.00    +0.006 A 
ATOM     32  C   UNL     1       2.356  -9.477   1.663  0.00  0.00    +0.029 A 
ATOM     33  C   UNL     1       2.173 -10.611   0.894  0.00  0.00    +0.109 A 
ATOM     34  C   UNL     1       3.254 -11.408   0.569  0.00  0.00    +0.029 A 
ATOM     35  C   UNL     1       4.521 -11.065   1.004  0.00  0.00    +0.006 A 
BRANCH  30  37
ATOM     36  C   UNL     1       6.103  -9.527   3.780  0.00  0.00    +0.015 C 
ATOM     37  C   UNL     1       6.085  -9.560   2.251  0.00  0.00    -0.013 C 
ATOM     38  C   UNL     1       7.093 -10.596   1.751  0.00  0.00    +0.015 C 
ATOM     39  C   UNL     1       6.459  -8.180   1.706  0.00  0.00    +0.015 C 
ENDBRANCH  30  37
ENDBRANCH  27  33
ENDBRANCH  25  27
ENDBRANCH   1  25
TORSDOF 7
