REMARK  Name = ZINC01423016
REMARK  14 active torsions:
REMARK  status: ('A' for Active; 'I' for Inactive)
REMARK    1  A    between atoms: C_1  and  C_2
REMARK    2  A    between atoms: C_2  and  O_3
REMARK    3  A    between atoms: O_3  and  C_4
REMARK    4  A    between atoms: C_4  and  C_6
REMARK    5  A    between atoms: C_10  and  N_11
REMARK    6  A    between atoms: C_12  and  C_14
REMARK    7  A    between atoms: C_15  and  C_38
REMARK    8  A    between atoms: C_19  and  C_21
REMARK    9  A    between atoms: C_25  and  O_29
REMARK   10  A    between atoms: C_26  and  O_27
REMARK   11  A    between atoms: O_27  and  C_28
REMARK   12  A    between atoms: O_29  and  C_30
REMARK   13  A    between atoms: C_34  and  C_36
REMARK   14  A    between atoms: C_34  and  C_37
REMARK                            x       y       z     vdW  Elec       q    Type
REMARK                         _______ _______ _______ _____ _____    ______ ____
ROOT
ATOM      1  C   UNL     1      -3.139  -1.854  -5.148  0.00  0.00    +0.043 C 
ATOM      2  C   UNL     1      -3.452  -2.146  -6.421  0.00  0.00    +0.014 C 
ATOM      3  N   UNL     1      -4.742  -2.443  -6.767  0.00  0.00    -0.321 N 
ATOM      4  C   UNL     1      -5.783  -2.078  -5.957  0.00  0.00    +0.016 C 
ATOM      5  C   UNL     1      -5.568  -1.778  -4.658  0.00  0.00    +0.024 C 
ATOM      6  C   UNL     1      -4.181  -1.858  -4.069  0.00  0.00    +0.094 C 
ATOM      7  C   UNL     1      -6.626  -1.387  -3.820  0.00  0.00    +0.162 C 
ATOM      8  O   UNL     1      -6.400  -1.130  -2.654  0.00  0.00    -0.292 OA
ATOM      9  C   UNL     1      -8.034  -1.278  -4.339  0.00  0.00    +0.086 C 
ATOM     10  C   UNL     1      -7.990  -0.946  -5.834  0.00  0.00    -0.023 C 
ATOM     11  C   UNL     1      -7.170  -2.024  -6.548  0.00  0.00    +0.058 C 
ATOM     12  C   UNL     1      -7.331   0.419  -6.038  0.00  0.00    +0.011 C 
ATOM     13  C   UNL     1      -9.412  -0.925  -6.398  0.00  0.00    +0.011 C 
ATOM     14  C   UNL     1      -2.376  -2.145  -7.476  0.00  0.00    +0.061 C 
ATOM     15  H   UNL     1      -4.920  -2.918  -7.594  0.00  0.00    +0.152 HD
ENDROOT
BRANCH   6  16
ATOM     16  C   UNL     1      -4.053  -3.125  -3.262  0.00  0.00    +0.010 A 
ATOM     17  C   UNL     1      -3.498  -3.086  -1.996  0.00  0.00    +0.008 A 
ATOM     18  C   UNL     1      -3.379  -4.246  -1.254  0.00  0.00    +0.004 A 
ATOM     19  C   UNL     1      -3.815  -5.451  -1.775  0.00  0.00    +0.049 A 
ATOM     20  C   UNL     1      -4.372  -5.497  -3.042  0.00  0.00    +0.162 A 
ATOM     21  C   UNL     1      -4.497  -4.328  -3.787  0.00  0.00    +0.166 A 
BRANCH  21  22
ATOM     22  O   UNL     1      -5.049  -4.367  -5.029  0.00  0.00    -0.491 OA
ATOM     23  C   UNL     1      -4.229  -4.866  -6.088  0.00  0.00    +0.277 C 
ENDBRANCH  21  22
BRANCH  20  24
ATOM     24  O   UNL     1      -4.801  -6.681  -3.555  0.00  0.00    -0.491 OA
ATOM     25  C   UNL     1      -4.646  -7.839  -2.732  0.00  0.00    +0.277 C 
ENDBRANCH  20  24
ENDBRANCH   6  16
BRANCH   1  27
ATOM     26  N   UNL     1      -0.896  -2.531  -4.655  0.00  0.00    -0.275 N 
ATOM     27  C   UNL     1      -1.798  -1.542  -4.817  0.00  0.00    +0.247 C 
ATOM     28  O   UNL     1      -1.459  -0.381  -4.679  0.00  0.00    -0.270 OA
ATOM     29  H   UNL     1      -1.166  -3.456  -4.765  0.00  0.00    +0.156 HD
BRANCH  26  34
ATOM     30  C   UNL     1       1.470  -3.104  -4.127  0.00  0.00    +0.091 A 
ATOM     31  C   UNL     1       2.762  -2.524  -3.801  0.00  0.00    -0.021 A 
ATOM     32  C   UNL     1       2.761  -1.176  -3.732  0.00  0.00    -0.004 A 
ATOM     33  S   UNL     1       1.094  -0.708  -4.093  0.00  0.00    -0.077 S 
ATOM     34  C   UNL     1       0.415  -2.226  -4.331  0.00  0.00    +0.087 A 
ATOM     35  C   UNL     1       3.927  -0.290  -3.418  0.00  0.00    +0.043 C 
ATOM     36  C   UNL     1       5.042  -1.157  -2.813  0.00  0.00    +0.005 C 
ATOM     37  C   UNL     1       5.236  -2.397  -3.690  0.00  0.00    +0.005 C 
ATOM     38  C   UNL     1       4.030  -3.328  -3.551  0.00  0.00    +0.037 C 
BRANCH  30  39
ATOM     39  C   UNL     1       1.291  -4.552  -4.242  0.00  0.00    +0.342 C 
ATOM     40  O   UNL     1       1.456  -5.102  -5.314  0.00  0.00    -0.245 OA
BRANCH  39  41
ATOM     41  O   UNL     1       0.942  -5.276  -3.159  0.00  0.00    -0.461 OA
BRANCH  41  43
ATOM     42  C   UNL     1       0.390  -7.332  -2.015  0.00  0.00    +0.048 C 
ATOM     43  C   UNL     1       0.784  -6.685  -3.344  0.00  0.00    +0.229 C 
ENDBRANCH  41  43
ENDBRANCH  39  41
ENDBRANCH  30  39
ENDBRANCH  26  34
ENDBRANCH   1  27
TORSDOF 8
