REMARK  Name = ZINC64164053
REMARK  12 active torsions:
REMARK  status: ('A' for Active; 'I' for Inactive)
REMARK    1  A    between atoms: C_1  and  C_2
REMARK    2  A    between atoms: C_2  and  C_3
REMARK    3  A    between atoms: C_2  and  C_4
REMARK    4  A    between atoms: C_7  and  N_10
REMARK    5  A    between atoms: C_11  and  S_16
REMARK    6  A    between atoms: S_16  and  C_17
REMARK    7  A    between atoms: C_17  and  C_18
REMARK    8  A    between atoms: N_20  and  C_21
REMARK    9  A    between atoms: C_21  and  C_22
REMARK   10  A    between atoms: C_22  and  C_23
REMARK   11  A    between atoms: C_27  and  O_32
REMARK   12  A    between atoms: O_32  and  C_33
REMARK                            x       y       z     vdW  Elec       q    Type
REMARK                         _______ _______ _______ _____ _____    ______ ____
ROOT
ATOM      1  S   UNL     1      -5.064  -4.420  -1.062  0.00  0.00    -0.114 S 
ENDROOT
BRANCH   1   3
ATOM      2  N   UNL     1      -5.318  -1.967   0.043  0.00  0.00    -0.254 N 
ATOM      3  C   UNL     1      -5.932  -2.830  -0.981  0.00  0.00    +0.203 C 
ATOM      4  N   UNL     1      -7.336  -3.032  -0.548  0.00  0.00    -0.320 NA
ATOM      5  N   UNL     1      -7.566  -1.886   0.349  0.00  0.00    +0.411 N 
ATOM      6  N   UNL     1      -6.262  -1.728   1.013  0.00  0.00    -0.265 NA
ATOM      7  H   UNL     1      -7.965  -3.006  -1.336  0.00  0.00    +0.106 HD
ATOM      8  H   UNL     1      -7.804  -1.060  -0.179  0.00  0.00    -0.031 HD
ATOM      9  H   UNL     1      -6.163  -2.375   1.781  0.00  0.00    +0.125 HD
ATOM     10  H   UNL     1      -8.285  -2.099   1.025  0.00  0.00    -0.031 HD
BRANCH   2  14
ATOM     11  C   UNL     1      -1.412  -0.526   0.013  0.00  0.00    -0.045 A 
ATOM     12  C   UNL     1      -2.258  -0.203   1.058  0.00  0.00    +0.006 A 
ATOM     13  C   UNL     1      -3.554  -0.679   1.071  0.00  0.00    +0.025 A 
ATOM     14  C   UNL     1      -4.008  -1.483   0.032  0.00  0.00    +0.045 A 
ATOM     15  C   UNL     1      -3.155  -1.805  -1.016  0.00  0.00    +0.025 A 
ATOM     16  C   UNL     1      -1.861  -1.321  -1.025  0.00  0.00    +0.006 A 
BRANCH  11  18
ATOM     17  C   UNL     1      -0.019   1.526   0.010  0.00  0.00    +0.012 C 
ATOM     18  C   UNL     1       0.002  -0.004   0.002  0.00  0.00    +0.013 C 
ATOM     19  C   UNL     1       0.742  -0.511   1.242  0.00  0.00    +0.012 C 
ENDBRANCH  11  18
ENDBRANCH   2  14
ENDBRANCH   1   3
BRANCH   1  20
ATOM     20  C   UNL     1      -5.256  -5.111   0.604  0.00  0.00    +0.167 C 
BRANCH  20  21
ATOM     21  C   UNL     1      -4.571  -6.451   0.675  0.00  0.00    +0.223 C 
ATOM     22  O   UNL     1      -4.009  -6.897  -0.303  0.00  0.00    -0.275 OA
ATOM     23  N   UNL     1      -4.583  -7.154   1.824  0.00  0.00    -0.314 N 
ATOM     24  H   UNL     1      -5.033  -6.798   2.606  0.00  0.00    +0.149 HD
BRANCH  23  25
ATOM     25  C   UNL     1      -3.917  -8.458   1.893  0.00  0.00    +0.108 C 
BRANCH  25  26
ATOM     26  C   UNL     1      -4.079  -9.040   3.299  0.00  0.00    +0.052 C 
BRANCH  26  27
ATOM     27  C   UNL     1      -3.394 -10.380   3.369  0.00  0.00    -0.040 C 
ATOM     28  C   UNL     1      -2.140 -10.629   3.807  0.00  0.00    -0.001 A 
ATOM     29  C   UNL     1      -1.080  -9.757   4.329  0.00  0.00    +0.013 A 
ATOM     30  C   UNL     1       0.099 -10.305   4.697  0.00  0.00    +0.046 A 
ATOM     31  C   UNL     1       0.334 -11.689   4.591  0.00  0.00    +0.122 A 
ATOM     32  C   UNL     1      -0.599 -12.554   4.119  0.00  0.00    +0.071 A 
ATOM     33  C   UNL     1      -1.869 -12.081   3.706  0.00  0.00    +0.046 A 
ATOM     34  N   UNL     1      -2.919 -12.706   3.223  0.00  0.00    -0.380 N 
ATOM     35  C   UNL     1      -3.974 -11.719   2.970  0.00  0.00    +0.144 C 
ATOM     36  H   UNL     1      -2.986 -13.660   3.063  0.00  0.00    +0.160 HD
BRANCH  31  37
ATOM     37  O   UNL     1       1.540 -12.176   4.977  0.00  0.00    -0.495 OA
ATOM     38  C   UNL     1       2.494 -11.233   5.468  0.00  0.00    +0.277 C 
ENDBRANCH  31  37
ENDBRANCH  26  27
ENDBRANCH  25  26
ENDBRANCH  23  25
ENDBRANCH  20  21
ENDBRANCH   1  20
TORSDOF 9
