REMARK  Name = ZINC08951386
REMARK  8 active torsions:
REMARK  status: ('A' for Active; 'I' for Inactive)
REMARK    1  A    between atoms: C_1  and  C_2
REMARK    2  A    between atoms: C_2  and  C_3
REMARK    3  A    between atoms: C_3  and  C_4
REMARK    4  A    between atoms: C_11  and  N_38
REMARK    5  A    between atoms: C_12  and  C_36
REMARK    6  A    between atoms: C_13  and  C_15
REMARK    7  A    between atoms: N_17  and  C_30
REMARK    8  A    between atoms: C_19  and  C_20
REMARK                            x       y       z     vdW  Elec       q    Type
REMARK                         _______ _______ _______ _____ _____    ______ ____
ROOT
ATOM      1  C   UNL     1       1.766   3.658  -1.829  0.00  0.00    +0.007 A 
ATOM      2  C   UNL     1       1.232   3.280  -3.014  0.00  0.00    +0.119 A 
ATOM      3  N   UNL     1       1.927   3.900  -3.995  0.00  0.00    -0.239 N 
ATOM      4  N   UNL     1       2.919   4.683  -3.390  0.00  0.00    -0.171 NA
ATOM      5  C   UNL     1       2.818   4.542  -2.093  0.00  0.00    +0.074 A 
ENDROOT
BRANCH   1  15
ATOM      6  C   UNL     1       2.200   0.792  -0.403  0.00  0.00    +0.044 A 
ATOM      7  C   UNL     1       1.218   1.706  -0.427  0.00  0.00    +0.049 A 
ATOM      8  C   UNL     1      -0.018   1.022  -0.410  0.00  0.00    +0.245 A 
ATOM      9  N   UNL     1       0.229  -0.255  -0.379  0.00  0.00    -0.135 NA
ATOM     10  N   UNL     1       1.622  -0.431  -0.374  0.00  0.00    -0.278 N 
ATOM     11  H   UNL     1       2.103  -1.307  -0.352  0.00  0.00    +0.189 HD
ATOM     12  O   UNL     1      -1.207   1.682  -0.421  0.00  0.00    -0.421 OA
ATOM     13  C   UNL     1      -1.184   3.008  -0.184  0.00  0.00    +0.201 C 
ATOM     14  C   UNL     1      -0.068   3.767  -0.185  0.00  0.00    +0.098 C 
ATOM     15  C   UNL     1       1.304   3.210  -0.466  0.00  0.00    +0.105 C 
BRANCH  13  16
ATOM     16  N   UNL     1      -2.379   3.630   0.081  0.00  0.00    -0.328 N 
ATOM     17  H   UNL     1      -2.401   4.583   0.258  0.00  0.00    +0.145 HD
ATOM     18  H   UNL     1      -3.201   3.115   0.091  0.00  0.00    +0.145 HD
ENDBRANCH  13  16
BRANCH  14  19
ATOM     19  C   UNL     1      -0.194   5.166   0.092  0.00  0.00    +0.101 C 
ATOM     20  N   UNL     1      -0.294   6.276   0.312  0.00  0.00    -0.191 NA
ENDBRANCH  14  19
BRANCH   6  21
ATOM     21  C   UNL     1       3.680   1.077  -0.408  0.00  0.00    +0.055 C 
BRANCH  21  23
ATOM     22  C   UNL     1       5.700   1.369   1.033  0.00  0.00    +0.004 C 
ATOM     23  C   UNL     1       4.178   1.216   1.032  0.00  0.00    +0.003 C 
ENDBRANCH  21  23
ENDBRANCH   6  21
ENDBRANCH   1  15
BRANCH   5  24
ATOM     24  C   UNL     1       3.688   5.212  -1.061  0.00  0.00    +0.016 C 
ATOM     25  C   UNL     1       2.810   6.003  -0.090  0.00  0.00    +0.016 C 
ATOM     26  C   UNL     1       3.693   6.684   0.958  0.00  0.00    -0.010 C 
ATOM     27  C   UNL     1       4.668   7.635   0.262  0.00  0.00    +0.007 C 
ATOM     28  C   UNL     1       5.547   6.844  -0.709  0.00  0.00    -0.010 C 
ATOM     29  C   UNL     1       4.664   6.163  -1.757  0.00  0.00    +0.016 C 
ATOM     30  C   UNL     1       6.333   5.782   0.063  0.00  0.00    +0.007 C 
ATOM     31  C   UNL     1       5.357   4.831   0.758  0.00  0.00    -0.010 C 
ATOM     32  C   UNL     1       4.479   5.622   1.730  0.00  0.00    +0.007 C 
ATOM     33  C   UNL     1       4.474   4.150  -0.289  0.00  0.00    +0.016 C 
ENDBRANCH   5  24
BRANCH   3  34
ATOM     34  C   UNL     1       1.696   3.780  -5.372  0.00  0.00    +0.065 A 
ATOM     35  C   UNL     1       0.677   2.959  -5.838  0.00  0.00    +0.028 A 
ATOM     36  C   UNL     1       0.448   2.847  -7.195  0.00  0.00    +0.002 A 
ATOM     37  C   UNL     1       1.240   3.543  -8.091  0.00  0.00    +0.000 A 
ATOM     38  C   UNL     1       2.259   4.356  -7.630  0.00  0.00    +0.002 A 
ATOM     39  C   UNL     1       2.489   4.477  -6.274  0.00  0.00    +0.028 A 
ENDBRANCH   3  34
TORSDOF 7
