REMARK  Name = ZINC22401383
REMARK  15 active torsions:
REMARK  status: ('A' for Active; 'I' for Inactive)
REMARK    1  A    between atoms: C_1  and  C_2
REMARK    2  A    between atoms: C_2  and  C_3
REMARK    3  A    between atoms: C_2  and  O_4
REMARK    4  A    between atoms: O_4  and  C_5
REMARK    5  A    between atoms: C_9  and  C_11
REMARK    6  A    between atoms: C_11  and  C_12
REMARK    7  A    between atoms: C_12  and  C_13
REMARK    8  A    between atoms: C_13  and  N_14
REMARK    9  A    between atoms: C_15  and  C_17
REMARK   10  A    between atoms: C_17  and  N_18
REMARK   11  A    between atoms: N_18  and  C_19
REMARK   12  A    between atoms: N_18  and  S_26
REMARK   13  A    between atoms: S_26  and  C_29
REMARK   14  A    between atoms: C_32  and  S_35
REMARK   15  A    between atoms: S_35  and  C_36
REMARK                            x       y       z     vdW  Elec       q    Type
REMARK                         _______ _______ _______ _____ _____    ______ ____
ROOT
ATOM      1  N   UNL     1      -0.961  12.575  -4.976  0.00  0.00    -0.194 N 
ENDROOT
BRANCH   1   2
ATOM      2  C   UNL     1      -2.078  13.365  -4.694  0.00  0.00    +0.055 A 
ATOM      3  C   UNL     1      -3.218  12.790  -4.147  0.00  0.00    +0.025 A 
ATOM      4  C   UNL     1      -4.321  13.573  -3.869  0.00  0.00    +0.005 A 
ATOM      5  C   UNL     1      -4.292  14.930  -4.134  0.00  0.00    +0.038 A 
ATOM      6  C   UNL     1      -3.157  15.508  -4.679  0.00  0.00    +0.125 A 
ATOM      7  C   UNL     1      -2.048  14.729  -4.955  0.00  0.00    +0.063 A 
ATOM      8  F   UNL     1      -3.132  16.834  -4.936  0.00  0.00    -0.205 F 
ENDBRANCH   1   2
BRANCH   1   9
ATOM      9  S   UNL     1       0.549  13.253  -4.998  0.00  0.00    +0.075 S 
ATOM     10  O   UNL     1       0.473  14.440  -4.221  0.00  0.00    -0.150 OA
ATOM     11  O   UNL     1       1.468  12.209  -4.707  0.00  0.00    -0.150 OA
BRANCH   9  12
ATOM     12  C   UNL     1       0.870  13.756  -6.656  0.00  0.00    +0.109 A 
ATOM     13  C   UNL     1       1.352  12.841  -7.574  0.00  0.00    +0.030 A 
ATOM     14  C   UNL     1       1.599  13.231  -8.876  0.00  0.00    +0.016 A 
ATOM     15  C   UNL     1       1.372  14.547  -9.260  0.00  0.00    +0.008 A 
ATOM     16  C   UNL     1       0.893  15.465  -8.334  0.00  0.00    +0.016 A 
ATOM     17  C   UNL     1       0.643  15.067  -7.035  0.00  0.00    +0.030 A 
BRANCH  15  18
ATOM     18  S   UNL     1       1.692  15.051 -10.918  0.00  0.00    -0.129 S 
ATOM     19  C   UNL     1       2.289  13.541 -11.728  0.00  0.00    +0.090 C 
ENDBRANCH  15  18
ENDBRANCH   9  12
ENDBRANCH   1   9
BRANCH   1  20
ATOM     20  C   UNL     1      -1.127  11.145  -5.251  0.00  0.00    +0.227 C 
BRANCH  20  22
ATOM     21  N   UNL     1      -1.303   9.044  -3.959  0.00  0.00    -0.314 N 
ATOM     22  C   UNL     1      -1.158  10.383  -3.951  0.00  0.00    +0.232 C 
ATOM     23  O   UNL     1      -1.052  10.976  -2.898  0.00  0.00    -0.274 OA
ATOM     24  H   UNL     1      -1.399   8.506  -4.914  0.00  0.00    +0.149 HD
BRANCH  21  25
ATOM     25  C   UNL     1      -1.334   8.303  -2.695  0.00  0.00    +0.104 C 
BRANCH  25  26
ATOM     26  C   UNL     1      -1.506   6.810  -2.982  0.00  0.00    +0.023 C 
BRANCH  26  27
ATOM     27  C   UNL     1      -1.538   6.037  -1.663  0.00  0.00    +0.037 C 
BRANCH  27  32
ATOM     28  C   UNL     1      -3.131   2.670  -2.296  0.00  0.00    +0.121 A 
ATOM     29  C   UNL     1      -2.014   1.865  -2.467  0.00  0.00    +0.045 A 
ATOM     30  C   UNL     1      -0.750   2.415  -2.383  0.00  0.00    +0.004 A 
ATOM     31  C   UNL     1      -0.597   3.764  -2.123  0.00  0.00    +0.004 A 
ATOM     32  C   UNL     1      -1.708   4.567  -1.946  0.00  0.00    -0.044 A 
ATOM     33  C   UNL     1      -2.975   4.022  -2.029  0.00  0.00    +0.049 A 
BRANCH  28  34
ATOM     34  O   UNL     1      -4.377   2.132  -2.384  0.00  0.00    -0.489 OA
BRANCH  34  36
ATOM     35  C   UNL     1      -5.802   0.190  -2.189  0.00  0.00    +0.051 C 
ATOM     36  C   UNL     1      -4.462   0.738  -2.685  0.00  0.00    +0.167 C 
ATOM     37  C   UNL     1      -4.357   0.536  -4.198  0.00  0.00    +0.051 C 
ENDBRANCH  34  36
ENDBRANCH  28  34
ENDBRANCH  27  32
ENDBRANCH  26  27
ENDBRANCH  25  26
ENDBRANCH  21  25
ENDBRANCH  20  22
ENDBRANCH   1  20
TORSDOF 12
