REMARK  Name = ZINC39953414
REMARK  6 active torsions:
REMARK  status: ('A' for Active; 'I' for Inactive)
REMARK    1  A    between atoms: C_1  and  C_2
REMARK    2  A    between atoms: C_2  and  C_3
REMARK    3  A    between atoms: C_2  and  C_4
REMARK    4  A    between atoms: C_4  and  C_5
REMARK    5  A    between atoms: C_7  and  C_11
REMARK    6  A    between atoms: C_17  and  C_20
REMARK                            x       y       z     vdW  Elec       q    Type
REMARK                         _______ _______ _______ _____ _____    ______ ____
ROOT
ATOM      1  C   UNL     1      -2.878   0.151   4.166  0.00  0.00    +0.181 A 
ATOM      2  N   UNL     1      -3.469   0.966   3.342  0.00  0.00    -0.129 NA
ATOM      3  N   UNL     1      -4.742   0.934   3.526  0.00  0.00    -0.121 NA
ATOM      4  C   UNL     1      -5.018   0.109   4.487  0.00  0.00    +0.211 A 
ATOM      5  N   UNL     1      -3.854  -0.467   4.928  0.00  0.00    -0.222 N 
ATOM      6  N   UNL     1      -3.910  -1.425   5.896  0.00  0.00    -0.263 N 
ATOM      7  C   UNL     1      -5.145  -1.408   6.725  0.00  0.00    +0.185 C 
ATOM      8  S   UNL     1      -6.283  -0.620   5.507  0.00  0.00    -0.056 S 
ATOM      9  H   UNL     1      -3.749  -2.342   5.507  0.00  0.00    +0.168 HD
ENDROOT
BRANCH   7  10
ATOM     10  C   UNL     1      -4.977  -0.550   7.952  0.00  0.00    +0.020 A 
ATOM     11  C   UNL     1      -3.923   0.340   8.035  0.00  0.00    +0.009 A 
ATOM     12  C   UNL     1      -3.769   1.128   9.160  0.00  0.00    +0.001 A 
ATOM     13  C   UNL     1      -4.668   1.026  10.205  0.00  0.00    +0.003 A 
ATOM     14  C   UNL     1      -5.723   0.137  10.125  0.00  0.00    +0.039 A 
ATOM     15  C   UNL     1      -5.882  -0.648   8.995  0.00  0.00    +0.129 A 
ATOM     16  F   UNL     1      -6.916  -1.514   8.914  0.00  0.00    -0.205 F 
ENDBRANCH   7  10
BRANCH   1  19
ATOM     17  C   UNL     1      -0.030  -0.130   2.478  0.00  0.00    +0.062 C 
ATOM     18  C   UNL     1      -0.901  -0.924   3.103  0.00  0.00    +0.034 C 
ATOM     19  C   UNL     1      -1.393  -0.084   4.268  0.00  0.00    +0.222 C 
ATOM     20  N   UNL     1      -0.650   1.178   4.103  0.00  0.00    -0.172 NA
ATOM     21  N   UNL     1       0.071   1.062   3.109  0.00  0.00    -0.158 NA
BRANCH  17  22
ATOM     22  C   UNL     1       0.742  -0.511   1.242  0.00  0.00    +0.060 C 
BRANCH  22  24
ATOM     23  C   UNL     1      -0.019   1.526   0.010  0.00  0.00    +0.007 C 
ATOM     24  C   UNL     1       0.002  -0.004   0.002  0.00  0.00    -0.011 C 
ATOM     25  C   UNL     1       0.718  -0.497  -1.257  0.00  0.00    +0.007 C 
ENDBRANCH  22  24
ENDBRANCH  17  22
ENDBRANCH   1  19
TORSDOF 4
