REMARK  Name = ZINC46722514
REMARK  9 active torsions:
REMARK  status: ('A' for Active; 'I' for Inactive)
REMARK    1  A    between atoms: C_1  and  C_2
REMARK    2  A    between atoms: C_2  and  C_3
REMARK    3  A    between atoms: C_2  and  O_4
REMARK    4  A    between atoms: O_4  and  C_5
REMARK    5  A    between atoms: C_8  and  C_11
REMARK    6  A    between atoms: C_11  and  C_12
REMARK    7  A    between atoms: C_12  and  N_13
REMARK    8  A    between atoms: N_13  and  S_14
REMARK    9  A    between atoms: S_14  and  C_17
REMARK                            x       y       z     vdW  Elec       q    Type
REMARK                         _______ _______ _______ _____ _____    ______ ____
ROOT
ATOM      1  N   UNL     1      -2.252  -8.021  -1.578  0.00  0.00    -0.190 NA
ATOM      2  H   UNL     1      -2.652  -8.122  -2.456  0.00  0.00    +0.148 HD
ENDROOT
BRANCH   1   3
ATOM      3  S   UNL     1      -1.813  -9.361  -0.710  0.00  0.00    +0.055 S 
ATOM      4  O   UNL     1      -2.170 -10.490  -1.496  0.00  0.00    -0.153 OA
ATOM      5  O   UNL     1      -0.485  -9.136  -0.259  0.00  0.00    -0.153 OA
BRANCH   3   6
ATOM      6  C   UNL     1      -2.832  -9.407   0.727  0.00  0.00    +0.084 C 
ATOM      7  C   UNL     1      -2.320  -9.064   1.898  0.00  0.00    +0.032 C 
ATOM      8  C   UNL     1      -3.156  -9.135   3.114  0.00  0.00    -0.020 A 
ATOM      9  C   UNL     1      -2.781  -8.471   4.280  0.00  0.00    +0.008 A 
ATOM     10  C   UNL     1      -3.590  -8.542   5.396  0.00  0.00    +0.001 A 
ATOM     11  C   UNL     1      -4.768  -9.267   5.357  0.00  0.00    +0.000 A 
ATOM     12  C   UNL     1      -5.142  -9.933   4.202  0.00  0.00    +0.004 A 
ATOM     13  C   UNL     1      -4.338  -9.875   3.084  0.00  0.00    -0.040 A 
ATOM     14  C   UNL     1      -4.710 -10.625   1.831  0.00  0.00    +0.042 C 
ATOM     15  C   UNL     1      -4.269  -9.830   0.600  0.00  0.00    +0.061 C 
ENDBRANCH   3   6
ENDBRANCH   1   3
BRANCH   1  16
ATOM     16  C   UNL     1      -2.037  -6.684  -1.020  0.00  0.00    +0.110 C 
BRANCH  16  17
ATOM     17  C   UNL     1      -2.167  -5.641  -2.132  0.00  0.00    +0.052 C 
BRANCH  17  21
ATOM     18  C   UNL     1      -1.538  -1.739  -0.505  0.00  0.00    +0.121 A 
ATOM     19  C   UNL     1      -0.465  -2.468  -0.997  0.00  0.00    +0.046 A 
ATOM     20  C   UNL     1      -0.671  -3.729  -1.522  0.00  0.00    +0.007 A 
ATOM     21  C   UNL     1      -1.945  -4.265  -1.558  0.00  0.00    -0.046 A 
ATOM     22  C   UNL     1      -3.017  -3.540  -1.070  0.00  0.00    +0.007 A 
ATOM     23  C   UNL     1      -2.815  -2.281  -0.538  0.00  0.00    +0.046 A 
BRANCH  18  24
ATOM     24  O   UNL     1      -1.339  -0.499   0.012  0.00  0.00    -0.489 OA
BRANCH  24  26
ATOM     25  C   UNL     1      -1.982   1.168   1.640  0.00  0.00    +0.051 C 
ATOM     26  C   UNL     1      -2.466   0.143   0.612  0.00  0.00    +0.167 C 
ATOM     27  C   UNL     1      -3.283   0.853  -0.469  0.00  0.00    +0.051 C 
ENDBRANCH  24  26
ENDBRANCH  18  24
ENDBRANCH  17  21
ENDBRANCH  16  17
ENDBRANCH   1  16
TORSDOF 7
