REMARK  Name = ZINC41601333
REMARK  8 active torsions:
REMARK  status: ('A' for Active; 'I' for Inactive)
REMARK    1  A    between atoms: C_1  and  C_2
REMARK    2  A    between atoms: C_2  and  C_3
REMARK    3  A    between atoms: C_3  and  C_4
REMARK    4  A    between atoms: C_4  and  C_5
REMARK    5  A    between atoms: N_13  and  C_14
REMARK    6  A    between atoms: C_14  and  C_15
REMARK    7  A    between atoms: C_15  and  C_17
REMARK    8  A    between atoms: C_15  and  O_18
REMARK                            x       y       z     vdW  Elec       q    Type
REMARK                         _______ _______ _______ _____ _____    ______ ____
ROOT
ATOM      1  C   UNL     1       1.444  -2.513  -2.505  0.00  0.00    +0.050 A 
ATOM      2  C   UNL     1       2.772  -2.825  -2.455  0.00  0.00    +0.093 A 
ATOM      3  C   UNL     1       3.408  -3.277  -3.626  0.00  0.00    +0.253 A 
ATOM      4  O   UNL     1       4.593  -3.565  -3.617  0.00  0.00    -0.268 OA
ATOM      5  N   UNL     1       2.681  -3.386  -4.758  0.00  0.00    -0.295 N 
ATOM      6  H   UNL     1       3.100  -3.696  -5.577  0.00  0.00    +0.172 HD
ATOM      7  C   UNL     1       1.360  -3.061  -4.747  0.00  0.00    +0.196 A 
ATOM      8  N   UNL     1       0.770  -2.643  -3.645  0.00  0.00    -0.221 NA
ATOM      9  N   UNL     1       0.630  -3.175  -5.900  0.00  0.00    -0.312 N 
ATOM     10  H   UNL     1       1.055  -3.485  -6.715  0.00  0.00    +0.149 HD
ENDROOT
BRANCH   1  11
ATOM     11  C   UNL     1       0.739  -2.027  -1.265  0.00  0.00    +0.056 C 
BRANCH  11  12
ATOM     12  C   UNL     1       0.718  -0.497  -1.257  0.00  0.00    +0.006 C 
BRANCH  12  14
ATOM     13  C   UNL     1      -0.019   1.526   0.010  0.00  0.00    +0.004 C 
ATOM     14  C   UNL     1       0.002  -0.004   0.002  0.00  0.00    -0.003 C 
ENDBRANCH  12  14
ENDBRANCH  11  12
ENDBRANCH   1  11
BRANCH   9  15
ATOM     15  C   UNL     1      -0.793  -2.827  -5.903  0.00  0.00    +0.135 C 
BRANCH  15  16
ATOM     16  C   UNL     1      -1.368  -3.042  -7.304  0.00  0.00    +0.128 C 
ATOM     17  C   UNL     1      -2.854  -2.680  -7.307  0.00  0.00    +0.039 C 
BRANCH  16  18
ATOM     18  O   UNL     1      -0.673  -2.211  -8.236  0.00  0.00    -0.391 OA
ATOM     19  H   UNL     1      -0.985  -2.296  -9.148  0.00  0.00    +0.210 HD
ENDBRANCH  16  18
ENDBRANCH  15  16
ENDBRANCH   9  15
TORSDOF 6
