REMARK  Name = ZINC39393654
REMARK  7 active torsions:
REMARK  status: ('A' for Active; 'I' for Inactive)
REMARK    1  A    between atoms: C_1  and  C_2
REMARK    2  A    between atoms: C_2  and  C_3
REMARK    3  A    between atoms: N_9  and  C_10
REMARK    4  A    between atoms: C_10  and  C_11
REMARK    5  A    between atoms: C_15  and  C_18
REMARK    6  A    between atoms: N_20  and  C_21
REMARK    7  A    between atoms: C_21  and  C_22
REMARK                            x       y       z     vdW  Elec       q    Type
REMARK                         _______ _______ _______ _____ _____    ______ ____
ROOT
ATOM      1  C   UNL     1       3.828   1.452  -0.905  0.00  0.00    +0.003 A 
ATOM      2  N   UNL     1       4.524   1.026   0.176  0.00  0.00    -0.327 N 
ATOM      3  C   UNL     1       5.838   1.291   0.306  0.00  0.00    +0.261 A 
ATOM      4  O   UNL     1       6.447   0.898   1.286  0.00  0.00    -0.267 OA
ATOM      5  C   UNL     1       6.511   2.028  -0.702  0.00  0.00    +0.101 A 
ATOM      6  C   UNL     1       5.789   2.463  -1.812  0.00  0.00    +0.020 A 
ATOM      7  C   UNL     1       4.431   2.156  -1.897  0.00  0.00    +0.020 A 
ATOM      8  H   UNL     1       4.068   0.521   0.868  0.00  0.00    +0.169 HD
ENDROOT
BRANCH   5   9
ATOM      9  C   UNL     1       7.946   2.328  -0.578  0.00  0.00    +0.249 C 
ATOM     10  O   UNL     1       8.536   2.867  -1.495  0.00  0.00    -0.270 OA
ATOM     11  N   UNL     1       8.606   2.005   0.551  0.00  0.00    -0.309 N 
ATOM     12  H   UNL     1       8.153   1.513   1.254  0.00  0.00    +0.149 HD
BRANCH  11  13
ATOM     13  C   UNL     1      10.008   2.397   0.718  0.00  0.00    +0.138 C 
BRANCH  13  14
ATOM     14  C   UNL     1      10.515   1.912   2.077  0.00  0.00    +0.150 C 
ATOM     15  N   UNL     1      10.346   0.459   2.217  0.00  0.00    -0.330 N 
ATOM     16  C   UNL     1       9.511   0.003   3.236  0.00  0.00    +0.042 A 
ATOM     17  C   UNL     1       9.228  -1.345   3.520  0.00  0.00    +0.024 A 
ATOM     18  C   UNL     1       8.387  -1.694   4.551  0.00  0.00    +0.002 A 
ATOM     19  C   UNL     1       7.790  -0.731   5.343  0.00  0.00    +0.001 A 
ATOM     20  C   UNL     1       8.050   0.605   5.085  0.00  0.00    +0.016 A 
ATOM     21  C   UNL     1       8.892   0.953   4.054  0.00  0.00    +0.031 A 
ATOM     22  S   UNL     1       9.448   2.528   3.440  0.00  0.00    -0.099 S 
ATOM     23  H   UNL     1      10.798  -0.160   1.622  0.00  0.00    +0.147 HD
ENDBRANCH  13  14
ENDBRANCH  11  13
ENDBRANCH   5   9
BRANCH   1  24
ATOM     24  C   UNL     1       2.359   1.134  -1.012  0.00  0.00    -0.024 C 
BRANCH  24  30
ATOM     25  C   UNL     1       0.746  -0.635  -1.126  0.00  0.00    -0.068 C 
ATOM     26  C   UNL     1       0.556  -2.153  -1.163  0.00  0.00    -0.015 C 
ATOM     27  C   UNL     1       1.204  -2.713  -2.432  0.00  0.00    -0.003 C 
ATOM     28  C   UNL     1       2.682  -2.314  -2.457  0.00  0.00    -0.019 C 
ATOM     29  C   UNL     1       2.794  -0.790  -2.373  0.00  0.00    -0.078 C 
ATOM     30  N   UNL     1       2.180  -0.319  -1.126  0.00  0.00    +0.385 N 
ATOM     31  H   UNL     1       2.623  -0.773  -0.341  0.00  0.00    -0.081 HD
BRANCH  25  33
ATOM     32  C   UNL     1      -1.405  -0.347   0.111  0.00  0.00    +0.002 C 
ATOM     33  C   UNL     1       0.100  -0.071   0.140  0.00  0.00    -0.019 C 
ENDBRANCH  25  33
ENDBRANCH  24  30
ENDBRANCH   1  24
TORSDOF 6
