REMARK  Name = ZINC29067255
REMARK  9 active torsions:
REMARK  status: ('A' for Active; 'I' for Inactive)
REMARK    1  A    between atoms: C_1  and  C_2
REMARK    2  A    between atoms: C_2  and  C_4
REMARK    3  A    between atoms: C_2  and  N_8
REMARK    4  A    between atoms: C_4  and  O_6
REMARK    5  A    between atoms: O_6  and  C_7
REMARK    6  A    between atoms: C_9  and  C_11
REMARK    7  A    between atoms: C_14  and  N_20
REMARK    8  A    between atoms: C_15  and  N_17
REMARK    9  A    between atoms: N_20  and  C_21
REMARK                            x       y       z     vdW  Elec       q    Type
REMARK                         _______ _______ _______ _____ _____    ______ ____
ROOT
ATOM      1  C   UNL     1      -1.292  -0.758   0.265  0.00  0.00    +0.039 A 
ATOM      2  C   UNL     1      -2.485  -0.078   0.003  0.00  0.00    +0.015 A 
ATOM      3  C   UNL     1      -3.639  -0.786  -0.244  0.00  0.00    +0.026 A 
ATOM      4  C   UNL     1      -3.619  -2.178  -0.233  0.00  0.00    +0.058 A 
ATOM      5  C   UNL     1      -2.433  -2.858   0.028  0.00  0.00    +0.148 A 
ATOM      6  C   UNL     1      -1.274  -2.156   0.270  0.00  0.00    +0.047 A 
ENDROOT
BRANCH   1   8
ATOM      7  N   UNL     1      -0.071   1.345   0.520  0.00  0.00    -0.299 N 
ATOM      8  C   UNL     1      -0.053  -0.002   0.530  0.00  0.00    +0.245 C 
ATOM      9  O   UNL     1       0.984  -0.595   0.759  0.00  0.00    -0.270 OA
ATOM     10  H   UNL     1      -1.009   1.881   0.314  0.00  0.00    +0.150 HD
BRANCH   7  12
ATOM     11  C   UNL     1       1.346   2.256   2.294  0.00  0.00    +0.040 C 
ATOM     12  C   UNL     1       1.160   2.096   0.783  0.00  0.00    +0.179 C 
BRANCH  12  13
ATOM     13  C   UNL     1       1.065   3.456   0.142  0.00  0.00    +0.327 C 
ATOM     14  O   UNL     1       0.072   3.767  -0.473  0.00  0.00    -0.249 OA
BRANCH  13  15
ATOM     15  O   UNL     1       2.084   4.323   0.253  0.00  0.00    -0.467 OA
ATOM     16  C   UNL     1       1.924   5.614  -0.391  0.00  0.00    +0.280 C 
ENDBRANCH  13  15
ENDBRANCH  12  13
ENDBRANCH   7  12
ENDBRANCH   1   8
BRANCH   5  17
ATOM     17  N   UNL     1      -2.417  -4.338   0.039  0.00  0.00    +0.058 N 
ATOM     18  O   UNL     1      -3.362  -4.954   0.498  0.00  0.00    -0.126 OA
ATOM     19  O   UNL     1      -1.458  -4.940  -0.410  0.00  0.00    -0.126 OA
ENDBRANCH   5  17
BRANCH   4  20
ATOM     20  N   UNL     1      -4.787  -2.890  -0.484  0.00  0.00    -0.339 N 
ATOM     21  H   UNL     1      -4.755  -3.987  -0.568  0.00  0.00    +0.146 HD
BRANCH  20  22
ATOM     22  C   UNL     1      -6.059  -2.181  -0.636  0.00  0.00    +0.070 C 
ATOM     23  C   UNL     1      -6.719  -1.976   0.743  0.00  0.00    +0.022 C 
ATOM     24  C   UNL     1      -8.233  -2.159   0.470  0.00  0.00    +0.002 C 
ATOM     25  C   UNL     1      -8.257  -3.306  -0.570  0.00  0.00    +0.002 C 
ATOM     26  C   UNL     1      -7.037  -3.026  -1.471  0.00  0.00    +0.022 C 
ENDBRANCH  20  22
ENDBRANCH   4  20
TORSDOF 7
