REMARK  Name = ZINC22801232
REMARK  8 active torsions:
REMARK  status: ('A' for Active; 'I' for Inactive)
REMARK    1  A    between atoms: C_1  and  C_2
REMARK    2  A    between atoms: C_2  and  C_4
REMARK    3  A    between atoms: C_2  and  N_10
REMARK    4  A    between atoms: N_6  and  C_7
REMARK    5  A    between atoms: N_13  and  C_16
REMARK    6  A    between atoms: C_16  and  C_17
REMARK    7  A    between atoms: N_19  and  C_28
REMARK    8  A    between atoms: C_21  and  C_22
REMARK                            x       y       z     vdW  Elec       q    Type
REMARK                         _______ _______ _______ _____ _____    ______ ____
ROOT
ATOM      1  C   UNL     1      -1.020  -1.610  -0.208  0.00  0.00    +0.123 C 
ENDROOT
BRANCH   1   5
ATOM      2  N   UNL     1       0.922   2.138  -0.371  0.00  0.00    +0.389 N 
ATOM      3  C   UNL     1      -0.534   2.107  -0.571  0.00  0.00    -0.062 C 
ATOM      4  C   UNL     1      -0.963   0.691  -0.961  0.00  0.00    +0.066 C 
ATOM      5  N   UNL     1      -0.559  -0.248   0.094  0.00  0.00    -0.302 NA
ATOM      6  C   UNL     1       0.896  -0.218   0.294  0.00  0.00    +0.066 C 
ATOM      7  C   UNL     1       1.325   1.199   0.684  0.00  0.00    -0.062 C 
ATOM      8  H   UNL     1       1.400   1.821  -1.310  0.00  0.00    -0.081 HD
BRANCH   2  10
ATOM      9  C   UNL     1       2.857   3.460   0.339  0.00  0.00    -0.004 C 
ATOM     10  C   UNL     1       1.383   3.500  -0.069  0.00  0.00    +0.016 C 
BRANCH  10  11
ATOM     11  C   UNL     1       0.565   4.068   1.062  0.00  0.00    +0.199 C 
ATOM     12  O   UNL     1       0.092   3.329   1.900  0.00  0.00    -0.278 OA
ATOM     13  N   UNL     1       0.357   5.397   1.143  0.00  0.00    -0.314 N 
ATOM     14  H   UNL     1       0.786   6.067   0.383  0.00  0.00    +0.149 HD
BRANCH  13  15
ATOM     15  C   UNL     1      -0.438   5.949   2.242  0.00  0.00    +0.073 C 
ATOM     16  C   UNL     1      -1.466   7.029   1.897  0.00  0.00    +0.024 C 
ATOM     17  C   UNL     1      -0.181   7.404   2.639  0.00  0.00    +0.024 C 
ENDBRANCH  13  15
ENDBRANCH  10  11
ENDBRANCH   2  10
ENDBRANCH   1   5
BRANCH   1  18
ATOM     18  C   UNL     1      -0.387  -2.581   0.755  0.00  0.00    +0.012 A 
ATOM     19  C   UNL     1       0.679  -3.370   0.502  0.00  0.00    +0.120 A 
ATOM     20  N   UNL     1       0.940  -4.091   1.623  0.00  0.00    -0.239 N 
ATOM     21  N   UNL     1      -0.006  -3.738   2.595  0.00  0.00    -0.166 NA
ATOM     22  C   UNL     1      -0.806  -2.829   2.077  0.00  0.00    +0.098 A 
BRANCH  22  23
ATOM     23  C   UNL     1      -1.949  -2.181   2.765  0.00  0.00    +0.002 A 
ATOM     24  C   UNL     1      -2.254  -0.845   2.509  0.00  0.00    +0.010 A 
ATOM     25  C   UNL     1      -3.321  -0.249   3.148  0.00  0.00    +0.001 A 
ATOM     26  C   UNL     1      -4.082  -0.971   4.050  0.00  0.00    +0.000 A 
ATOM     27  C   UNL     1      -3.781  -2.295   4.312  0.00  0.00    +0.001 A 
ATOM     28  C   UNL     1      -2.719  -2.903   3.675  0.00  0.00    +0.010 A 
ENDBRANCH  22  23
BRANCH  20  29
ATOM     29  C   UNL     1       1.969  -5.028   1.780  0.00  0.00    +0.065 A 
ATOM     30  C   UNL     1       2.838  -5.289   0.728  0.00  0.00    +0.028 A 
ATOM     31  C   UNL     1       3.856  -6.209   0.887  0.00  0.00    +0.002 A 
ATOM     32  C   UNL     1       4.003  -6.879   2.088  0.00  0.00    +0.000 A 
ATOM     33  C   UNL     1       3.136  -6.625   3.135  0.00  0.00    +0.002 A 
ATOM     34  C   UNL     1       2.120  -5.702   2.984  0.00  0.00    +0.028 A 
ENDBRANCH  20  29
ENDBRANCH   1  18
TORSDOF 7
