REMARK  Name = ZINC62213320
REMARK  3 active torsions:
REMARK  status: ('A' for Active; 'I' for Inactive)
REMARK    1  A    between atoms: C_5  and  C_7
REMARK    2  A    between atoms: C_9  and  N_22
REMARK    3  A    between atoms: N_15  and  C_16
REMARK                            x       y       z     vdW  Elec       q    Type
REMARK                         _______ _______ _______ _____ _____    ______ ____
ROOT
ATOM      1  C   UNL     1       1.175  -2.576  -0.180  0.00  0.00    +0.093 C 
ATOM      2  C   UNL     1       1.653  -2.775   1.259  0.00  0.00    -0.049 C 
ATOM      3  C   UNL     1       1.464  -4.248   1.639  0.00  0.00    -0.005 C 
ATOM      4  C   UNL     1      -0.036  -4.543   1.704  0.00  0.00    +0.094 C 
ATOM      5  C   UNL     1      -0.712  -4.028   0.465  0.00  0.00    +0.216 C 
ATOM      6  O   UNL     1      -1.817  -4.450   0.196  0.00  0.00    -0.276 OA
ATOM      7  N   UNL     1      -0.163  -3.130  -0.350  0.00  0.00    -0.293 N 
ENDROOT
BRANCH   1  12
ATOM      8  C   UNL     1       0.062   1.028  -0.357  0.00  0.00    +0.000 A 
ATOM      9  C   UNL     1       1.095   1.601  -1.077  0.00  0.00    +0.001 A 
ATOM     10  C   UNL     1       2.153   0.823  -1.506  0.00  0.00    +0.020 A 
ATOM     11  C   UNL     1       2.179  -0.530  -1.216  0.00  0.00    +0.046 A 
ATOM     12  C   UNL     1       1.147  -1.102  -0.496  0.00  0.00    -0.010 A 
ATOM     13  C   UNL     1       0.088  -0.323  -0.067  0.00  0.00    +0.007 A 
ATOM     14 CL   UNL     1       3.508  -1.508  -1.756  0.00  0.00    -0.083 Cl
ENDBRANCH   1  12
BRANCH   7  15
ATOM     15  C   UNL     1      -0.954  -2.675  -1.496  0.00  0.00    +0.077 C 
ATOM     16  C   UNL     1      -2.298  -2.132  -1.004  0.00  0.00    +0.022 C 
ATOM     17  C   UNL     1      -3.124  -1.657  -2.200  0.00  0.00    +0.002 C 
ATOM     18  C   UNL     1      -3.366  -2.830  -3.152  0.00  0.00    +0.000 C 
ATOM     19  C   UNL     1      -2.022  -3.372  -3.644  0.00  0.00    +0.002 C 
ATOM     20  C   UNL     1      -1.195  -3.848  -2.448  0.00  0.00    +0.022 C 
ENDBRANCH   7  15
BRANCH   2  21
ATOM     21  N   UNL     1       0.866  -1.924   2.162  0.00  0.00    +0.381 N 
ATOM     22  H   UNL     1      -0.117  -2.102   2.021  0.00  0.00    -0.090 HD
ATOM     23  H   UNL     1       1.111  -2.132   3.119  0.00  0.00    -0.090 HD
ATOM     24  H   UNL     1       1.064  -0.954   1.968  0.00  0.00    -0.090 HD
ENDBRANCH   2  21
TORSDOF 3
