REMARK  Name = ZINC34976090
REMARK  7 active torsions:
REMARK  status: ('A' for Active; 'I' for Inactive)
REMARK    1  A    between atoms: C_1  and  C_2
REMARK    2  A    between atoms: C_2  and  C_3
REMARK    3  A    between atoms: C_2  and  C_4
REMARK    4  A    between atoms: C_4  and  C_5
REMARK    5  A    between atoms: C_6  and  C_12
REMARK    6  A    between atoms: C_7  and  N_11
REMARK    7  A    between atoms: N_8  and  C_10
REMARK                            x       y       z     vdW  Elec       q    Type
REMARK                         _______ _______ _______ _____ _____    ______ ____
ROOT
ATOM      1  C   UNL     1      -1.430  -1.949  -0.326  0.00  0.00    +0.044 A 
ATOM      2  C   UNL     1      -1.495  -2.997   0.613  0.00  0.00    +0.042 A 
ATOM      3  C   UNL     1      -1.578  -4.181  -0.098  0.00  0.00    +0.120 A 
ATOM      4  N   UNL     1      -1.563  -3.861  -1.412  0.00  0.00    -0.276 N 
ATOM      5  N   UNL     1      -1.476  -2.468  -1.523  0.00  0.00    -0.300 N 
ATOM      6  C   UNL     1      -1.631  -4.808  -2.527  0.00  0.00    +0.172 C 
ATOM      7  H   UNL     1      -1.453  -1.970  -2.355  0.00  0.00    +0.187 HD
ENDROOT
BRANCH   2   8
ATOM      8  C   UNL     1      -1.478  -2.857   2.090  0.00  0.00    -0.013 A 
ATOM      9  C   UNL     1      -0.333  -2.393   2.735  0.00  0.00    +0.010 A 
ATOM     10  C   UNL     1      -0.322  -2.265   4.109  0.00  0.00    +0.016 A 
ATOM     11  C   UNL     1      -1.446  -2.596   4.846  0.00  0.00    +0.018 A 
ATOM     12  C   UNL     1      -2.586  -3.057   4.210  0.00  0.00    +0.016 A 
ATOM     13  C   UNL     1      -2.609  -3.184   2.836  0.00  0.00    +0.010 A 
ATOM     14 BR   UNL     1      -1.424  -2.417   6.728  0.00  0.00    -0.050 Br
ENDBRANCH   2   8
BRANCH   3  15
ATOM     15  N   UNL     1      -1.660  -5.459   0.437  0.00  0.00    -0.343 N 
ATOM     16  H   UNL     1      -1.664  -5.583   1.399  0.00  0.00    +0.144 HD
ATOM     17  H   UNL     1      -1.715  -6.229  -0.152  0.00  0.00    +0.144 HD
ENDBRANCH   3  15
BRANCH   1  18
ATOM     18  C   UNL     1      -1.330  -0.480  -0.004  0.00  0.00    +0.058 C 
BRANCH  18  20
ATOM     19  C   UNL     1      -2.598   1.518   0.800  0.00  0.00    +0.007 C 
ATOM     20  C   UNL     1      -2.717   0.060   0.351  0.00  0.00    -0.011 C 
ATOM     21  C   UNL     1      -3.626  -0.023  -0.877  0.00  0.00    +0.007 C 
ENDBRANCH  18  20
ENDBRANCH   1  18
TORSDOF 4
