REMARK  Name = ZINC00043575
REMARK  7 active torsions:
REMARK  status: ('A' for Active; 'I' for Inactive)
REMARK    1  A    between atoms: C_1  and  C_2
REMARK    2  A    between atoms: C_2  and  O_3
REMARK    3  A    between atoms: O_3  and  C_4
REMARK    4  A    between atoms: C_7  and  C_10
REMARK    5  A    between atoms: C_14  and  O_24
REMARK    6  A    between atoms: C_19  and  N_23
REMARK    7  A    between atoms: C_20  and  C_21
REMARK                            x       y       z     vdW  Elec       q    Type
REMARK                         _______ _______ _______ _____ _____    ______ ____
ROOT
ATOM      1  C   UNL     1       1.132   3.598   0.012  0.00  0.00    +0.098 C 
ATOM      2  C   UNL     1       1.170   2.093   0.002  0.00  0.00    +0.011 A 
ATOM      3  C   UNL     1      -0.017   1.382   0.010  0.00  0.00    +0.053 A 
ATOM      4  C   UNL     1       0.002  -0.004   0.002  0.00  0.00    +0.117 A 
ATOM      5  C   UNL     1       1.214  -0.680  -0.013  0.00  0.00    +0.049 A 
ATOM      6  C   UNL     1       2.398   0.029  -0.021  0.00  0.00    +0.050 A 
ATOM      7  C   UNL     1       2.380   1.419  -0.013  0.00  0.00    +0.134 A 
ATOM      8  O   UNL     1       3.554   2.098  -0.021  0.00  0.00    -0.441 OA
ATOM      9  C   UNL     1       3.580   3.387  -0.398  0.00  0.00    +0.199 C 
ATOM     10  C   UNL     1       2.464   4.154  -0.405  0.00  0.00    +0.098 C 
ENDROOT
BRANCH   1  14
ATOM     11  C   UNL     1       0.196   4.967   3.950  0.00  0.00    +0.121 A 
ATOM     12  C   UNL     1      -0.643   5.275   2.890  0.00  0.00    +0.046 A 
ATOM     13  C   UNL     1      -0.339   4.832   1.618  0.00  0.00    +0.008 A 
ATOM     14  C   UNL     1       0.802   4.081   1.401  0.00  0.00    -0.034 A 
ATOM     15  C   UNL     1       1.637   3.767   2.457  0.00  0.00    +0.008 A 
ATOM     16  C   UNL     1       1.341   4.213   3.730  0.00  0.00    +0.046 A 
BRANCH  11  17
ATOM     17  O   UNL     1      -0.101   5.401   5.203  0.00  0.00    -0.492 OA
BRANCH  17  19
ATOM     18  C   UNL     1       0.310   5.620   7.574  0.00  0.00    +0.048 C 
ATOM     19  C   UNL     1       0.808   5.046   6.246  0.00  0.00    +0.225 C 
ENDBRANCH  17  19
ENDBRANCH  11  17
ENDBRANCH   1  14
BRANCH   9  20
ATOM     20  N   UNL     1       4.773   3.943  -0.787  0.00  0.00    -0.328 N 
ATOM     21  H   UNL     1       5.582   3.407  -0.787  0.00  0.00    +0.145 HD
ATOM     22  H   UNL     1       4.808   4.873  -1.062  0.00  0.00    +0.145 HD
ENDBRANCH   9  20
BRANCH  10  23
ATOM     23  C   UNL     1       2.556   5.522  -0.818  0.00  0.00    +0.101 C 
ATOM     24  N   UNL     1       2.628   6.607  -1.146  0.00  0.00    -0.191 NA
ENDBRANCH  10  23
BRANCH   4  25
ATOM     25  O   UNL     1      -1.166  -0.701   0.010  0.00  0.00    -0.507 OA
ATOM     26  H   UNL     1      -1.512  -0.897  -0.871  0.00  0.00    +0.292 HD
ENDBRANCH   4  25
TORSDOF 6
