REMARK  Name = ZINC28055444
REMARK  2 active torsions:
REMARK  status: ('A' for Active; 'I' for Inactive)
REMARK    1  A    between atoms: C_9  and  C_17
REMARK    2  A    between atoms: C_24  and  C_27
REMARK                            x       y       z     vdW  Elec       q    Type
REMARK                         _______ _______ _______ _____ _____    ______ ____
ROOT
ATOM      1  C   UNL     1      -0.013   1.076   0.008  0.00  0.00    +0.001 A 
ATOM      2  C   UNL     1      -1.222   1.748   0.017  0.00  0.00    +0.004 A 
ATOM      3  C   UNL     1      -1.258   3.131   0.030  0.00  0.00    +0.046 A 
ATOM      4  C   UNL     1      -0.076   3.848   0.021  0.00  0.00    +0.131 A 
ATOM      5  C   UNL     1       1.150   3.168   0.008  0.00  0.00    +0.038 A 
ATOM      6  C   UNL     1       1.177   1.780   0.000  0.00  0.00    +0.013 A 
ATOM      7  C   UNL     1       2.397   3.969   0.005  0.00  0.00    +0.050 C 
ATOM      8  C   UNL     1       2.324   5.259  -0.331  0.00  0.00    +0.026 C 
ATOM      9  C   UNL     1       3.537   6.156  -0.361  0.00  0.00    +0.174 C 
ATOM     10  N   UNL     1       4.659   5.503   0.298  0.00  0.00    -0.201 N 
ATOM     11  C   UNL     1       4.684   4.185   0.625  0.00  0.00    +0.240 A 
ATOM     12  N   UNL     1       5.834   3.944   1.185  0.00  0.00    -0.092 NA
ATOM     13  N   UNL     1       6.537   5.023   1.241  0.00  0.00    -0.021 NA
ATOM     14  N   UNL     1       5.886   6.013   0.721  0.00  0.00    -0.042 NA
ATOM     15  N   UNL     1       3.605   3.356   0.359  0.00  0.00    -0.282 N 
ATOM     16  C   UNL     1       0.982   5.848  -0.701  0.00  0.00    +0.241 C 
ATOM     17  O   UNL     1      -0.067   5.205   0.024  0.00  0.00    -0.479 OA
ATOM     18  H   UNL     1       3.670   2.260   0.417  0.00  0.00    +0.155 HD
ENDROOT
BRANCH   9  19
ATOM     19  C   UNL     1       3.902   6.455  -1.792  0.00  0.00    -0.019 A 
ATOM     20  C   UNL     1       4.232   5.423  -2.650  0.00  0.00    +0.009 A 
ATOM     21  C   UNL     1       4.561   5.695  -3.965  0.00  0.00    +0.039 A 
ATOM     22  C   UNL     1       4.572   7.003  -4.418  0.00  0.00    +0.123 A 
ATOM     23  C   UNL     1       4.247   8.036  -3.556  0.00  0.00    +0.039 A 
ATOM     24  C   UNL     1       3.912   7.761  -2.244  0.00  0.00    +0.009 A 
ATOM     25  F   UNL     1       4.900   7.271  -5.701  0.00  0.00    -0.205 F 
ENDBRANCH   9  19
BRANCH  16  26
ATOM     26  C   UNL     1       0.749   5.665  -2.179  0.00  0.00    +0.034 A 
ATOM     27  C   UNL     1       1.013   6.521  -3.196  0.00  0.00    +0.015 A 
ATOM     28  C   UNL     1       0.713   6.137  -4.490  0.00  0.00    +0.008 A 
ATOM     29  C   UNL     1       0.165   4.915  -4.702  0.00  0.00    +0.045 A 
ATOM     30  S   UNL     1       0.062   4.263  -3.043  0.00  0.00    -0.098 S 
ENDBRANCH  16  26
TORSDOF 2
