REMARK  Name = ZINC12572362
REMARK  3 active torsions:
REMARK  status: ('A' for Active; 'I' for Inactive)
REMARK    1  A    between atoms: N_9  and  S_10
REMARK    2  A    between atoms: S_10  and  C_13
REMARK    3  A    between atoms: C_16  and  N_19
REMARK                            x       y       z     vdW  Elec       q    Type
REMARK                         _______ _______ _______ _____ _____    ______ ____
ROOT
ATOM      1  C   UNL     1       5.602  -0.226   1.629  0.00  0.00    +0.109 A 
ATOM      2  C   UNL     1       5.450   0.978   2.295  0.00  0.00    +0.031 A 
ATOM      3  C   UNL     1       5.850   1.099   3.609  0.00  0.00    +0.029 A 
ATOM      4  C   UNL     1       6.412  -0.001   4.269  0.00  0.00    +0.065 A 
ATOM      5  C   UNL     1       6.562  -1.216   3.587  0.00  0.00    +0.029 A 
ATOM      6  C   UNL     1       6.151  -1.320   2.276  0.00  0.00    +0.031 A 
ENDROOT
BRANCH   4   7
ATOM      7  N   UNL     1       6.810   0.109   5.565  0.00  0.00    -0.242 NA
ATOM      8  C   UNL     1       6.507  -0.832   6.426  0.00  0.00    +0.135 C 
ATOM      9  C   UNL     1       6.846  -0.880   7.865  0.00  0.00    +0.027 A 
ATOM     10  C   UNL     1       7.540  -0.018   8.709  0.00  0.00    +0.012 A 
ATOM     11  C   UNL     1       7.698  -0.344  10.041  0.00  0.00    +0.001 A 
ATOM     12  C   UNL     1       7.168  -1.524  10.534  0.00  0.00    +0.002 A 
ATOM     13  C   UNL     1       6.478  -2.387   9.704  0.00  0.00    +0.024 A 
ATOM     14  C   UNL     1       6.308  -2.076   8.360  0.00  0.00    +0.043 A 
ATOM     15  N   UNL     1       5.668  -2.757   7.330  0.00  0.00    -0.280 N 
ATOM     16  C   UNL     1       5.743  -2.079   6.172  0.00  0.00    +0.267 C 
ATOM     17  O   UNL     1       5.272  -2.427   5.106  0.00  0.00    -0.268 OA
ATOM     18  H   UNL     1       5.220  -3.611   7.435  0.00  0.00    +0.155 HD
ENDBRANCH   4   7
BRANCH   1  19
ATOM     19  S   UNL     1       5.086  -0.369  -0.050  0.00  0.00    +0.075 S 
ATOM     20  O   UNL     1       5.830  -1.440  -0.613  0.00  0.00    -0.150 OA
ATOM     21  O   UNL     1       5.108   0.944  -0.595  0.00  0.00    -0.150 OA
BRANCH  19  30
ATOM     22  C   UNL     1      -0.017   1.378   0.010  0.00  0.00    +0.000 A 
ATOM     23  C   UNL     1       1.174   2.082   0.002  0.00  0.00    +0.002 A 
ATOM     24  C   UNL     1       2.377   1.411  -0.013  0.00  0.00    +0.025 A 
ATOM     25  C   UNL     1       2.405   0.014  -0.021  0.00  0.00    +0.054 A 
ATOM     26  C   UNL     1       1.206  -0.682  -0.013  0.00  0.00    -0.023 A 
ATOM     27  C   UNL     1       0.002  -0.004   0.002  0.00  0.00    +0.005 A 
ATOM     28  C   UNL     1       1.510  -2.163  -0.023  0.00  0.00    +0.058 C 
ATOM     29  C   UNL     1       3.046  -2.241  -0.038  0.00  0.00    +0.136 C 
ATOM     30  N   UNL     1       3.501  -0.849  -0.036  0.00  0.00    -0.202 N 
ENDBRANCH  19  30
ENDBRANCH   1  19
TORSDOF 3
