REMARK  Name = ZINC63628386
REMARK  6 active torsions:
REMARK  status: ('A' for Active; 'I' for Inactive)
REMARK    1  A    between atoms: C_1  and  C_2
REMARK    2  A    between atoms: C_2  and  C_3
REMARK    3  A    between atoms: C_6  and  C_9
REMARK    4  A    between atoms: C_11  and  C_15
REMARK    5  A    between atoms: N_20  and  C_23
REMARK    6  A    between atoms: N_29  and  C_31
REMARK                            x       y       z     vdW  Elec       q    Type
REMARK                         _______ _______ _______ _____ _____    ______ ____
ROOT
ATOM      1  C   UNL     1      -6.428  -4.837  -1.072  0.00  0.00    +0.246 C 
ATOM      2  O   UNL     1      -6.224  -5.838  -0.418  0.00  0.00    -0.273 OA
ATOM      3  N   UNL     1      -7.137  -4.912  -2.216  0.00  0.00    -0.297 N 
ATOM      4  C   UNL     1      -7.391  -3.712  -3.027  0.00  0.00    +0.123 C 
ATOM      5  C   UNL     1      -6.985  -4.008  -4.475  0.00  0.00    +0.105 C 
ATOM      6  N   UNL     1      -7.670  -5.224  -4.933  0.00  0.00    -0.280 NA
ATOM      7  C   UNL     1      -7.260  -6.395  -4.147  0.00  0.00    +0.105 C 
ATOM      8  C   UNL     1      -7.672  -6.198  -2.689  0.00  0.00    +0.123 C 
ENDROOT
BRANCH   6   9
ATOM      9  C   UNL     1      -7.443  -5.447  -6.367  0.00  0.00    +0.166 C 
ATOM     10  C   UNL     1      -8.254  -6.633  -6.824  0.00  0.00    +0.014 C 
ATOM     11  C   UNL     1      -8.616  -6.707  -8.108  0.00  0.00    +0.068 C 
ATOM     12  C   UNL     1      -8.196  -5.612  -9.005  0.00  0.00    +0.257 C 
ATOM     13  O   UNL     1      -8.201  -5.764 -10.211  0.00  0.00    -0.269 OA
ATOM     14  N   UNL     1      -7.807  -4.441  -8.462  0.00  0.00    -0.200 N 
ATOM     15  N   UNL     1      -7.843  -4.251  -7.114  0.00  0.00    -0.212 NA
ATOM     16  H   UNL     1      -8.751  -3.926  -6.818  0.00  0.00    +0.147 HD
BRANCH  14  17
ATOM     17  C   UNL     1      -7.363  -3.408  -9.295  0.00  0.00    +0.053 A 
ATOM     18  C   UNL     1      -6.425  -3.667 -10.285  0.00  0.00    +0.026 A 
ATOM     19  C   UNL     1      -5.989  -2.646 -11.106  0.00  0.00    +0.022 A 
ATOM     20  C   UNL     1      -6.486  -1.365 -10.943  0.00  0.00    +0.041 A 
ATOM     21  C   UNL     1      -7.421  -1.103  -9.956  0.00  0.00    +0.022 A 
ATOM     22  C   UNL     1      -7.865  -2.122  -9.136  0.00  0.00    +0.026 A 
ATOM     23 CL   UNL     1      -5.936  -0.083 -11.976  0.00  0.00    -0.084 Cl
ENDBRANCH  14  17
ENDBRANCH   6   9
BRANCH   1  26
ATOM     24  C   UNL     1      -3.684  -3.079  -0.385  0.00  0.00    +0.092 C 
ATOM     25  C   UNL     1      -4.617  -3.154  -1.353  0.00  0.00    +0.040 C 
ATOM     26  C   UNL     1      -5.890  -3.509  -0.605  0.00  0.00    +0.238 C 
ATOM     27  N   UNL     1      -5.444  -3.588   0.796  0.00  0.00    -0.170 NA
ATOM     28  N   UNL     1      -4.236  -3.348   0.827  0.00  0.00    -0.153 NA
BRANCH  24  32
ATOM     29  C   UNL     1       0.416  -2.153  -1.032  0.00  0.00    -0.048 A 
ATOM     30  C   UNL     1      -0.039  -2.409   0.249  0.00  0.00    +0.004 A 
ATOM     31  C   UNL     1      -1.368  -2.710   0.465  0.00  0.00    +0.010 A 
ATOM     32  C   UNL     1      -2.253  -2.756  -0.611  0.00  0.00    +0.002 A 
ATOM     33  C   UNL     1      -1.790  -2.497  -1.899  0.00  0.00    +0.010 A 
ATOM     34  C   UNL     1      -0.459  -2.192  -2.103  0.00  0.00    +0.004 A 
BRANCH  29  36
ATOM     35  C   UNL     1       2.072  -0.312  -1.155  0.00  0.00    +0.009 C 
ATOM     36  C   UNL     1       1.869  -1.824  -1.262  0.00  0.00    +0.032 C 
ENDBRANCH  29  36
ENDBRANCH  24  32
ENDBRANCH   1  26
TORSDOF 5
