REMARK  Name = ZINC64252865
REMARK  7 active torsions:
REMARK  status: ('A' for Active; 'I' for Inactive)
REMARK    1  A    between atoms: C_1  and  C_2
REMARK    2  A    between atoms: C_2  and  C_3
REMARK    3  A    between atoms: C_2  and  C_4
REMARK    4  A    between atoms: C_2  and  N_5
REMARK    5  A    between atoms: N_14  and  C_15
REMARK    6  A    between atoms: N_18  and  C_20
REMARK    7  A    between atoms: C_20  and  C_21
REMARK                            x       y       z     vdW  Elec       q    Type
REMARK                         _______ _______ _______ _____ _____    ______ ____
ROOT
ATOM      1  N   UNL     1       0.608  -0.120  -1.127  0.00  0.00    +0.384 N 
ATOM      2  C   UNL     1       0.386  -1.536  -1.412  0.00  0.00    -0.076 C 
ATOM      3  C   UNL     1       0.306  -1.738  -2.909  0.00  0.00    +0.000 C 
ATOM      4  C   UNL     1       1.698  -2.106  -3.452  0.00  0.00    +0.107 C 
ATOM      5  N   UNL     1       2.754  -1.318  -2.785  0.00  0.00    -0.287 N 
ATOM      6  C   UNL     1       2.602   0.093  -2.495  0.00  0.00    +0.091 C 
ATOM      7  C   UNL     1       1.963   0.276  -1.100  0.00  0.00    -0.059 C 
ATOM      8  C   UNL     1       3.900  -1.934  -2.433  0.00  0.00    +0.302 C 
ATOM      9  O   UNL     1       4.015  -3.135  -2.581  0.00  0.00    -0.253 OA
ATOM     10  N   UNL     1       4.918  -1.218  -1.916  0.00  0.00    -0.295 N 
ATOM     11  H   UNL     1       4.803  -0.273  -1.734  0.00  0.00    +0.151 HD
ATOM     12  H   UNL     1       0.131   0.422  -1.832  0.00  0.00    -0.081 HD
ENDROOT
BRANCH  10  13
ATOM     13  C   UNL     1       6.199  -1.869  -1.629  0.00  0.00    +0.090 C 
ATOM     14  C   UNL     1       7.152  -1.768  -2.849  0.00  0.00    +0.039 C 
ATOM     15  C   UNL     1       8.541  -1.855  -2.170  0.00  0.00    +0.086 C 
ATOM     16  N   UNL     1       8.389  -1.107  -0.903  0.00  0.00    -0.293 NA
ATOM     17  C   UNL     1       6.964  -1.106  -0.527  0.00  0.00    +0.107 C 
BRANCH  16  18
ATOM     18  C   UNL     1       9.214  -1.699   0.159  0.00  0.00    +0.198 C 
BRANCH  18  19
ATOM     19  C   UNL     1      10.693  -1.445  -0.142  0.00  0.00    +0.402 C 
ATOM     20  F   UNL     1      10.926  -0.067  -0.201  0.00  0.00    -0.169 F 
ATOM     21  F   UNL     1      11.478  -2.008   0.870  0.00  0.00    -0.169 F 
ATOM     22  F   UNL     1      11.025  -2.027  -1.370  0.00  0.00    -0.169 F 
ENDBRANCH  18  19
ENDBRANCH  16  18
ENDBRANCH  10  13
BRANCH   1  24
ATOM     23  C   UNL     1       0.253   1.661   0.515  0.00  0.00    -0.010 C 
ATOM     24  C   UNL     1       0.008   0.189   0.178  0.00  0.00    -0.074 C 
ATOM     25  C   UNL     1       0.644  -0.694   1.254  0.00  0.00    -0.010 C 
ATOM     26  C   UNL     1      -1.498  -0.078   0.123  0.00  0.00    -0.010 C 
ENDBRANCH   1  24
TORSDOF 4
