REMARK  Name = ZINC13081327
REMARK  11 active torsions:
REMARK  status: ('A' for Active; 'I' for Inactive)
REMARK    1  A    between atoms: C_1  and  C_2
REMARK    2  A    between atoms: C_5  and  N_8
REMARK    3  A    between atoms: C_9  and  C_11
REMARK    4  A    between atoms: C_11  and  S_12
REMARK    5  A    between atoms: S_12  and  C_13
REMARK    6  A    between atoms: C_14  and  C_36
REMARK    7  A    between atoms: C_15  and  C_31
REMARK    8  A    between atoms: C_17  and  C_21
REMARK    9  A    between atoms: C_18  and  C_20
REMARK   10  A    between atoms: N_23  and  C_24
REMARK   11  A    between atoms: C_29  and  C_30
REMARK                            x       y       z     vdW  Elec       q    Type
REMARK                         _______ _______ _______ _____ _____    ______ ____
ROOT
ATOM      1  C   UNL     1       3.553   3.268   0.406  0.00  0.00    +0.080 C 
ATOM      2  C   UNL     1       2.353   3.838   0.696  0.00  0.00    +0.072 C 
ATOM      3  C   UNL     1       1.061   3.151   0.353  0.00  0.00    +0.134 C 
ATOM      4  C   UNL     1       1.291   1.698   0.056  0.00  0.00    +0.047 C 
ATOM      5  C   UNL     1       2.517   1.215  -0.202  0.00  0.00    +0.015 C 
ATOM      6  N   UNL     1       3.612   2.036  -0.206  0.00  0.00    -0.312 N 
ATOM      7  C   UNL     1       2.689  -0.253  -0.497  0.00  0.00    +0.061 C 
ATOM      8  H   UNL     1       4.540   1.710  -0.699  0.00  0.00    +0.152 HD
ENDROOT
BRANCH   3   9
ATOM      9  C   UNL     1       0.111   3.276   1.516  0.00  0.00    +0.118 A 
ATOM     10  C   UNL     1      -1.124   3.808   1.470  0.00  0.00    +0.045 A 
ATOM     11  C   UNL     1      -1.656   3.721   2.777  0.00  0.00    +0.041 A 
ATOM     12  C   UNL     1      -0.715   3.141   3.543  0.00  0.00    +0.195 A 
ATOM     13  O   UNL     1       0.351   2.868   2.773  0.00  0.00    -0.467 OA
ENDBRANCH   3   9
BRANCH   4  14
ATOM     14  C   UNL     1       0.187   0.812   0.053  0.00  0.00    +0.247 C 
ATOM     15  O   UNL     1      -0.586   0.805  -0.888  0.00  0.00    -0.270 OA
ATOM     16  N   UNL     1      -0.012  -0.021   1.094  0.00  0.00    -0.281 N 
ATOM     17  H   UNL     1       0.629   0.050   1.985  0.00  0.00    +0.155 HD
BRANCH  16  18
ATOM     18  C   UNL     1      -1.034  -0.974   1.042  0.00  0.00    +0.037 A 
ATOM     19  C   UNL     1      -1.565  -1.360  -0.183  0.00  0.00    +0.023 A 
ATOM     20  C   UNL     1      -2.570  -2.304  -0.231  0.00  0.00    +0.002 A 
ATOM     21  C   UNL     1      -3.057  -2.859   0.939  0.00  0.00    +0.000 A 
ATOM     22  C   UNL     1      -2.536  -2.473   2.160  0.00  0.00    +0.005 A 
ATOM     23  C   UNL     1      -1.526  -1.532   2.215  0.00  0.00    -0.029 A 
ATOM     24  C   UNL     1      -0.957  -1.112   3.546  0.00  0.00    +0.045 C 
ENDBRANCH  16  18
ENDBRANCH   4  14
BRANCH   2  25
ATOM     25  C   UNL     1       2.319   5.116   1.340  0.00  0.00    +0.098 C 
ATOM     26  N   UNL     1       2.293   6.130   1.851  0.00  0.00    -0.191 NA
ENDBRANCH   2  25
BRANCH   1  27
ATOM     27  S   UNL     1       5.044   4.113   0.816  0.00  0.00    -0.100 S 
BRANCH  27  28
ATOM     28  C   UNL     1       6.260   2.915   0.214  0.00  0.00    +0.171 C 
BRANCH  28  30
ATOM     29  N   UNL     1       8.722   2.711   0.098  0.00  0.00    -0.285 N 
ATOM     30  C   UNL     1       7.650   3.440   0.466  0.00  0.00    +0.227 C 
ATOM     31  O   UNL     1       7.803   4.518   1.000  0.00  0.00    -0.275 OA
ATOM     32  H   UNL     1       8.585   1.775  -0.462  0.00  0.00    +0.155 HD
BRANCH  29  37
ATOM     33  C   UNL     1      13.944   4.474   1.442  0.00  0.00    +0.044 C 
ATOM     34  C   UNL     1      12.557   4.005   1.085  0.00  0.00    -0.050 A 
ATOM     35  C   UNL     1      11.502   4.256   1.944  0.00  0.00    +0.005 A 
ATOM     36  C   UNL     1      10.230   3.828   1.619  0.00  0.00    +0.023 A 
ATOM     37  C   UNL     1      10.010   3.146   0.430  0.00  0.00    +0.033 A 
ATOM     38  C   UNL     1      11.073   2.891  -0.427  0.00  0.00    +0.023 A 
ATOM     39  C   UNL     1      12.342   3.327  -0.100  0.00  0.00    +0.005 A 
ENDBRANCH  29  37
ENDBRANCH  28  30
ENDBRANCH  27  28
ENDBRANCH   1  27
TORSDOF 8
