REMARK  Name = ZINC04789020
REMARK  9 active torsions:
REMARK  status: ('A' for Active; 'I' for Inactive)
REMARK    1  A    between atoms: C_1  and  C_2
REMARK    2  A    between atoms: C_5  and  C_8
REMARK    3  A    between atoms: C_8  and  N_9
REMARK    4  A    between atoms: C_10  and  C_12
REMARK    5  A    between atoms: N_14  and  C_27
REMARK    6  A    between atoms: N_25  and  C_26
REMARK    7  A    between atoms: C_27  and  C_28
REMARK    8  A    between atoms: C_28  and  C_29
REMARK    9  A    between atoms: C_28  and  C_30
REMARK                            x       y       z     vdW  Elec       q    Type
REMARK                         _______ _______ _______ _____ _____    ______ ____
ROOT
ATOM      1  C   UNL     1       1.259   5.879   3.033  0.00  0.00    +0.063 A 
ATOM      2  C   UNL     1       1.245   7.218   3.310  0.00  0.00    +0.103 A 
ATOM      3  N   UNL     1       1.353   7.663   4.584  0.00  0.00    -0.313 N 
ATOM      4  C   UNL     1       1.477   6.830   5.630  0.00  0.00    +0.276 A 
ATOM      5  O   UNL     1       1.571   7.287   6.757  0.00  0.00    -0.265 OA
ATOM      6  C   UNL     1       1.502   5.430   5.441  0.00  0.00    +0.116 A 
ATOM      7  C   UNL     1       1.387   4.931   4.146  0.00  0.00    +0.026 A 
ATOM      8  C   UNL     1       1.447   3.471   4.247  0.00  0.00    +0.009 A 
ATOM      9  C   UNL     1       1.388   2.434   3.314  0.00  0.00    +0.010 A 
ATOM     10  C   UNL     1       1.468   1.136   3.731  0.00  0.00    +0.001 A 
ATOM     11  C   UNL     1       1.605   0.838   5.080  0.00  0.00    +0.002 A 
ATOM     12  C   UNL     1       1.664   1.843   6.018  0.00  0.00    +0.026 A 
ATOM     13  C   UNL     1       1.586   3.175   5.615  0.00  0.00    +0.050 A 
ATOM     14  N   UNL     1       1.616   4.363   6.312  0.00  0.00    -0.339 N 
ATOM     15  C   UNL     1       1.752   4.479   7.766  0.00  0.00    +0.149 C 
ENDROOT
BRANCH   1  17
ATOM     16  N   UNL     1       1.154   6.276   0.625  0.00  0.00    -0.307 N 
ATOM     17  C   UNL     1       1.141   5.397   1.647  0.00  0.00    +0.246 C 
ATOM     18  O   UNL     1       1.033   4.207   1.424  0.00  0.00    -0.270 OA
ATOM     19  H   UNL     1       1.166   7.229   0.805  0.00  0.00    +0.149 HD
BRANCH  16  20
ATOM     20  C   UNL     1       1.149   5.792  -0.758  0.00  0.00    +0.139 C 
BRANCH  20  25
ATOM     21  C   UNL     1       1.211  10.295  -4.378  0.00  0.00    +0.044 C 
ATOM     22  C   UNL     1       1.194   9.121  -3.434  0.00  0.00    -0.050 A 
ATOM     23  C   UNL     1       2.384   8.567  -2.999  0.00  0.00    +0.003 A 
ATOM     24  C   UNL     1       2.369   7.490  -2.133  0.00  0.00    +0.005 A 
ATOM     25  C   UNL     1       1.165   6.966  -1.702  0.00  0.00    -0.030 A 
ATOM     26  C   UNL     1      -0.025   7.520  -2.136  0.00  0.00    +0.005 A 
ATOM     27  C   UNL     1      -0.010   8.597  -3.002  0.00  0.00    +0.003 A 
ENDBRANCH  20  25
ENDBRANCH  16  20
ENDBRANCH   1  17
BRANCH   3  28
ATOM     28  C   UNL     1       1.333   9.107   4.831  0.00  0.00    +0.128 C 
BRANCH  28  29
ATOM     29  C   UNL     1      -0.109   9.567   5.053  0.00  0.00    +0.003 C 
ATOM     30  C   UNL     1      -0.656   8.931   6.332  0.00  0.00    +0.009 C 
ATOM     31  C   UNL     1      -0.144  11.091   5.187  0.00  0.00    +0.009 C 
ENDBRANCH  28  29
ENDBRANCH   3  28
TORSDOF 5
