REMARK  Name = ZINC39637286
REMARK  6 active torsions:
REMARK  status: ('A' for Active; 'I' for Inactive)
REMARK    1  A    between atoms: C_1  and  C_2
REMARK    2  A    between atoms: C_7  and  N_12
REMARK    3  A    between atoms: C_9  and  C_11
REMARK    4  A    between atoms: C_13  and  C_15
REMARK    5  A    between atoms: C_26  and  C_28
REMARK    6  A    between atoms: C_28  and  C_34
REMARK                            x       y       z     vdW  Elec       q    Type
REMARK                         _______ _______ _______ _____ _____    ______ ____
ROOT
ATOM      1  C   UNL     1      -2.303  -4.324   1.717  0.00  0.00    +0.100 C 
ATOM      2  C   UNL     1      -3.157  -3.507   2.712  0.00  0.00    +0.121 C 
ATOM      3  N   UNL     1      -4.053  -4.505   3.343  0.00  0.00    -0.300 N 
ATOM      4  C   UNL     1      -3.197  -5.700   3.534  0.00  0.00    +0.115 C 
ATOM      5  C   UNL     1      -2.331  -5.763   2.260  0.00  0.00    -0.004 C 
ATOM      6  C   UNL     1      -0.919  -6.225   2.606  0.00  0.00    -0.010 C 
ATOM      7  C   UNL     1      -0.965  -7.677   3.089  0.00  0.00    -0.082 C 
ATOM      8  N   UNL     1      -1.536  -8.527   2.037  0.00  0.00    +0.379 N 
ATOM      9  C   UNL     1      -2.926  -8.135   1.776  0.00  0.00    -0.082 C 
ATOM     10  C   UNL     1      -2.963  -6.702   1.238  0.00  0.00    -0.010 C 
ATOM     11  C   UNL     1      -5.352  -4.358   3.670  0.00  0.00    +0.222 C 
ATOM     12  O   UNL     1      -5.934  -5.246   4.257  0.00  0.00    -0.275 OA
ATOM     13  H   UNL     1      -0.995  -8.422   1.192  0.00  0.00    -0.086 HD
ATOM     14  H   UNL     1      -1.509  -9.491   2.333  0.00  0.00    -0.086 HD
ENDROOT
BRANCH  11  15
ATOM     15  C   UNL     1      -6.083  -3.092   3.305  0.00  0.00    +0.044 C 
ATOM     16  C   UNL     1      -5.334  -1.887   3.879  0.00  0.00    +0.016 C 
ATOM     17  C   UNL     1      -5.258  -2.012   5.402  0.00  0.00    +0.001 C 
ATOM     18  C   UNL     1      -6.674  -2.055   5.981  0.00  0.00    +0.000 C 
ATOM     19  C   UNL     1      -7.423  -3.260   5.407  0.00  0.00    +0.001 C 
ATOM     20  C   UNL     1      -7.499  -3.135   3.884  0.00  0.00    +0.016 C 
ATOM     21  C   UNL     1      -6.158  -2.967   1.782  0.00  0.00    +0.021 C 
ENDBRANCH  11  15
BRANCH   1  23
ATOM     22  N   UNL     1      -0.100  -4.057   0.625  0.00  0.00    -0.312 N 
ATOM     23  C   UNL     1      -0.890  -3.802   1.687  0.00  0.00    +0.218 C 
ATOM     24  O   UNL     1      -0.463  -3.153   2.618  0.00  0.00    -0.275 OA
ATOM     25  H   UNL     1      -0.441  -4.576  -0.120  0.00  0.00    +0.149 HD
BRANCH  22  31
ATOM     26  C   UNL     1       2.141  -4.631  -2.997  0.00  0.00    +0.008 C 
ATOM     27  C   UNL     1       1.680  -4.773  -1.545  0.00  0.00    -0.009 C 
ATOM     28  C   UNL     1       2.601  -5.750  -0.811  0.00  0.00    +0.003 C 
ATOM     29  C   UNL     1       2.141  -5.892   0.641  0.00  0.00    +0.002 C 
ATOM     30  C   UNL     1       2.195  -4.526   1.329  0.00  0.00    +0.022 C 
ATOM     31  C   UNL     1       1.274  -3.549   0.595  0.00  0.00    +0.076 C 
ATOM     32  C   UNL     1       1.734  -3.407  -0.857  0.00  0.00    +0.009 C 
ATOM     33  C   UNL     1       0.814  -2.430  -1.591  0.00  0.00    +0.009 C 
ENDBRANCH  22  31
ENDBRANCH   1  23
TORSDOF 3
