REMARK  Name = ZINC39413349
REMARK  11 active torsions:
REMARK  status: ('A' for Active; 'I' for Inactive)
REMARK    1  A    between atoms: C_1  and  N_2
REMARK    2  A    between atoms: N_2  and  C_3
REMARK    3  A    between atoms: N_2  and  C_4
REMARK    4  A    between atoms: C_4  and  C_5
REMARK    5  A    between atoms: C_5  and  N_6
REMARK    6  A    between atoms: C_10  and  C_13
REMARK    7  A    between atoms: C_10  and  C_29
REMARK    8  A    between atoms: C_13  and  C_14
REMARK    9  A    between atoms: N_16  and  C_17
REMARK   10  A    between atoms: N_16  and  C_18
REMARK   11  A    between atoms: C_18  and  C_19
REMARK                            x       y       z     vdW  Elec       q    Type
REMARK                         _______ _______ _______ _____ _____    ______ ____
ROOT
ATOM      1  N   UNL     1      -3.505  -0.397  -1.370  0.00  0.00    -0.243 N 
ATOM      2  C   UNL     1      -3.723  -1.643  -1.806  0.00  0.00    +0.223 C 
ATOM      3  O   UNL     1      -2.889  -2.368  -2.306  0.00  0.00    -0.275 OA
ATOM      4  C   UNL     1      -5.174  -2.005  -1.576  0.00  0.00    +0.117 C 
ATOM      5  C   UNL     1      -5.763  -0.737  -0.924  0.00  0.00    +0.090 C 
ATOM      6  C   UNL     1      -4.581   0.205  -0.850  0.00  0.00    +0.233 C 
ATOM      7  O   UNL     1      -4.606   1.328  -0.394  0.00  0.00    -0.274 OA
ENDROOT
BRANCH   5   8
ATOM      8  C   UNL     1      -6.280  -1.042   0.458  0.00  0.00    -0.013 A 
ATOM      9  C   UNL     1      -5.746  -0.392   1.555  0.00  0.00    +0.006 A 
ATOM     10  C   UNL     1      -6.220  -0.672   2.823  0.00  0.00    +0.000 A 
ATOM     11  C   UNL     1      -7.228  -1.602   2.995  0.00  0.00    +0.001 A 
ATOM     12  C   UNL     1      -7.763  -2.253   1.899  0.00  0.00    +0.020 A 
ATOM     13  C   UNL     1      -7.293  -1.969   0.629  0.00  0.00    +0.045 A 
ATOM     14 CL   UNL     1      -7.968  -2.781  -0.749  0.00  0.00    -0.083 Cl
ENDBRANCH   5   8
BRANCH   1  15
ATOM     15  C   UNL     1      -2.194   0.254  -1.451  0.00  0.00    +0.098 C 
BRANCH  15  16
ATOM     16  C   UNL     1      -1.400  -0.041  -0.176  0.00  0.00    -0.060 C 
BRANCH  16  18
ATOM     17  C   UNL     1      -0.263   2.069  -0.276  0.00  0.00    -0.097 C 
ATOM     18  N   UNL     1      -0.086   0.611  -0.257  0.00  0.00    +0.377 N 
ATOM     19  C   UNL     1       0.721   0.231   0.910  0.00  0.00    -0.097 C 
ATOM     20  H   UNL     1       0.384   0.318  -1.101  0.00  0.00    -0.083 HD
ENDBRANCH  16  18
ENDBRANCH  15  16
ENDBRANCH   1  15
BRANCH   5  21
ATOM     21  C   UNL     1      -6.873  -0.149  -1.798  0.00  0.00    +0.117 C 
BRANCH  21  22
ATOM     22  C   UNL     1      -7.519   1.007  -1.079  0.00  0.00    +0.217 C 
ATOM     23  O   UNL     1      -7.065   1.394  -0.023  0.00  0.00    -0.276 OA
ATOM     24  N   UNL     1      -8.601   1.611  -1.609  0.00  0.00    -0.302 N 
ATOM     25  C   UNL     1      -9.150   1.143  -2.884  0.00  0.00    +0.132 C 
BRANCH  24  26
ATOM     26  C   UNL     1      -9.230   2.734  -0.909  0.00  0.00    +0.140 C 
BRANCH  26  27
ATOM     27  C   UNL     1      -8.590   4.045  -1.372  0.00  0.00    +0.173 C 
ATOM     28  C   UNL     1      -9.082   5.202  -0.541  0.00  0.00    -0.019 C 
ATOM     29  C   UNL     1      -7.987   5.689   0.052  0.00  0.00    +0.065 C 
ATOM     30  C   UNL     1      -8.018   6.875   0.991  0.00  0.00    +0.057 C 
ATOM     31  C   UNL     1      -9.338   7.626   0.785  0.00  0.00    +0.006 C 
ATOM     32  C   UNL     1     -10.508   6.641   0.856  0.00  0.00    +0.005 C 
ATOM     33  C   UNL     1     -10.477   5.730  -0.380  0.00  0.00    +0.035 C 
ATOM     34  N   UNL     1      -6.903   4.971  -0.316  0.00  0.00    -0.158 NA
ATOM     35  N   UNL     1      -7.139   4.043  -1.103  0.00  0.00    -0.178 NA
ENDBRANCH  26  27
ENDBRANCH  24  26
ENDBRANCH  21  22
ENDBRANCH   5  21
TORSDOF 8
