REMARK  Name = ZINC11440524
REMARK  11 active torsions:
REMARK  status: ('A' for Active; 'I' for Inactive)
REMARK    1  A    between atoms: C_1  and  C_2
REMARK    2  A    between atoms: C_2  and  C_4
REMARK    3  A    between atoms: C_2  and  O_17
REMARK    4  A    between atoms: N_6  and  C_7
REMARK    5  A    between atoms: C_10  and  S_13
REMARK    6  A    between atoms: S_13  and  N_16
REMARK    7  A    between atoms: O_17  and  C_18
REMARK    8  A    between atoms: C_18  and  C_20
REMARK    9  A    between atoms: C_20  and  C_21
REMARK   10  A    between atoms: C_21  and  N_22
REMARK   11  A    between atoms: N_25  and  C_26
REMARK                            x       y       z     vdW  Elec       q    Type
REMARK                         _______ _______ _______ _____ _____    ______ ____
ROOT
ATOM      1  C   UNL     1       4.020  -5.931   0.255  0.00  0.00    +0.309 C 
ATOM      2  O   UNL     1       3.097  -6.585   0.679  0.00  0.00    -0.251 OA
ENDROOT
BRANCH   1   3
ATOM      3  O   UNL     1       3.798  -4.708  -0.253  0.00  0.00    -0.452 OA
BRANCH   3   5
ATOM      4  C   UNL     1       1.751  -4.648  -1.570  0.00  0.00    +0.062 C 
ATOM      5  C   UNL     1       2.425  -4.236  -0.260  0.00  0.00    +0.259 C 
BRANCH   5   6
ATOM      6  C   UNL     1       2.410  -2.734  -0.138  0.00  0.00    +0.258 C 
ATOM      7  O   UNL     1       3.452  -2.114  -0.144  0.00  0.00    -0.271 OA
ATOM      8  N   UNL     1       1.237  -2.079  -0.021  0.00  0.00    -0.282 N 
ATOM      9  H   UNL     1       0.409  -2.578   0.061  0.00  0.00    +0.155 HD
BRANCH   8  10
ATOM     10  C   UNL     1       1.214  -0.680  -0.019  0.00  0.00    +0.034 A 
ATOM     11  C   UNL     1       2.137   0.032  -0.773  0.00  0.00    +0.025 A 
ATOM     12  C   UNL     1       2.112   1.413  -0.768  0.00  0.00    +0.030 A 
ATOM     13  C   UNL     1       1.169   2.086  -0.014  0.00  0.00    +0.105 A 
ATOM     14  C   UNL     1       0.249   1.380   0.739  0.00  0.00    +0.030 A 
ATOM     15  C   UNL     1       0.269  -0.001   0.738  0.00  0.00    +0.025 A 
BRANCH  13  16
ATOM     16  S   UNL     1       1.141   3.848  -0.010  0.00  0.00    +0.056 S 
ATOM     17  O   UNL     1       0.513   4.241   1.202  0.00  0.00    -0.153 OA
ATOM     18  O   UNL     1       2.449   4.276  -0.363  0.00  0.00    -0.153 OA
BRANCH  16  19
ATOM     19  N   UNL     1       0.139   4.324  -1.239  0.00  0.00    -0.204 NA
ATOM     20  H   UNL     1      -0.357   5.155  -1.166  0.00  0.00    +0.144 HD
ATOM     21  H   UNL     1       0.048   3.773  -2.032  0.00  0.00    +0.144 HD
ENDBRANCH  16  19
ENDBRANCH  13  16
ENDBRANCH   8  10
ENDBRANCH   5   6
ENDBRANCH   3   5
ENDBRANCH   1   3
BRANCH   1  22
ATOM     22  C   UNL     1       5.420  -6.487   0.296  0.00  0.00    +0.139 C 
BRANCH  22  23
ATOM     23  C   UNL     1       5.394  -7.885   0.917  0.00  0.00    +0.117 C 
BRANCH  23  24
ATOM     24  N   UNL     1       6.755  -8.427   0.957  0.00  0.00    -0.299 N 
ATOM     25  C   UNL     1       6.978  -9.654   1.467  0.00  0.00    +0.300 C 
ATOM     26  O   UNL     1       6.049 -10.312   1.894  0.00  0.00    -0.253 OA
ATOM     27  N   UNL     1       8.229 -10.152   1.504  0.00  0.00    -0.294 N 
ATOM     28  H   UNL     1       7.496  -7.901   0.616  0.00  0.00    +0.150 HD
ATOM     29  H   UNL     1       8.970  -9.627   1.163  0.00  0.00    +0.151 HD
BRANCH  27  30
ATOM     30  C   UNL     1       8.471 -11.486   2.058  0.00  0.00    +0.037 C 
ATOM     31  C   UNL     1       8.016 -11.522   3.518  0.00  0.00    +0.029 C 
ATOM     32  C   UNL     1       8.269 -12.916   4.097  0.00  0.00    -0.008 C 
ATOM     33  C   UNL     1       9.763 -13.237   4.020  0.00  0.00    +0.007 C 
ATOM     34  C   UNL     1      10.217 -13.201   2.559  0.00  0.00    -0.008 C 
ATOM     35  C   UNL     1       9.965 -11.808   1.981  0.00  0.00    +0.029 C 
ATOM     36  C   UNL     1       9.431 -14.238   1.755  0.00  0.00    +0.007 C 
ATOM     37  C   UNL     1       7.937 -13.917   1.832  0.00  0.00    -0.008 C 
ATOM     38  C   UNL     1       7.482 -13.953   3.292  0.00  0.00    +0.007 C 
ATOM     39  C   UNL     1       7.684 -12.523   1.253  0.00  0.00    +0.029 C 
ENDBRANCH  27  30
ENDBRANCH  23  24
ENDBRANCH  22  23
ENDBRANCH   1  22
TORSDOF 10
