REMARK  Name = ZINC41293115
REMARK  11 active torsions:
REMARK  status: ('A' for Active; 'I' for Inactive)
REMARK    1  A    between atoms: C_1  and  C_2
REMARK    2  A    between atoms: C_2  and  C_3
REMARK    3  A    between atoms: C_2  and  C_4
REMARK    4  A    between atoms: C_2  and  C_5
REMARK    5  A    between atoms: C_11  and  C_16
REMARK    6  A    between atoms: C_16  and  N_17
REMARK    7  A    between atoms: C_18  and  C_20
REMARK    8  A    between atoms: C_22  and  O_28
REMARK    9  A    between atoms: C_24  and  O_26
REMARK   10  A    between atoms: O_26  and  C_27
REMARK   11  A    between atoms: O_28  and  C_29
REMARK                            x       y       z     vdW  Elec       q    Type
REMARK                         _______ _______ _______ _____ _____    ______ ____
ROOT
ATOM      1  C   UNL     1       0.707  -0.490  -1.238  0.00  0.00    -0.041 A 
ATOM      2  C   UNL     1       0.029  -1.287  -2.148  0.00  0.00    +0.008 A 
ATOM      3  C   UNL     1       0.655  -1.742  -3.290  0.00  0.00    +0.047 A 
ATOM      4  C   UNL     1       1.980  -1.401  -3.533  0.00  0.00    +0.139 A 
ATOM      5  C   UNL     1       2.664  -0.593  -2.608  0.00  0.00    +0.023 A 
ATOM      6  C   UNL     1       2.009  -0.138  -1.460  0.00  0.00    +0.016 A 
ATOM      7  C   UNL     1       4.062  -0.238  -2.872  0.00  0.00    -0.013 A 
ATOM      8  C   UNL     1       4.639  -0.707  -4.007  0.00  0.00    +0.097 A 
ATOM      9  C   UNL     1       3.892  -1.514  -4.892  0.00  0.00    +0.338 A 
ATOM     10  O   UNL     1       4.421  -1.929  -5.907  0.00  0.00    -0.245 OA
ATOM     11  O   UNL     1       2.613  -1.836  -4.643  0.00  0.00    -0.422 OA
ENDROOT
BRANCH   1  13
ATOM     12  C   UNL     1      -0.019   1.526   0.010  0.00  0.00    +0.015 C 
ATOM     13  C   UNL     1       0.002  -0.004   0.002  0.00  0.00    -0.013 C 
ATOM     14  C   UNL     1       0.742  -0.511   1.242  0.00  0.00    +0.015 C 
ATOM     15  C   UNL     1      -1.433  -0.534   0.013  0.00  0.00    +0.015 C 
ENDBRANCH   1  13
BRANCH   7  16
ATOM     16  C   UNL     1       4.837   0.626  -1.910  0.00  0.00    +0.140 C 
BRANCH  16  17
ATOM     17  N   UNL     1       4.577   2.038  -2.203  0.00  0.00    -0.307 N 
ATOM     18  C   UNL     1       5.167   2.999  -1.465  0.00  0.00    +0.245 C 
ATOM     19  O   UNL     1       5.914   2.694  -0.556  0.00  0.00    -0.270 OA
ATOM     20  H   UNL     1       3.980   2.280  -2.929  0.00  0.00    +0.149 HD
BRANCH  18  21
ATOM     21  C   UNL     1       4.905   4.424  -1.761  0.00  0.00    +0.044 A 
ATOM     22  C   UNL     1       4.043   4.775  -2.800  0.00  0.00    +0.059 A 
ATOM     23  C   UNL     1       3.800   6.111  -3.074  0.00  0.00    +0.124 A 
ATOM     24  C   UNL     1       4.412   7.099  -2.317  0.00  0.00    +0.091 A 
ATOM     25  C   UNL     1       5.270   6.754  -1.283  0.00  0.00    +0.124 A 
ATOM     26  C   UNL     1       5.514   5.420  -0.999  0.00  0.00    +0.059 A 
BRANCH  25  27
ATOM     27  O   UNL     1       5.868   7.725  -0.544  0.00  0.00    -0.495 OA
ATOM     28  C   UNL     1       5.567   9.079  -0.888  0.00  0.00    +0.277 C 
ENDBRANCH  25  27
BRANCH  23  29
ATOM     29  O   UNL     1       2.960   6.455  -4.086  0.00  0.00    -0.495 OA
ATOM     30  C   UNL     1       2.755   7.850  -4.313  0.00  0.00    +0.277 C 
ENDBRANCH  23  29
ENDBRANCH  18  21
ENDBRANCH  16  17
ENDBRANCH   7  16
TORSDOF 6
