REMARK  Name = ZINC67537086
REMARK  7 active torsions:
REMARK  status: ('A' for Active; 'I' for Inactive)
REMARK    1  A    between atoms: C_6  and  C_11
REMARK    2  A    between atoms: C_11  and  C_13
REMARK    3  A    between atoms: C_11  and  O_28
REMARK    4  A    between atoms: C_13  and  N_14
REMARK    5  A    between atoms: N_17  and  C_18
REMARK    6  A    between atoms: C_23  and  O_24
REMARK    7  A    between atoms: O_24  and  C_25
REMARK                            x       y       z     vdW  Elec       q    Type
REMARK                         _______ _______ _______ _____ _____    ______ ____
ROOT
ATOM      1  N   UNL     1       6.673  -3.737  -1.522  0.00  0.00    -0.296 N 
ATOM      2  C   UNL     1       7.199  -4.154  -2.691  0.00  0.00    +0.304 C 
ATOM      3  O   UNL     1       6.610  -3.940  -3.733  0.00  0.00    -0.253 OA
ATOM      4  N   UNL     1       8.377  -4.808  -2.704  0.00  0.00    -0.266 N 
ATOM      5  H   UNL     1       7.143  -3.907  -0.690  0.00  0.00    +0.150 HD
ATOM      6  H   UNL     1       8.878  -4.922  -1.882  0.00  0.00    +0.156 HD
ENDROOT
BRANCH   4   7
ATOM      7  C   UNL     1       8.878  -5.324  -3.908  0.00  0.00    +0.077 A 
ATOM      8  C   UNL     1       8.659  -4.647  -5.099  0.00  0.00    +0.027 A 
ATOM      9  C   UNL     1       9.154  -5.158  -6.284  0.00  0.00    +0.002 A 
ATOM     10  C   UNL     1       9.868  -6.342  -6.286  0.00  0.00    +0.004 A 
ATOM     11  C   UNL     1      10.091  -7.021  -5.102  0.00  0.00    +0.048 A 
ATOM     12  C   UNL     1       9.603  -6.513  -3.909  0.00  0.00    +0.148 A 
BRANCH  12  13
ATOM     13  O   UNL     1       9.825  -7.177  -2.744  0.00  0.00    -0.432 OA
BRANCH  13  14
ATOM     14  C   UNL     1      10.576  -8.391  -2.822  0.00  0.00    +0.541 C 
ATOM     15  F   UNL     1       9.909  -9.299  -3.651  0.00  0.00    -0.166 F 
ATOM     16  F   UNL     1      11.843  -8.122  -3.349  0.00  0.00    -0.166 F 
ENDBRANCH  13  14
ENDBRANCH  12  13
ENDBRANCH   4   7
BRANCH   1  17
ATOM     17  C   UNL     1       5.392  -3.026  -1.507  0.00  0.00    +0.141 C 
BRANCH  17  18
ATOM     18  C   UNL     1       5.025  -2.667  -0.065  0.00  0.00    +0.162 C 
BRANCH  18  24
ATOM     19  C   UNL     1       0.022   1.417  -0.009  0.00  0.00    +0.001 A 
ATOM     20  C   UNL     1       1.211   2.145  -0.024  0.00  0.00    +0.001 A 
ATOM     21  C   UNL     1       2.418   1.515  -0.038  0.00  0.00    +0.008 A 
ATOM     22  C   UNL     1       2.469   0.111  -0.037  0.00  0.00    -0.018 A 
ATOM     23  C   UNL     1       3.696  -0.575  -0.051  0.00  0.00    +0.014 A 
ATOM     24  C   UNL     1       3.708  -1.935  -0.050  0.00  0.00    -0.017 A 
ATOM     25  C   UNL     1       2.519  -2.663  -0.035  0.00  0.00    +0.007 A 
ATOM     26  C   UNL     1       1.312  -2.033  -0.021  0.00  0.00    +0.009 A 
ATOM     27  C   UNL     1       1.261  -0.629  -0.022  0.00  0.00    -0.018 A 
ATOM     28  C   UNL     1       0.034   0.056  -0.008  0.00  0.00    +0.008 A 
ENDBRANCH  18  24
BRANCH  18  29
ATOM     29  O   UNL     1       4.915  -3.862   0.710  0.00  0.00    -0.386 OA
ATOM     30  H   UNL     1       4.243  -4.479   0.389  0.00  0.00    +0.210 HD
ENDBRANCH  18  29
ENDBRANCH  17  18
ENDBRANCH   1  17
TORSDOF 7
