REMARK  Name = ZINC08858356
REMARK  9 active torsions:
REMARK  status: ('A' for Active; 'I' for Inactive)
REMARK    1  A    between atoms: C_1  and  C_2
REMARK    2  A    between atoms: C_2  and  O_3
REMARK    3  A    between atoms: O_3  and  C_4
REMARK    4  A    between atoms: C_4  and  C_5
REMARK    5  A    between atoms: C_5  and  C_6
REMARK    6  A    between atoms: C_6  and  N_7
REMARK    7  A    between atoms: N_7  and  C_8
REMARK    8  A    between atoms: C_9  and  C_19
REMARK    9  A    between atoms: N_23  and  C_27
REMARK                            x       y       z     vdW  Elec       q    Type
REMARK                         _______ _______ _______ _____ _____    ______ ____
ROOT
ATOM      1  C   UNL     1      -0.873   1.334  -7.289  0.00  0.00    +0.134 A 
ATOM      2  C   UNL     1      -1.464   2.054  -8.354  0.00  0.00    +0.081 A 
ATOM      3  C   UNL     1      -0.881   1.949  -9.639  0.00  0.00    +0.267 A 
ATOM      4  O   UNL     1      -1.358   2.552 -10.586  0.00  0.00    -0.267 OA
ATOM      5  N   UNL     1       0.210   1.170  -9.800  0.00  0.00    -0.268 N 
ATOM      6  C   UNL     1       0.777   1.064 -11.035  0.00  0.00    +0.096 A 
ATOM      7  C   UNL     1       1.870   0.293 -11.231  0.00  0.00    +0.018 A 
ATOM      8  C   UNL     1       2.435  -0.410 -10.158  0.00  0.00    +0.005 A 
ATOM      9  C   UNL     1       1.875  -0.310  -8.919  0.00  0.00    +0.047 A 
ATOM     10  C   UNL     1       0.739   0.497  -8.735  0.00  0.00    +0.142 A 
ATOM     11  N   UNL     1       0.202   0.593  -7.518  0.00  0.00    -0.214 NA
ENDROOT
BRANCH   2  12
ATOM     12  C   UNL     1      -2.607   2.858  -8.139  0.00  0.00    +0.037 C 
ATOM     13  C   UNL     1      -2.577   3.852  -7.204  0.00  0.00    +0.077 C 
ATOM     14  C   UNL     1      -3.627   4.699  -6.748  0.00  0.00    +0.259 C 
ATOM     15  O   UNL     1      -4.754   4.598  -7.200  0.00  0.00    -0.269 OA
ATOM     16  N   UNL     1      -3.345   5.595  -5.818  0.00  0.00    -0.252 N 
ATOM     17  C   UNL     1      -2.093   5.711  -5.322  0.00  0.00    +0.121 C 
ATOM     18  S   UNL     1      -1.506   6.793  -4.132  0.00  0.00    -0.027 S 
ATOM     19  S   UNL     1      -1.207   4.449  -6.224  0.00  0.00    -0.061 S 
BRANCH  16  20
ATOM     20  C   UNL     1      -4.404   6.478  -5.322  0.00  0.00    +0.083 C 
ATOM     21  C   UNL     1      -4.024   7.934  -5.599  0.00  0.00    +0.023 C 
ATOM     22  C   UNL     1      -5.130   8.856  -5.081  0.00  0.00    +0.002 C 
ATOM     23  C   UNL     1      -5.301   8.651  -3.574  0.00  0.00    +0.000 C 
ATOM     24  C   UNL     1      -5.680   7.195  -3.297  0.00  0.00    +0.002 C 
ATOM     25  C   UNL     1      -4.575   6.273  -3.815  0.00  0.00    +0.023 C 
ENDBRANCH  16  20
ENDBRANCH   2  12
BRANCH   1  26
ATOM     26  N   UNL     1      -1.407   1.407  -6.021  0.00  0.00    -0.328 N 
ATOM     27  H   UNL     1      -2.191   1.954  -5.856  0.00  0.00    +0.147 HD
BRANCH  26  28
ATOM     28  C   UNL     1      -0.791   0.660  -4.922  0.00  0.00    +0.105 C 
BRANCH  28  29
ATOM     29  C   UNL     1      -1.573   0.913  -3.631  0.00  0.00    +0.047 C 
BRANCH  29  30
ATOM     30  C   UNL     1      -0.930   0.132  -2.484  0.00  0.00    +0.161 C 
BRANCH  30  31
ATOM     31  O   UNL     1      -1.660   0.369  -1.278  0.00  0.00    -0.380 OA
BRANCH  31  33
ATOM     32  C   UNL     1      -1.994   0.007   1.088  0.00  0.00    +0.034 C 
ATOM     33  C   UNL     1      -1.139  -0.318  -0.139  0.00  0.00    +0.156 C 
ENDBRANCH  31  33
ENDBRANCH  30  31
ENDBRANCH  29  30
ENDBRANCH  28  29
ENDBRANCH  26  28
ENDBRANCH   1  26
TORSDOF 8
