REMARK  Name = ZINC39631003
REMARK  12 active torsions:
REMARK  status: ('A' for Active; 'I' for Inactive)
REMARK    1  A    between atoms: C_1  and  C_2
REMARK    2  A    between atoms: C_2  and  C_3
REMARK    3  A    between atoms: C_2  and  C_4
REMARK    4  A    between atoms: C_2  and  C_31
REMARK    5  A    between atoms: C_4  and  N_5
REMARK    6  A    between atoms: C_6  and  C_8
REMARK    7  A    between atoms: C_19  and  C_21
REMARK    8  A    between atoms: C_24  and  O_28
REMARK    9  A    between atoms: O_28  and  C_29
REMARK   10  A    between atoms: C_31  and  N_32
REMARK   11  A    between atoms: N_32  and  C_33
REMARK   12  A    between atoms: N_32  and  C_34
REMARK                            x       y       z     vdW  Elec       q    Type
REMARK                         _______ _______ _______ _____ _____    ______ ____
ROOT
ATOM      1  C   UNL     1      -5.914   0.900   2.712  0.00  0.00    +0.100 C 
ATOM      2  C   UNL     1      -5.650   0.833   4.233  0.00  0.00    +0.121 C 
ATOM      3  N   UNL     1      -6.997   0.870   4.848  0.00  0.00    -0.296 N 
ATOM      4  C   UNL     1      -7.833   0.028   3.958  0.00  0.00    +0.115 C 
ATOM      5  C   UNL     1      -7.347   0.370   2.536  0.00  0.00    -0.004 C 
ATOM      6  C   UNL     1      -7.345  -0.882   1.665  0.00  0.00    -0.010 C 
ATOM      7  C   UNL     1      -8.786  -1.356   1.456  0.00  0.00    -0.082 C 
ATOM      8  N   UNL     1      -9.565  -0.291   0.814  0.00  0.00    +0.379 N 
ATOM      9  C   UNL     1      -9.640   0.877   1.700  0.00  0.00    -0.082 C 
ATOM     10  C   UNL     1      -8.236   1.446   1.919  0.00  0.00    -0.010 C 
ATOM     11  C   UNL     1      -7.378   1.522   5.965  0.00  0.00    +0.247 C 
ATOM     12  O   UNL     1      -6.557   2.134   6.621  0.00  0.00    -0.270 OA
ATOM     13  H   UNL     1      -9.121  -0.026  -0.052  0.00  0.00    -0.086 HD
ATOM     14  H   UNL     1     -10.497  -0.627   0.622  0.00  0.00    -0.086 HD
ENDROOT
BRANCH  11  15
ATOM     15  C   UNL     1      -8.790   1.493   6.392  0.00  0.00    +0.040 A 
ATOM     16  C   UNL     1      -9.593   0.393   6.080  0.00  0.00    +0.036 A 
ATOM     17  C   UNL     1     -10.912   0.369   6.480  0.00  0.00    +0.085 A 
ATOM     18  C   UNL     1     -11.443   1.438   7.193  0.00  0.00    +0.157 A 
ATOM     19  C   UNL     1     -10.647   2.534   7.505  0.00  0.00    +0.085 A 
ATOM     20  C   UNL     1      -9.326   2.562   7.114  0.00  0.00    +0.036 A 
ATOM     21 CL   UNL     1     -11.316   3.867   8.395  0.00  0.00    -0.080 Cl
ATOM     22 CL   UNL     1     -11.911  -0.997   6.093  0.00  0.00    -0.080 Cl
BRANCH  18  23
ATOM     23  O   UNL     1     -12.743   1.412   7.585  0.00  0.00    -0.492 OA
ATOM     24  C   UNL     1     -13.023   0.840   8.864  0.00  0.00    +0.277 C 
ENDBRANCH  18  23
ENDBRANCH  11  15
BRANCH   1  26
ATOM     25  N   UNL     1      -4.562   0.344   0.716  0.00  0.00    -0.315 N 
ATOM     26  C   UNL     1      -4.936   0.024   1.970  0.00  0.00    +0.218 C 
ATOM     27  O   UNL     1      -4.487  -0.968   2.503  0.00  0.00    -0.275 OA
ATOM     28  H   UNL     1      -4.922   1.138   0.290  0.00  0.00    +0.149 HD
BRANCH  25  29
ATOM     29  C   UNL     1      -3.612  -0.507  -0.005  0.00  0.00    +0.108 C 
BRANCH  29  31
ATOM     30  C   UNL     1      -4.677   0.139  -2.171  0.00  0.00    +0.010 C 
ATOM     31  C   UNL     1      -3.359   0.076  -1.396  0.00  0.00    -0.034 C 
ATOM     32  C   UNL     1      -2.780   1.486  -1.261  0.00  0.00    +0.010 C 
BRANCH  31  33
ATOM     33  C   UNL     1      -2.367  -0.812  -2.149  0.00  0.00    -0.072 C 
BRANCH  33  34
ATOM     34  N   UNL     1      -2.033  -0.191  -3.438  0.00  0.00    +0.376 N 
ATOM     35  C   UNL     1      -0.943   0.774  -3.248  0.00  0.00    -0.097 C 
ATOM     36  C   UNL     1      -1.608  -1.230  -4.386  0.00  0.00    -0.097 C 
ATOM     37  H   UNL     1      -2.845   0.285  -3.802  0.00  0.00    -0.083 HD
ENDBRANCH  33  34
ENDBRANCH  31  33
ENDBRANCH  29  31
ENDBRANCH  25  29
ENDBRANCH   1  26
TORSDOF 7
