REMARK  Name = ZINC18178507
REMARK  9 active torsions:
REMARK  status: ('A' for Active; 'I' for Inactive)
REMARK    1  A    between atoms: C_1  and  C_2
REMARK    2  A    between atoms: C_2  and  N_3
REMARK    3  A    between atoms: C_4  and  C_21
REMARK    4  A    between atoms: C_7  and  S_8
REMARK    5  A    between atoms: S_8  and  C_9
REMARK    6  A    between atoms: C_9  and  C_10
REMARK    7  A    between atoms: C_16  and  S_18
REMARK    8  A    between atoms: S_18  and  C_19
REMARK    9  A    between atoms: C_19  and  C_20
REMARK                            x       y       z     vdW  Elec       q    Type
REMARK                         _______ _______ _______ _____ _____    ______ ____
ROOT
ATOM      1  N   UNL     1       0.746  -0.369   1.226  0.00  0.00    -0.302 N 
ATOM      2  C   UNL     1       2.039  -0.834   1.281  0.00  0.00    +0.167 A 
ATOM      3  N   UNL     1       2.220  -1.329   2.485  0.00  0.00    -0.128 NA
ATOM      4  N   UNL     1       1.143  -1.206   3.175  0.00  0.00    -0.122 NA
ATOM      5  C   UNL     1       0.211  -0.622   2.460  0.00  0.00    +0.192 A 
ENDROOT
BRANCH   2   6
ATOM      6  C   UNL     1       3.037  -0.787   0.193  0.00  0.00    +0.044 A 
ATOM      7  C   UNL     1       2.838  -1.135  -1.104  0.00  0.00    +0.095 A 
ATOM      8  N   UNL     1       3.993  -0.956  -1.811  0.00  0.00    -0.360 N 
ATOM      9  H   UNL     1       4.097  -1.137  -2.758  0.00  0.00    +0.165 HD
ATOM     10  C   UNL     1       4.988  -0.481  -0.984  0.00  0.00    +0.047 A 
ATOM     11  C   UNL     1       4.438  -0.347   0.302  0.00  0.00    +0.010 A 
ATOM     12  C   UNL     1       5.224   0.124   1.352  0.00  0.00    +0.011 A 
ATOM     13  C   UNL     1       6.540   0.461   1.121  0.00  0.00    +0.001 A 
ATOM     14  C   UNL     1       7.083   0.332  -0.150  0.00  0.00    +0.002 A 
ATOM     15  C   UNL     1       6.320  -0.140  -1.195  0.00  0.00    +0.026 A 
ENDBRANCH   2   6
BRANCH   1  17
ATOM     16  C   UNL     1       0.371   1.772   0.105  0.00  0.00    +0.027 C 
ATOM     17  C   UNL     1       0.082   0.270   0.087  0.00  0.00    +0.122 C 
ENDBRANCH   1  17
BRANCH   5  18
ATOM     18  S   UNL     1      -1.426  -0.238   2.988  0.00  0.00    -0.077 S 
BRANCH  18  19
ATOM     19  C   UNL     1      -1.484  -0.829   4.702  0.00  0.00    +0.173 C 
BRANCH  19  20
ATOM     20  C   UNL     1      -2.849  -0.559   5.280  0.00  0.00    +0.229 C 
ATOM     21  O   UNL     1      -3.699  -0.021   4.603  0.00  0.00    -0.275 OA
ATOM     22  N   UNL     1      -3.125  -0.915   6.551  0.00  0.00    -0.263 N 
ATOM     23  C   UNL     1      -4.386  -0.665   7.085  0.00  0.00    +0.189 A 
ATOM     24  N   UNL     1      -5.449  -0.104   6.532  0.00  0.00    -0.125 NA
ATOM     25  N   UNL     1      -6.529   0.049   7.164  0.00  0.00    -0.133 NA
ATOM     26  C   UNL     1      -6.667  -0.344   8.421  0.00  0.00    +0.160 A 
ATOM     27  S   UNL     1      -5.036  -1.020   8.716  0.00  0.00    -0.024 S 
ATOM     28  H   UNL     1      -2.445  -1.346   7.092  0.00  0.00    +0.157 HD
BRANCH  26  29
ATOM     29  S   UNL     1      -8.060  -0.237   9.495  0.00  0.00    -0.097 S 
BRANCH  29  30
ATOM     30  C   UNL     1      -9.336   0.560   8.482  0.00  0.00    +0.073 C 
ATOM     31  C   UNL     1     -10.617   0.717   9.304  0.00  0.00    +0.016 C 
ENDBRANCH  29  30
ENDBRANCH  26  29
ENDBRANCH  19  20
ENDBRANCH  18  19
ENDBRANCH   5  18
TORSDOF 7
