REMARK  Name = ZINC37439583
REMARK  5 active torsions:
REMARK  status: ('A' for Active; 'I' for Inactive)
REMARK    1  A    between atoms: C_1  and  C_2
REMARK    2  A    between atoms: C_2  and  C_3
REMARK    3  A    between atoms: C_3  and  N_4
REMARK    4  A    between atoms: C_12  and  C_13
REMARK    5  A    between atoms: C_18  and  N_19
REMARK                            x       y       z     vdW  Elec       q    Type
REMARK                         _______ _______ _______ _____ _____    ______ ____
ROOT
ATOM      1  N   UNL     1       0.780  -1.992   1.258  0.00  0.00    -0.324 N 
ATOM      2  C   UNL     1      -0.116  -2.834   1.892  0.00  0.00    +0.069 A 
ATOM      3  C   UNL     1      -1.228  -2.624   2.695  0.00  0.00    +0.031 A 
ATOM      4  C   UNL     1      -1.933  -3.702   3.188  0.00  0.00    +0.040 A 
ATOM      5  C   UNL     1      -1.536  -4.999   2.886  0.00  0.00    +0.126 A 
ATOM      6  C   UNL     1      -0.434  -5.227   2.091  0.00  0.00    +0.068 A 
ATOM      7  C   UNL     1       0.291  -4.144   1.584  0.00  0.00    +0.092 A 
ATOM      8  N   UNL     1       1.389  -4.048   0.795  0.00  0.00    -0.227 NA
ATOM      9  C   UNL     1       1.679  -2.784   0.595  0.00  0.00    +0.144 A 
ATOM     10  F   UNL     1      -2.237  -6.045   3.377  0.00  0.00    -0.205 F 
ENDROOT
BRANCH   9  11
ATOM     11  C   UNL     1       2.807  -2.290  -0.220  0.00  0.00    +0.039 A 
ATOM     12  C   UNL     1       3.676  -1.327   0.295  0.00  0.00    +0.033 A 
ATOM     13  C   UNL     1       4.729  -0.870  -0.471  0.00  0.00    +0.042 A 
ATOM     14  C   UNL     1       4.927  -1.362  -1.752  0.00  0.00    +0.022 A 
ATOM     15  C   UNL     1       4.075  -2.314  -2.273  0.00  0.00    +0.025 A 
ATOM     16  C   UNL     1       3.015  -2.790  -1.514  0.00  0.00    +0.035 A 
ATOM     17 CL   UNL     1       5.809   0.328   0.172  0.00  0.00    -0.084 Cl
BRANCH  16  18
ATOM     18  N   UNL     1       2.158  -3.756  -2.036  0.00  0.00    -0.357 N 
ATOM     19  H   UNL     1       1.371  -4.027  -1.537  0.00  0.00    +0.142 HD
ATOM     20  H   UNL     1       2.347  -4.157  -2.899  0.00  0.00    +0.142 HD
ENDBRANCH  16  18
ENDBRANCH   9  11
BRANCH   1  21
ATOM     21  C   UNL     1       0.767  -0.528   1.286  0.00  0.00    +0.123 C 
BRANCH  21  23
ATOM     22  C   UNL     1       0.007   1.528   0.087  0.00  0.00    +0.005 C 
ATOM     23  C   UNL     1       0.021  -0.001   0.058  0.00  0.00    +0.018 C 
ENDBRANCH  21  23
ENDBRANCH   1  21
TORSDOF 4
