REMARK  Name = ZINC10908762
REMARK  8 active torsions:
REMARK  status: ('A' for Active; 'I' for Inactive)
REMARK    1  A    between atoms: C_4  and  N_7
REMARK    2  A    between atoms: C_9  and  C_19
REMARK    3  A    between atoms: C_10  and  C_12
REMARK    4  A    between atoms: C_19  and  N_20
REMARK    5  A    between atoms: C_21  and  C_23
REMARK    6  A    between atoms: C_23  and  C_24
REMARK    7  A    between atoms: C_24  and  C_25
REMARK    8  A    between atoms: C_27  and  C_30
REMARK                            x       y       z     vdW  Elec       q    Type
REMARK                         _______ _______ _______ _____ _____    ______ ____
ROOT
ATOM      1  N   UNL     1      -0.695  12.091   6.036  0.00  0.00    -0.239 N 
ATOM      2  C   UNL     1      -1.013  11.644   4.793  0.00  0.00    +0.120 A 
ATOM      3  C   UNL     1       0.136  11.504   4.097  0.00  0.00    +0.015 A 
ATOM      4  C   UNL     1       1.201  11.886   4.936  0.00  0.00    +0.098 A 
ATOM      5  N   UNL     1       0.697  12.238   6.100  0.00  0.00    -0.166 NA
ENDROOT
BRANCH   4   6
ATOM      6  C   UNL     1       2.639  11.891   4.572  0.00  0.00    +0.003 A 
ATOM      7  C   UNL     1       3.148  10.909   3.724  0.00  0.00    +0.013 A 
ATOM      8  C   UNL     1       4.486  10.920   3.384  0.00  0.00    +0.039 A 
ATOM      9  C   UNL     1       5.324  11.900   3.892  0.00  0.00    +0.123 A 
ATOM     10  C   UNL     1       4.822  12.875   4.739  0.00  0.00    +0.039 A 
ATOM     11  C   UNL     1       3.485  12.874   5.080  0.00  0.00    +0.013 A 
ATOM     12  F   UNL     1       6.633  11.904   3.561  0.00  0.00    -0.205 F 
ENDBRANCH   4   6
BRANCH   1  16
ATOM     13  C   UNL     1      -3.388  12.901   9.112  0.00  0.00    +0.000 A 
ATOM     14  C   UNL     1      -2.033  13.090   9.314  0.00  0.00    +0.002 A 
ATOM     15  C   UNL     1      -1.138  12.822   8.297  0.00  0.00    +0.028 A 
ATOM     16  C   UNL     1      -1.600  12.363   7.070  0.00  0.00    +0.065 A 
ATOM     17  C   UNL     1      -2.961  12.179   6.870  0.00  0.00    +0.028 A 
ATOM     18  C   UNL     1      -3.851  12.443   7.893  0.00  0.00    +0.002 A 
ENDBRANCH   1  16
BRANCH   3  19
ATOM     19  C   UNL     1       0.256  11.028   2.672  0.00  0.00    +0.143 C 
BRANCH  19  20
ATOM     20  N   UNL     1       0.649   9.617   2.660  0.00  0.00    -0.311 N 
ATOM     21  C   UNL     1       0.818   8.974   1.487  0.00  0.00    +0.214 C 
ATOM     22  O   UNL     1       0.645   9.565   0.442  0.00  0.00    -0.276 OA
ATOM     23  H   UNL     1       0.805   9.081   3.608  0.00  0.00    +0.149 HD
BRANCH  21  24
ATOM     24  C   UNL     1       1.221   7.522   1.474  0.00  0.00    +0.105 C 
BRANCH  24  25
ATOM     25  C   UNL     1       1.344   7.039   0.028  0.00  0.00    +0.108 C 
BRANCH  25  26
ATOM     26  C   UNL     1       1.748   5.588   0.015  0.00  0.00    +0.228 A 
ATOM     27  N   UNL     1       0.941   4.556   0.017  0.00  0.00    -0.191 NA
ATOM     28  C   UNL     1       1.743   3.467   0.004  0.00  0.00    +0.203 A 
ATOM     29  N   UNL     1       2.979   3.898  -0.001  0.00  0.00    -0.056 NA
ATOM     30  O   UNL     1       2.996   5.111   0.001  0.00  0.00    -0.338 OA
BRANCH  28  31
ATOM     31  C   UNL     1       1.305   2.051   0.001  0.00  0.00    +0.029 A 
ATOM     32  C   UNL     1       2.237   1.015  -0.014  0.00  0.00    +0.019 A 
ATOM     33  C   UNL     1       1.768  -0.253  -0.016  0.00  0.00    +0.046 A 
ATOM     34  S   UNL     1       0.002  -0.004   0.002  0.00  0.00    -0.104 S 
ATOM     35  C   UNL     1      -0.021   1.729   0.011  0.00  0.00    +0.057 A 
ENDBRANCH  28  31
ENDBRANCH  25  26
ENDBRANCH  24  25
ENDBRANCH  21  24
ENDBRANCH  19  20
ENDBRANCH   3  19
TORSDOF 8
