REMARK  Name = ZINC63532617
REMARK  7 active torsions:
REMARK  status: ('A' for Active; 'I' for Inactive)
REMARK    1  A    between atoms: C_1  and  O_2
REMARK    2  A    between atoms: O_2  and  C_3
REMARK    3  A    between atoms: C_6  and  C_19
REMARK    4  A    between atoms: C_8  and  C_9
REMARK    5  A    between atoms: N_21  and  C_22
REMARK    6  A    between atoms: C_22  and  C_23
REMARK    7  A    between atoms: C_23  and  C_24
REMARK                            x       y       z     vdW  Elec       q    Type
REMARK                         _______ _______ _______ _____ _____    ______ ____
ROOT
ATOM      1  C   UNL     1       0.605  -0.606  -1.054  0.00  0.00    +0.124 A 
ATOM      2  C   UNL     1       1.172   0.166  -2.061  0.00  0.00    +0.046 A 
ATOM      3  C   UNL     1       1.785  -0.441  -3.134  0.00  0.00    +0.016 A 
ATOM      4  C   UNL     1       1.837  -1.836  -3.210  0.00  0.00    +0.037 A 
ATOM      5  C   UNL     1       1.265  -2.608  -2.196  0.00  0.00    +0.020 A 
ATOM      6  C   UNL     1       0.658  -1.993  -1.123  0.00  0.00    +0.001 A 
ENDROOT
BRANCH   6   7
ATOM      7  C   UNL     1       0.047  -2.825  -0.026  0.00  0.00    +0.000 C 
ATOM      8  C   UNL     1      -1.448  -2.517   0.075  0.00  0.00    +0.015 C 
ATOM      9  C   UNL     1      -2.070  -3.362   1.189  0.00  0.00    -0.010 C 
ATOM     10  C   UNL     1      -1.875  -4.846   0.872  0.00  0.00    +0.007 C 
ATOM     11  C   UNL     1      -0.380  -5.155   0.771  0.00  0.00    -0.010 C 
ATOM     12  C   UNL     1       0.241  -4.310  -0.343  0.00  0.00    +0.015 C 
ATOM     13  C   UNL     1       0.300  -4.824   2.102  0.00  0.00    +0.007 C 
ATOM     14  C   UNL     1       0.105  -3.340   2.418  0.00  0.00    -0.010 C 
ATOM     15  C   UNL     1      -1.390  -3.031   2.519  0.00  0.00    +0.007 C 
ATOM     16  C   UNL     1       0.727  -2.495   1.304  0.00  0.00    +0.015 C 
ENDBRANCH   6   7
BRANCH   4  17
ATOM     17  C   UNL     1       2.492  -2.491  -4.359  0.00  0.00    +0.244 C 
ATOM     18  O   UNL     1       2.536  -3.704  -4.423  0.00  0.00    -0.270 OA
ATOM     19  N   UNL     1       3.042  -1.744  -5.337  0.00  0.00    -0.311 N 
ATOM     20  H   UNL     1       3.008  -0.776  -5.285  0.00  0.00    +0.149 HD
BRANCH  19  21
ATOM     21  C   UNL     1       3.693  -2.394  -6.477  0.00  0.00    +0.109 C 
BRANCH  21  22
ATOM     22  C   UNL     1       4.230  -1.327  -7.434  0.00  0.00    +0.052 C 
BRANCH  22  23
ATOM     23  C   UNL     1       4.899  -1.996  -8.607  0.00  0.00    -0.040 C 
ATOM     24  C   UNL     1       4.346  -2.273  -9.809  0.00  0.00    -0.001 A 
ATOM     25  C   UNL     1       3.006  -2.045 -10.364  0.00  0.00    +0.010 A 
ATOM     26  C   UNL     1       2.744  -2.442 -11.630  0.00  0.00    +0.001 A 
ATOM     27  C   UNL     1       3.716  -3.066 -12.423  0.00  0.00    +0.002 A 
ATOM     28  C   UNL     1       4.969  -3.310 -11.984  0.00  0.00    +0.026 A 
ATOM     29  C   UNL     1       5.356  -2.933 -10.668  0.00  0.00    +0.043 A 
ATOM     30  N   UNL     1       6.489  -3.059 -10.021  0.00  0.00    -0.380 N 
ATOM     31  C   UNL     1       6.328  -2.487  -8.680  0.00  0.00    +0.144 C 
ATOM     32  H   UNL     1       7.299  -3.460 -10.372  0.00  0.00    +0.160 HD
ENDBRANCH  22  23
ENDBRANCH  21  22
ENDBRANCH  19  21
ENDBRANCH   4  17
BRANCH   1  34
ATOM     33  C   UNL     1      -0.017   1.425   0.010  0.00  0.00    +0.277 C 
ATOM     34  O   UNL     1       0.002  -0.004   0.002  0.00  0.00    -0.495 OA
ENDBRANCH   1  34
TORSDOF 6
