REMARK  Name = ZINC02098295
REMARK  14 active torsions:
REMARK  status: ('A' for Active; 'I' for Inactive)
REMARK    1  A    between atoms: C_1  and  C_2
REMARK    2  A    between atoms: C_3  and  C_19
REMARK    3  A    between atoms: C_4  and  C_18
REMARK    4  A    between atoms: C_5  and  N_15
REMARK    5  A    between atoms: C_6  and  C_11
REMARK    6  A    between atoms: C_7  and  N_8
REMARK    7  A    between atoms: C_11  and  C_12
REMARK    8  A    between atoms: C_11  and  C_13
REMARK    9  A    between atoms: C_11  and  C_14
REMARK   10  A    between atoms: C_19  and  C_21
REMARK   11  A    between atoms: C_21  and  C_22
REMARK   12  A    between atoms: C_29  and  O_30
REMARK   13  A    between atoms: O_30  and  C_31
REMARK   14  A    between atoms: C_37  and  N_68
REMARK                            x       y       z     vdW  Elec       q    Type
REMARK                         _______ _______ _______ _____ _____    ______ ____
ROOT
ATOM      1  C   UNL     1      -1.876  -0.684   3.078  0.00  0.00    +0.163 C 
ATOM      2  O   UNL     1      -0.875  -1.206   3.521  0.00  0.00    -0.292 OA
ENDROOT
BRANCH   1   5
ATOM      3  C   UNL     1      -0.951   2.057   2.972  0.00  0.00    +0.047 C 
ATOM      4  C   UNL     1      -1.385   1.341   1.718  0.00  0.00    -0.009 A 
ATOM      5  C   UNL     1      -1.829   0.017   1.785  0.00  0.00    +0.027 A 
ATOM      6  C   UNL     1      -2.230  -0.638   0.616  0.00  0.00    -0.009 A 
ATOM      7  C   UNL     1      -2.183   0.025  -0.592  0.00  0.00    +0.136 A 
ATOM      8  C   UNL     1      -1.747   1.337  -0.649  0.00  0.00    +0.019 A 
ATOM      9  C   UNL     1      -1.344   1.991   0.503  0.00  0.00    +0.136 A 
ATOM     10  C   UNL     1      -2.710  -2.065   0.676  0.00  0.00    +0.047 C 
BRANCH   8  11
ATOM     11  C   UNL     1      -1.705   2.057  -1.972  0.00  0.00    -0.008 C 
ATOM     12  C   UNL     1      -0.605   3.120  -1.940  0.00  0.00    +0.016 C 
ATOM     13  C   UNL     1      -1.412   1.053  -3.089  0.00  0.00    +0.016 C 
ATOM     14  C   UNL     1      -3.055   2.728  -2.231  0.00  0.00    +0.016 C 
ENDBRANCH   8  11
BRANCH   9  15
ATOM     15  N   UNL     1      -0.873   3.392   0.430  0.00  0.00    +0.057 N 
ATOM     16  O   UNL     1       0.320   3.633   0.389  0.00  0.00    -0.126 OA
ATOM     17  O   UNL     1      -1.679   4.305   0.407  0.00  0.00    -0.126 OA
ENDBRANCH   9  15
BRANCH   7  18
ATOM     18  N   UNL     1      -2.607  -0.666  -1.831  0.00  0.00    +0.057 N 
ATOM     19  O   UNL     1      -3.733  -0.504  -2.263  0.00  0.00    -0.126 OA
ATOM     20  O   UNL     1      -1.828  -1.397  -2.417  0.00  0.00    -0.126 OA
ENDBRANCH   7  18
ENDBRANCH   1   5
BRANCH   1  21
ATOM     21  C   UNL     1      -3.167  -0.752   3.853  0.00  0.00    +0.069 C 
BRANCH  21  22
ATOM     22  C   UNL     1      -2.925  -1.460   5.187  0.00  0.00    -0.027 C 
ATOM     23  C   UNL     1      -1.800  -0.774   5.917  0.00  0.00    -0.012 A 
ATOM     24  C   UNL     1      -0.820  -1.485   6.578  0.00  0.00    -0.040 A 
ATOM     25  C   UNL     1       0.194  -0.814   7.242  0.00  0.00    +0.053 A 
ATOM     26  C   UNL     1       0.237   0.570   7.246  0.00  0.00    +0.170 A 
ATOM     27  C   UNL     1      -0.748   1.291   6.579  0.00  0.00    +0.208 A 
ATOM     28  C   UNL     1      -1.763   0.617   5.916  0.00  0.00    +0.167 A 
ATOM     29  O   UNL     1      -0.488   2.625   6.726  0.00  0.00    -0.449 OA
ATOM     30  C   UNL     1       0.887   2.704   7.145  0.00  0.00    +0.467 C 
ATOM     31  O   UNL     1       1.113   1.450   7.814  0.00  0.00    -0.452 OA
ATOM     32  C   UNL     1      -0.814  -2.993   6.595  0.00  0.00    +0.017 C 
ATOM     33  C   UNL     1      -2.187  -3.526   6.187  0.00  0.00    -0.074 C 
ATOM     34  C   UNL     1      -3.718  -3.570   4.308  0.00  0.00    -0.095 C 
ATOM     35  N   UNL     1      -2.570  -2.865   4.923  0.00  0.00    +0.383 N 
ATOM     36  H   UNL     1      -1.774  -2.894   4.275  0.00  0.00    -0.081 HD
BRANCH  28  37
ATOM     37  O   UNL     1      -2.727   1.318   5.262  0.00  0.00    -0.491 OA
ATOM     38  C   UNL     1      -3.892   1.672   6.010  0.00  0.00    +0.277 C 
ENDBRANCH  28  37
ENDBRANCH  21  22
ENDBRANCH   1  21
TORSDOF 7
