REMARK  Name = ZINC40986160
REMARK  9 active torsions:
REMARK  status: ('A' for Active; 'I' for Inactive)
REMARK    1  A    between atoms: C_1  and  C_2
REMARK    2  A    between atoms: C_2  and  C_3
REMARK    3  A    between atoms: C_3  and  S_4
REMARK    4  A    between atoms: S_4  and  C_7
REMARK    5  A    between atoms: C_10  and  C_14
REMARK    6  A    between atoms: N_16  and  C_17
REMARK    7  A    between atoms: C_17  and  C_18
REMARK    8  A    between atoms: C_18  and  C_20
REMARK    9  A    between atoms: C_18  and  N_27
REMARK                            x       y       z     vdW  Elec       q    Type
REMARK                         _______ _______ _______ _____ _____    ______ ____
ROOT
ATOM      1  C   UNL     1       3.544  -3.974  -6.210  0.00  0.00    +0.248 C 
ATOM      2  O   UNL     1       4.699  -4.349  -6.152  0.00  0.00    -0.270 OA
ATOM      3  N   UNL     1       2.884  -4.005  -7.385  0.00  0.00    -0.312 N 
ATOM      4  H   UNL     1       1.962  -3.706  -7.431  0.00  0.00    +0.149 HD
ENDROOT
BRANCH   1   8
ATOM      5  C   UNL     1       1.632  -2.593  -2.787  0.00  0.00    +0.272 A 
ATOM      6  N   UNL     1       0.967  -2.615  -3.926  0.00  0.00    -0.219 NA
ATOM      7  C   UNL     1       1.536  -3.046  -5.038  0.00  0.00    +0.130 A 
ATOM      8  C   UNL     1       2.865  -3.483  -4.994  0.00  0.00    +0.092 A 
ATOM      9  C   UNL     1       3.532  -3.442  -3.762  0.00  0.00    +0.146 A 
ATOM     10  N   UNL     1       2.886  -2.990  -2.699  0.00  0.00    -0.199 NA
ATOM     11 CL   UNL     1       5.182  -3.968  -3.634  0.00  0.00    -0.061 Cl
BRANCH   5  12
ATOM     12  S   UNL     1       0.820  -2.007  -1.337  0.00  0.00    +0.032 S 
ATOM     13  O   UNL     1       1.495  -2.645  -0.261  0.00  0.00    -0.166 OA
ATOM     14  O   UNL     1      -0.560  -2.249  -1.571  0.00  0.00    -0.166 OA
BRANCH  12  15
ATOM     15  C   UNL     1       1.146  -0.223  -1.309  0.00  0.00    +0.175 C 
BRANCH  15  17
ATOM     16  C   UNL     1       0.756   1.902  -0.055  0.00  0.00    +0.005 C 
ATOM     17  C   UNL     1       0.481   0.398  -0.078  0.00  0.00    +0.020 C 
ENDBRANCH  15  17
ENDBRANCH  12  15
ENDBRANCH   5  12
ENDBRANCH   1   8
BRANCH   3  18
ATOM     18  C   UNL     1       3.558  -4.492  -8.591  0.00  0.00    +0.094 C 
BRANCH  18  19
ATOM     19  C   UNL     1       2.556  -4.551  -9.746  0.00  0.00    -0.020 C 
BRANCH  19  20
ATOM     20  C   UNL     1       1.503  -5.586  -9.445  0.00  0.00    -0.059 A 
ATOM     21  C   UNL     1       1.773  -6.926  -9.650  0.00  0.00    +0.003 A 
ATOM     22  C   UNL     1       0.807  -7.876  -9.374  0.00  0.00    +0.020 A 
ATOM     23  C   UNL     1      -0.430  -7.485  -8.893  0.00  0.00    +0.041 A 
ATOM     24  C   UNL     1      -0.700  -6.144  -8.689  0.00  0.00    +0.020 A 
ATOM     25  C   UNL     1       0.269  -5.196  -8.960  0.00  0.00    +0.003 A 
ATOM     26 CL   UNL     1      -1.643  -8.678  -8.547  0.00  0.00    -0.084 Cl
ENDBRANCH  19  20
BRANCH  19  27
ATOM     27  N   UNL     1       3.258  -4.912 -10.985  0.00  0.00    +0.385 N 
ATOM     28  C   UNL     1       2.301  -4.960 -12.120  0.00  0.00    -0.078 C 
ATOM     29  C   UNL     1       3.213  -4.781 -13.360  0.00  0.00    -0.020 C 
ATOM     30  C   UNL     1       4.268  -3.762 -12.870  0.00  0.00    -0.020 C 
ATOM     31  C   UNL     1       4.246  -3.869 -11.334  0.00  0.00    -0.078 C 
ATOM     32  H   UNL     1       3.716  -5.805 -10.878  0.00  0.00    -0.081 HD
ENDBRANCH  19  27
ENDBRANCH  18  19
ENDBRANCH   3  18
TORSDOF 8
