REMARK  Name = ZINC11907307
REMARK  2 active torsions:
REMARK  status: ('A' for Active; 'I' for Inactive)
REMARK    1  A    between atoms: C_3  and  N_14
REMARK    2  A    between atoms: C_4  and  N_8
REMARK                            x       y       z     vdW  Elec       q    Type
REMARK                         _______ _______ _______ _____ _____    ______ ____
ROOT
ATOM      1  C   UNL     1      -0.017   1.379   0.010  0.00  0.00    +0.022 A 
ATOM      2  C   UNL     1       1.169   2.091   0.002  0.00  0.00    +0.027 A 
ATOM      3  C   UNL     1       2.381   1.418  -0.013  0.00  0.00    +0.057 A 
ATOM      4  C   UNL     1       2.401   0.023  -0.021  0.00  0.00    +0.053 A 
ATOM      5  C   UNL     1       1.208  -0.683  -0.013  0.00  0.00    +0.045 A 
ATOM      6  C   UNL     1       0.002  -0.004   0.002  0.00  0.00    +0.043 A 
ATOM      7 CL   UNL     1      -1.491  -0.890   0.012  0.00  0.00    -0.083 Cl
ENDROOT
BRANCH   3   8
ATOM      8  N   UNL     1       3.584   2.138  -0.022  0.00  0.00    -0.274 N 
ATOM      9  C   UNL     1       4.200   2.526  -1.265  0.00  0.00    +0.116 C 
ATOM     10  C   UNL     1       3.247   3.234  -2.232  0.00  0.00    +0.190 C 
ATOM     11  S   UNL     1       3.736   4.996  -2.054  0.00  0.00    -0.028 S 
ATOM     12  O   UNL     1       3.941   5.550  -3.346  0.00  0.00    -0.174 OA
ATOM     13  O   UNL     1       2.837   5.634  -1.157  0.00  0.00    -0.174 OA
ATOM     14  C   UNL     1       5.361   4.798  -1.227  0.00  0.00    +0.182 C 
ATOM     15  C   UNL     1       5.529   3.281  -1.106  0.00  0.00    +0.097 C 
ATOM     16  S   UNL     1       5.864   2.928   0.676  0.00  0.00    -0.086 S 
ATOM     17  C   UNL     1       4.201   2.494   1.161  0.00  0.00    +0.133 C 
ATOM     18  N   UNL     1       3.684   2.522   2.359  0.00  0.00    -0.381 N 
ATOM     19  H   UNL     1       2.756   2.272   2.492  0.00  0.00    +0.158 HD
ATOM     20  H   UNL     1       4.227   2.793   3.115  0.00  0.00    +0.158 HD
ENDBRANCH   3   8
BRANCH   4  21
ATOM     21  N   UNL     1       3.621  -0.661  -0.037  0.00  0.00    -0.328 N 
ATOM     22  C   UNL     1       4.284  -1.039   1.218  0.00  0.00    +0.105 C 
ATOM     23  C   UNL     1       4.578  -2.542   1.187  0.00  0.00    +0.019 C 
ATOM     24  C   UNL     1       5.381  -2.876  -0.073  0.00  0.00    +0.003 C 
ATOM     25  C   UNL     1       4.558  -2.518  -1.313  0.00  0.00    +0.019 C 
ATOM     26  C   UNL     1       4.261  -1.020  -1.310  0.00  0.00    +0.105 C 
ENDBRANCH   4  21
TORSDOF 2
