REMARK  Name = ZINC66628293
REMARK  6 active torsions:
REMARK  status: ('A' for Active; 'I' for Inactive)
REMARK    1  A    between atoms: C_1  and  C_2
REMARK    2  A    between atoms: C_2  and  C_3
REMARK    3  A    between atoms: C_3  and  C_4
REMARK    4  A    between atoms: C_10  and  C_12
REMARK    5  A    between atoms: N_14  and  C_15
REMARK    6  A    between atoms: C_18  and  N_22
REMARK                            x       y       z     vdW  Elec       q    Type
REMARK                         _______ _______ _______ _____ _____    ______ ____
ROOT
ATOM      1  C   UNL     1       1.912  -4.631  -1.000  0.00  0.00    +0.239 C 
ATOM      2  O   UNL     1       2.186  -3.868  -0.097  0.00  0.00    -0.273 OA
ATOM      3  N   UNL     1       2.220  -5.939  -0.894  0.00  0.00    -0.284 N 
ATOM      4  H   UNL     1       1.933  -6.561  -1.581  0.00  0.00    +0.155 HD
ENDROOT
BRANCH   3   5
ATOM      5  C   UNL     1       2.955  -6.399   0.207  0.00  0.00    +0.036 A 
ATOM      6  C   UNL     1       2.722  -7.670   0.714  0.00  0.00    +0.045 A 
ATOM      7  C   UNL     1       3.446  -8.124   1.800  0.00  0.00    +0.065 A 
ATOM      8  C   UNL     1       4.407  -7.309   2.384  0.00  0.00    +0.062 A 
ATOM      9  C   UNL     1       4.640  -6.037   1.876  0.00  0.00    +0.065 A 
ATOM     10  C   UNL     1       3.919  -5.585   0.786  0.00  0.00    +0.045 A 
ATOM     11 CL   UNL     1       5.840  -5.017   2.606  0.00  0.00    -0.082 Cl
ATOM     12 CL   UNL     1       3.154  -9.714   2.434  0.00  0.00    -0.082 Cl
BRANCH   8  13
ATOM     13  N   UNL     1       5.141  -7.769   3.485  0.00  0.00    -0.356 N 
ATOM     14  H   UNL     1       4.978  -8.656   3.839  0.00  0.00    +0.142 HD
ATOM     15  H   UNL     1       5.811  -7.199   3.892  0.00  0.00    +0.142 HD
ENDBRANCH   8  13
ENDBRANCH   3   5
BRANCH   1  22
ATOM     16  C   UNL     1       0.311  -2.178  -1.058  0.00  0.00    +0.217 C 
ATOM     17  O   UNL     1      -0.165  -2.920  -0.225  0.00  0.00    -0.276 OA
ATOM     18  N   UNL     1       1.015  -2.686  -2.089  0.00  0.00    -0.280 N 
ATOM     19  C   UNL     1       1.617  -1.816  -3.123  0.00  0.00    +0.178 C 
ATOM     20  S   UNL     1       2.949  -2.913  -3.783  0.00  0.00    -0.139 S 
ATOM     21  C   UNL     1       2.074  -4.511  -3.474  0.00  0.00    +0.102 C 
ATOM     22  C   UNL     1       1.227  -4.116  -2.240  0.00  0.00    +0.173 C 
BRANCH  16  23
ATOM     23  C   UNL     1       0.115  -0.689  -0.940  0.00  0.00    +0.096 C 
BRANCH  23  25
ATOM     24  C   UNL     1      -0.911   1.132   0.429  0.00  0.00    +0.004 C 
ATOM     25  C   UNL     1      -0.713  -0.381   0.309  0.00  0.00    +0.006 C 
ENDBRANCH  23  25
ENDBRANCH  16  23
ENDBRANCH   1  22
TORSDOF 5
