REMARK  Name = ZINC12710703
REMARK  8 active torsions:
REMARK  status: ('A' for Active; 'I' for Inactive)
REMARK    1  A    between atoms: C_1  and  N_54
REMARK    2  A    between atoms: C_2  and  N_54
REMARK    3  A    between atoms: C_3  and  C_4
REMARK    4  A    between atoms: C_3  and  N_54
REMARK    5  A    between atoms: C_4  and  N_5
REMARK    6  A    between atoms: N_5  and  C_6
REMARK    7  A    between atoms: C_6  and  C_7
REMARK    8  A    between atoms: N_24  and  C_25
REMARK                            x       y       z     vdW  Elec       q    Type
REMARK                         _______ _______ _______ _____ _____    ______ ____
ROOT
ATOM      1  N   UNL     1       1.304   3.958   1.438  0.00  0.00    -0.283 N 
ATOM      2  C   UNL     1       0.215   4.189   2.197  0.00  0.00    +0.307 C 
ATOM      3  O   UNL     1      -0.885   3.860   1.798  0.00  0.00    -0.252 OA
ATOM      4  N   UNL     1       0.345   4.784   3.400  0.00  0.00    -0.269 N 
ATOM      5  H   UNL     1       1.228   4.977   3.752  0.00  0.00    +0.156 HD
ENDROOT
BRANCH   4   6
ATOM      6  C   UNL     1      -0.794   5.124   4.140  0.00  0.00    +0.035 A 
ATOM      7  C   UNL     1      -1.955   5.516   3.488  0.00  0.00    +0.025 A 
ATOM      8  C   UNL     1      -3.079   5.846   4.220  0.00  0.00    +0.022 A 
ATOM      9  C   UNL     1      -3.045   5.796   5.602  0.00  0.00    +0.041 A 
ATOM     10  C   UNL     1      -1.887   5.411   6.255  0.00  0.00    +0.022 A 
ATOM     11  C   UNL     1      -0.762   5.075   5.527  0.00  0.00    +0.025 A 
ATOM     12 CL   UNL     1      -4.457   6.217   6.520  0.00  0.00    -0.084 Cl
ENDBRANCH   4   6
BRANCH   1  13
ATOM     13  C   UNL     1       2.630   4.355   1.919  0.00  0.00    +0.091 C 
BRANCH  13  14
ATOM     14  C   UNL     1       2.931   5.785   1.465  0.00  0.00    -0.060 C 
BRANCH  14  17
ATOM     15  C   UNL     1       4.684   7.449   1.338  0.00  0.00    -0.097 C 
ATOM     16  C   UNL     1       4.284   6.269   3.414  0.00  0.00    -0.097 C 
ATOM     17  N   UNL     1       4.279   6.162   1.940  0.00  0.00    +0.377 N 
ATOM     18  H   UNL     1       4.947   5.436   1.656  0.00  0.00    -0.083 HD
ENDBRANCH  14  17
ENDBRANCH  13  14
ENDBRANCH   1  13
BRANCH   1  19
ATOM     19  C   UNL     1       1.163   3.312   0.131  0.00  0.00    +0.149 C 
BRANCH  19  20
ATOM     20  C   UNL     1       1.272   1.818   0.295  0.00  0.00    +0.035 A 
ATOM     21  C   UNL     1       0.148   1.068   0.427  0.00  0.00    +0.020 A 
ATOM     22  C   UNL     1       0.287  -0.379   0.584  0.00  0.00    +0.003 A 
ATOM     23  C   UNL     1      -0.838  -1.202   0.723  0.00  0.00    +0.059 A 
ATOM     24  C   UNL     1      -0.675  -2.562   0.869  0.00  0.00    +0.167 A 
ATOM     25  C   UNL     1       0.609  -3.122   0.879  0.00  0.00    +0.168 A 
ATOM     26  C   UNL     1       1.725  -2.317   0.743  0.00  0.00    +0.075 A 
ATOM     27  C   UNL     1       1.578  -0.944   0.594  0.00  0.00    +0.053 A 
ATOM     28  N   UNL     1       2.680  -0.125   0.456  0.00  0.00    -0.322 N 
ATOM     29  H   UNL     1       3.568  -0.514   0.463  0.00  0.00    +0.169 HD
ATOM     30  C   UNL     1       2.541   1.204   0.312  0.00  0.00    +0.254 A 
ATOM     31  O   UNL     1       3.537   1.897   0.191  0.00  0.00    -0.268 OA
ATOM     32  O   UNL     1       0.491  -4.472   1.036  0.00  0.00    -0.453 OA
ATOM     33  C   UNL     1      -0.877  -4.780   0.709  0.00  0.00    +0.466 C 
ATOM     34  O   UNL     1      -1.587  -3.567   1.019  0.00  0.00    -0.453 OA
ENDBRANCH  19  20
ENDBRANCH   1  19
TORSDOF 6
