REMARK  Name = ZINC03264918
REMARK  8 active torsions:
REMARK  status: ('A' for Active; 'I' for Inactive)
REMARK    1  A    between atoms: C_1  and  C_2
REMARK    2  A    between atoms: C_5  and  N_8
REMARK    3  A    between atoms: C_9  and  C_28
REMARK    4  A    between atoms: C_12  and  S_13
REMARK    5  A    between atoms: S_13  and  C_14
REMARK    6  A    between atoms: C_14  and  C_15
REMARK    7  A    between atoms: C_18  and  C_23
REMARK    8  A    between atoms: C_18  and  O_27
REMARK                            x       y       z     vdW  Elec       q    Type
REMARK                         _______ _______ _______ _____ _____    ______ ____
ROOT
ATOM      1  N   UNL     1       4.803  -3.165   5.216  0.00  0.00    -0.270 N 
ATOM      2  C   UNL     1       5.509  -2.660   6.286  0.00  0.00    +0.169 A 
ATOM      3  N   UNL     1       5.286  -1.367   6.318  0.00  0.00    -0.128 NA
ATOM      4  N   UNL     1       4.505  -1.031   5.355  0.00  0.00    -0.122 NA
ATOM      5  C   UNL     1       4.173  -2.090   4.651  0.00  0.00    +0.197 A 
ENDROOT
BRANCH   1  10
ATOM      6  C   UNL     1       4.560  -8.573   3.512  0.00  0.00    +0.044 C 
ATOM      7  C   UNL     1       4.624  -7.137   3.964  0.00  0.00    -0.050 A 
ATOM      8  C   UNL     1       5.260  -6.194   3.178  0.00  0.00    +0.005 A 
ATOM      9  C   UNL     1       5.321  -4.877   3.590  0.00  0.00    +0.026 A 
ATOM     10  C   UNL     1       4.742  -4.501   4.795  0.00  0.00    +0.051 A 
ATOM     11  C   UNL     1       4.109  -5.451   5.585  0.00  0.00    +0.026 A 
ATOM     12  C   UNL     1       4.048  -6.766   5.165  0.00  0.00    +0.005 A 
ENDBRANCH   1  10
BRANCH   2  13
ATOM     13  C   UNL     1       6.359  -3.429   7.220  0.00  0.00    +0.020 A 
ATOM     14  C   UNL     1       6.720  -2.881   8.452  0.00  0.00    +0.011 A 
ATOM     15  C   UNL     1       7.508  -3.606   9.321  0.00  0.00    +0.001 A 
ATOM     16  C   UNL     1       7.950  -4.869   8.970  0.00  0.00    +0.000 A 
ATOM     17  C   UNL     1       7.600  -5.416   7.748  0.00  0.00    +0.001 A 
ATOM     18  C   UNL     1       6.808  -4.704   6.872  0.00  0.00    +0.011 A 
ENDBRANCH   2  13
BRANCH   5  19
ATOM     19  S   UNL     1       3.119  -2.119   3.240  0.00  0.00    -0.076 S 
BRANCH  19  20
ATOM     20  C   UNL     1       2.697  -0.363   3.126  0.00  0.00    +0.175 C 
BRANCH  20  21
ATOM     21  C   UNL     1       1.775  -0.143   1.954  0.00  0.00    +0.245 C 
ATOM     22  O   UNL     1       1.437  -1.081   1.264  0.00  0.00    -0.273 OA
ATOM     23  N   UNL     1       1.327   1.097   1.673  0.00  0.00    -0.182 N 
ATOM     24  C   UNL     1       0.429   1.440   0.564  0.00  0.00    +0.253 C 
ATOM     25  C   UNL     1       0.217   2.960   0.668  0.00  0.00    +0.117 C 
ATOM     26  C   UNL     1       1.038   3.376   1.871  0.00  0.00    +0.020 C 
ATOM     27  C   UNL     1       1.154   4.604   2.340  0.00  0.00    +0.030 C 
ATOM     28  N   UNL     1       1.646   2.248   2.392  0.00  0.00    -0.264 N 
ATOM     29  H   UNL     1       2.227   2.256   3.169  0.00  0.00    +0.170 HD
BRANCH  24  30
ATOM     30  C   UNL     1       1.080   1.085  -0.774  0.00  0.00    +0.437 C 
ATOM     31  F   UNL     1       0.237   1.476  -1.821  0.00  0.00    -0.166 F 
ATOM     32  F   UNL     1       2.304   1.752  -0.889  0.00  0.00    -0.166 F 
ATOM     33  F   UNL     1       1.293  -0.296  -0.838  0.00  0.00    -0.166 F 
ENDBRANCH  24  30
BRANCH  24  34
ATOM     34  O   UNL     1      -0.817   0.754   0.706  0.00  0.00    -0.363 OA
ATOM     35  H   UNL     1      -0.742  -0.209   0.669  0.00  0.00    +0.212 HD
ENDBRANCH  24  34
ENDBRANCH  20  21
ENDBRANCH  19  20
ENDBRANCH   5  19
TORSDOF 7
