REMARK  Name = ZINC16826850
REMARK  9 active torsions:
REMARK  status: ('A' for Active; 'I' for Inactive)
REMARK    1  A    between atoms: C_1  and  C_2
REMARK    2  A    between atoms: C_2  and  C_4
REMARK    3  A    between atoms: C_2  and  O_17
REMARK    4  A    between atoms: N_6  and  C_7
REMARK    5  A    between atoms: C_12  and  C_13
REMARK    6  A    between atoms: O_17  and  C_18
REMARK    7  A    between atoms: C_18  and  C_20
REMARK    8  A    between atoms: C_29  and  N_32
REMARK    9  A    between atoms: C_33  and  C_35
REMARK                            x       y       z     vdW  Elec       q    Type
REMARK                         _______ _______ _______ _____ _____    ______ ____
ROOT
ATOM      1  O   UNL     1      -1.342  -0.483   0.019  0.00  0.00    -0.452 OA
ENDROOT
BRANCH   1   3
ATOM      2  C   UNL     1      -0.020   1.539   0.029  0.00  0.00    +0.062 C 
ATOM      3  C   UNL     1      -0.001   0.009   0.009  0.00  0.00    +0.259 C 
BRANCH   3   4
ATOM      4  C   UNL     1       0.730  -0.500   1.224  0.00  0.00    +0.258 C 
ATOM      5  O   UNL     1       0.135  -1.139   2.066  0.00  0.00    -0.271 OA
ATOM      6  N   UNL     1       2.045  -0.246   1.375  0.00  0.00    -0.282 N 
ATOM      7  H   UNL     1       2.538   0.195   0.666  0.00  0.00    +0.155 HD
BRANCH   6   8
ATOM      8  C   UNL     1       2.698  -0.617   2.556  0.00  0.00    +0.045 A 
ATOM      9  C   UNL     1       1.978  -0.758   3.735  0.00  0.00    +0.024 A 
ATOM     10  C   UNL     1       2.626  -1.125   4.898  0.00  0.00    +0.002 A 
ATOM     11  C   UNL     1       3.990  -1.352   4.890  0.00  0.00    +0.001 A 
ATOM     12  C   UNL     1       4.710  -1.212   3.717  0.00  0.00    +0.014 A 
ATOM     13  C   UNL     1       4.067  -0.852   2.549  0.00  0.00    +0.076 A 
BRANCH  13  14
ATOM     14  C   UNL     1       4.851  -0.707   1.270  0.00  0.00    +0.419 C 
ATOM     15  F   UNL     1       6.199  -0.993   1.515  0.00  0.00    -0.166 F 
ATOM     16  F   UNL     1       4.351  -1.597   0.314  0.00  0.00    -0.166 F 
ATOM     17  F   UNL     1       4.731   0.604   0.796  0.00  0.00    -0.166 F 
ENDBRANCH  13  14
ENDBRANCH   6   8
ENDBRANCH   3   4
ENDBRANCH   1   3
BRANCH   1  18
ATOM     18  C   UNL     1      -1.929  -0.678  -1.173  0.00  0.00    +0.314 C 
ATOM     19  O   UNL     1      -1.323  -0.438  -2.191  0.00  0.00    -0.250 OA
BRANCH  18  20
ATOM     20  C   UNL     1      -3.342  -1.196  -1.241  0.00  0.00    +0.070 C 
ATOM     21  C   UNL     1      -3.417  -2.566  -0.565  0.00  0.00    +0.021 C 
ATOM     22  C   UNL     1      -4.852  -3.092  -0.634  0.00  0.00    -0.008 C 
ATOM     23  C   UNL     1      -5.788  -2.117   0.083  0.00  0.00    +0.007 C 
ATOM     24  C   UNL     1      -5.713  -0.747  -0.593  0.00  0.00    -0.008 C 
ATOM     25  C   UNL     1      -4.278  -0.221  -0.524  0.00  0.00    +0.021 C 
ATOM     26  C   UNL     1      -6.138  -0.878  -2.057  0.00  0.00    +0.029 C 
ATOM     27  C   UNL     1      -5.202  -1.853  -2.775  0.00  0.00    +0.036 C 
ATOM     28  C   UNL     1      -5.277  -3.223  -2.098  0.00  0.00    +0.029 C 
ATOM     29  C   UNL     1      -3.767  -1.327  -2.705  0.00  0.00    +0.043 C 
BRANCH  27  30
ATOM     30  N   UNL     1      -5.609  -1.978  -4.177  0.00  0.00    -0.310 N 
ATOM     31  C   UNL     1      -6.843  -2.425  -4.483  0.00  0.00    +0.210 C 
ATOM     32  O   UNL     1      -7.616  -2.725  -3.598  0.00  0.00    -0.276 OA
ATOM     33  C   UNL     1      -7.261  -2.554  -5.925  0.00  0.00    +0.109 C 
ATOM     34  H   UNL     1      -4.990  -1.738  -4.885  0.00  0.00    +0.149 HD
ENDBRANCH  27  30
ENDBRANCH  18  20
ENDBRANCH   1  18
TORSDOF 7
