REMARK  Name = ZINC39652773
REMARK  10 active torsions:
REMARK  status: ('A' for Active; 'I' for Inactive)
REMARK    1  A    between atoms: C_1  and  C_2
REMARK    2  A    between atoms: C_2  and  O_3
REMARK    3  A    between atoms: O_3  and  C_4
REMARK    4  A    between atoms: C_9  and  C_10
REMARK    5  A    between atoms: C_10  and  C_11
REMARK    6  A    between atoms: C_11  and  N_12
REMARK    7  A    between atoms: C_13  and  C_15
REMARK    8  A    between atoms: C_26  and  C_28
REMARK    9  A    between atoms: C_31  and  C_35
REMARK   10  A    between atoms: C_33  and  C_34
REMARK                            x       y       z     vdW  Elec       q    Type
REMARK                         _______ _______ _______ _____ _____    ______ ____
ROOT
ATOM      1  C   UNL     1      -6.689   0.985  -2.872  0.00  0.00    +0.100 C 
ATOM      2  C   UNL     1      -6.617   2.160  -1.871  0.00  0.00    +0.121 C 
ATOM      3  N   UNL     1      -6.331   3.349  -2.709  0.00  0.00    -0.296 N 
ATOM      4  C   UNL     1      -7.149   3.146  -3.928  0.00  0.00    +0.115 C 
ATOM      5  C   UNL     1      -7.042   1.636  -4.220  0.00  0.00    -0.004 C 
ATOM      6  C   UNL     1      -8.376   1.101  -4.732  0.00  0.00    -0.010 C 
ATOM      7  C   UNL     1      -8.678   1.718  -6.100  0.00  0.00    -0.082 C 
ATOM      8  N   UNL     1      -7.601   1.382  -7.039  0.00  0.00    +0.379 N 
ATOM      9  C   UNL     1      -6.338   1.980  -6.587  0.00  0.00    -0.082 C 
ATOM     10  C   UNL     1      -5.938   1.373  -5.239  0.00  0.00    -0.010 C 
ATOM     11  C   UNL     1      -5.512   4.381  -2.426  0.00  0.00    +0.247 C 
ATOM     12  O   UNL     1      -5.455   5.335  -3.176  0.00  0.00    -0.270 OA
ATOM     13  H   UNL     1      -7.498   0.379  -7.087  0.00  0.00    -0.086 HD
ATOM     14  H   UNL     1      -7.831   1.738  -7.955  0.00  0.00    -0.086 HD
ENDROOT
BRANCH  11  15
ATOM     15  C   UNL     1      -4.682   4.352  -1.202  0.00  0.00    +0.040 A 
ATOM     16  C   UNL     1      -5.179   3.776  -0.032  0.00  0.00    +0.013 A 
ATOM     17  C   UNL     1      -4.399   3.752   1.106  0.00  0.00    +0.004 A 
ATOM     18  C   UNL     1      -3.128   4.298   1.089  0.00  0.00    -0.050 A 
ATOM     19  C   UNL     1      -2.630   4.872  -0.067  0.00  0.00    +0.007 A 
ATOM     20  C   UNL     1      -3.397   4.897  -1.214  0.00  0.00    -0.038 A 
ATOM     21  C   UNL     1      -2.851   5.516  -2.475  0.00  0.00    +0.044 C 
ATOM     22  C   UNL     1      -2.283   4.270   2.336  0.00  0.00    +0.044 C 
ENDBRANCH  11  15
BRANCH   1  24
ATOM     23  N   UNL     1      -5.301  -1.024  -3.264  0.00  0.00    -0.315 N 
ATOM     24  C   UNL     1      -5.356   0.288  -2.960  0.00  0.00    +0.218 C 
ATOM     25  O   UNL     1      -4.333   0.907  -2.756  0.00  0.00    -0.275 OA
ATOM     26  H   UNL     1      -6.119  -1.519  -3.427  0.00  0.00    +0.149 HD
BRANCH  23  27
ATOM     27  C   UNL     1      -4.005  -1.702  -3.349  0.00  0.00    +0.109 C 
BRANCH  27  28
ATOM     28  C   UNL     1      -4.221  -3.174  -3.707  0.00  0.00    +0.057 C 
BRANCH  28  34
ATOM     29  C   UNL     1      -2.293  -4.375  -2.647  0.00  0.00    +0.124 A 
ATOM     30  C   UNL     1      -1.068  -5.022  -2.732  0.00  0.00    +0.046 A 
ATOM     31  C   UNL     1      -0.442  -5.157  -3.956  0.00  0.00    +0.004 A 
ATOM     32  C   UNL     1      -1.036  -4.648  -5.097  0.00  0.00    +0.000 A 
ATOM     33  C   UNL     1      -2.256  -4.004  -5.015  0.00  0.00    +0.007 A 
ATOM     34  C   UNL     1      -2.889  -3.871  -3.794  0.00  0.00    -0.004 A 
BRANCH  29  35
ATOM     35  O   UNL     1      -2.910  -4.242  -1.444  0.00  0.00    -0.492 OA
BRANCH  35  37
ATOM     36  C   UNL     1      -3.079  -4.541   0.948  0.00  0.00    +0.048 C 
ATOM     37  C   UNL     1      -2.238  -4.785  -0.306  0.00  0.00    +0.225 C 
ENDBRANCH  35  37
ENDBRANCH  29  35
ENDBRANCH  28  34
ENDBRANCH  27  28
ENDBRANCH  23  27
ENDBRANCH   1  24
TORSDOF 7
