REMARK  Name = ZINC36674264
REMARK  9 active torsions:
REMARK  status: ('A' for Active; 'I' for Inactive)
REMARK    1  A    between atoms: C_1  and  C_2
REMARK    2  A    between atoms: N_11  and  C_15
REMARK    3  A    between atoms: C_15  and  C_16
REMARK    4  A    between atoms: N_18  and  C_19
REMARK    5  A    between atoms: C_19  and  C_20
REMARK    6  A    between atoms: C_20  and  C_22
REMARK    7  A    between atoms: C_20  and  N_29
REMARK    8  A    between atoms: N_29  and  C_30
REMARK    9  A    between atoms: N_29  and  C_31
REMARK                            x       y       z     vdW  Elec       q    Type
REMARK                         _______ _______ _______ _____ _____    ______ ____
ROOT
ATOM      1  C   UNL     1       3.403   3.075   1.505  0.00  0.00    +0.231 C 
ATOM      2  O   UNL     1       2.521   3.604   0.862  0.00  0.00    -0.274 OA
ATOM      3  N   UNL     1       4.416   3.816   1.996  0.00  0.00    -0.315 N 
ATOM      4  H   UNL     1       5.121   3.392   2.510  0.00  0.00    +0.149 HD
ENDROOT
BRANCH   1   5
ATOM      5  C   UNL     1       3.365   1.589   1.754  0.00  0.00    +0.213 C 
BRANCH   5  15
ATOM      6  C   UNL     1       0.054   2.338  -1.134  0.00  0.00    +0.010 C 
ATOM      7  C   UNL     1       0.053   0.848  -1.479  0.00  0.00    +0.018 C 
ATOM      8  C   UNL     1      -1.389   0.365  -1.651  0.00  0.00    +0.006 C 
ATOM      9  C   UNL     1      -1.390  -1.130  -1.976  0.00  0.00    +0.000 C 
ATOM     10  C   UNL     1      -0.735  -1.904  -0.830  0.00  0.00    +0.003 C 
ATOM     11  C   UNL     1       0.710  -1.429  -0.655  0.00  0.00    +0.035 C 
ATOM     12  C   UNL     1       0.722   0.065  -0.354  0.00  0.00    +0.115 C 
ATOM     13  C   UNL     1       2.138   0.549  -0.143  0.00  0.00    +0.247 C 
ATOM     14  O   UNL     1       3.049   0.524  -0.943  0.00  0.00    -0.273 OA
ATOM     15  N   UNL     1       2.174   1.018   1.122  0.00  0.00    -0.215 N 
ATOM     16  C   UNL     1       0.987   0.894   1.727  0.00  0.00    +0.310 C 
ATOM     17  O   UNL     1       0.771   1.246   2.870  0.00  0.00    -0.252 OA
ATOM     18  N   UNL     1       0.058   0.337   0.927  0.00  0.00    -0.285 N 
ATOM     19  H   UNL     1      -0.868   0.152   1.152  0.00  0.00    +0.151 HD
ENDBRANCH   5  15
ENDBRANCH   1   5
BRANCH   3  20
ATOM     20  C   UNL     1       4.452   5.260   1.753  0.00  0.00    +0.093 C 
BRANCH  20  21
ATOM     21  C   UNL     1       5.628   5.875   2.514  0.00  0.00    -0.020 C 
BRANCH  21  22
ATOM     22  C   UNL     1       5.402   5.723   3.996  0.00  0.00    -0.041 A 
ATOM     23  C   UNL     1       6.042   4.715   4.693  0.00  0.00    +0.003 A 
ATOM     24  C   UNL     1       5.835   4.575   6.052  0.00  0.00    +0.000 A 
ATOM     25  C   UNL     1       4.989   5.444   6.716  0.00  0.00    +0.001 A 
ATOM     26  C   UNL     1       4.349   6.452   6.021  0.00  0.00    +0.020 A 
ATOM     27  C   UNL     1       4.560   6.596   4.661  0.00  0.00    +0.043 A 
ATOM     28 CL   UNL     1       3.763   7.867   3.788  0.00  0.00    -0.083 Cl
ENDBRANCH  21  22
BRANCH  21  29
ATOM     29  N   UNL     1       6.870   5.189   2.135  0.00  0.00    +0.382 N 
ATOM     30  C   UNL     1       7.022   5.224   0.674  0.00  0.00    -0.096 C 
ATOM     31  C   UNL     1       8.014   5.863   2.763  0.00  0.00    -0.096 C 
ATOM     32  H   UNL     1       6.833   4.230   2.446  0.00  0.00    -0.082 HD
ENDBRANCH  21  29
ENDBRANCH  20  21
ENDBRANCH   3  20
TORSDOF 6
