REMARK  Name = ZINC09209628
REMARK  7 active torsions:
REMARK  status: ('A' for Active; 'I' for Inactive)
REMARK    1  A    between atoms: C_1  and  C_2
REMARK    2  A    between atoms: C_6  and  C_36
REMARK    3  A    between atoms: C_7  and  C_11
REMARK    4  A    between atoms: N_13  and  C_14
REMARK    5  A    between atoms: C_15  and  C_25
REMARK    6  A    between atoms: C_20  and  C_24
REMARK    7  A    between atoms: N_27  and  C_28
REMARK                            x       y       z     vdW  Elec       q    Type
REMARK                         _______ _______ _______ _____ _____    ______ ____
ROOT
ATOM      1  C   UNL     1      -6.804   1.048   0.042  0.00  0.00    +0.085 A 
ATOM      2  C   UNL     1      -7.605  -0.086   0.040  0.00  0.00    +0.069 A 
ATOM      3  C   UNL     1      -9.045   0.109   0.048  0.00  0.00    -0.023 A 
ATOM      4  C   UNL     1      -9.451   1.397   0.057  0.00  0.00    -0.004 A 
ATOM      5  S   UNL     1      -7.955   2.343   0.062  0.00  0.00    -0.077 S 
ATOM      6  C   UNL     1     -10.862   1.899   0.067  0.00  0.00    +0.046 C 
ATOM      7  C   UNL     1     -11.791   0.737  -0.312  0.00  0.00    -0.009 C 
ATOM      8  C   UNL     1     -11.407  -0.493   0.516  0.00  0.00    +0.008 C 
ATOM      9  C   UNL     1     -10.055  -1.032   0.049  0.00  0.00    +0.037 C 
ATOM     10  C   UNL     1     -13.243   1.120  -0.018  0.00  0.00    +0.008 C 
ENDROOT
BRANCH   1  13
ATOM     11  C   UNL     1      -4.814   2.328   0.038  0.00  0.00    +0.284 C 
ATOM     12  O   UNL     1      -5.480   3.346   0.047  0.00  0.00    -0.266 OA
ATOM     13  N   UNL     1      -5.421   1.125   0.035  0.00  0.00    -0.273 N 
ATOM     14  H   UNL     1      -4.890   0.314   0.028  0.00  0.00    +0.156 HD
BRANCH  11  21
ATOM     15  C   UNL     1       2.482   1.040  -0.016  0.00  0.00    +0.044 C 
ATOM     16  C   UNL     1       1.170   1.782   0.001  0.00  0.00    -0.047 A 
ATOM     17  C   UNL     1       1.168   3.171   0.008  0.00  0.00    +0.004 A 
ATOM     18  C   UNL     1      -0.011   3.861   0.023  0.00  0.00    +0.012 A 
ATOM     19  C   UNL     1      -1.222   3.163   0.031  0.00  0.00    +0.024 A 
ATOM     20  C   UNL     1      -2.628   3.563   0.046  0.00  0.00    +0.008 A 
ATOM     21  C   UNL     1      -3.347   2.410   0.031  0.00  0.00    +0.194 A 
ATOM     22  O   UNL     1      -2.510   1.352   0.021  0.00  0.00    -0.450 OA
ATOM     23  C   UNL     1      -1.225   1.756   0.017  0.00  0.00    +0.136 A 
ATOM     24  C   UNL     1      -0.013   1.076   0.008  0.00  0.00    +0.050 A 
ATOM     25  C   UNL     1      -3.171   4.969   0.060  0.00  0.00    +0.048 C 
ENDBRANCH  11  21
ENDBRANCH   1  13
BRANCH   2  26
ATOM     26  C   UNL     1      -7.020  -1.430   0.029  0.00  0.00    +0.247 C 
ATOM     27  O   UNL     1      -6.771  -1.994   1.078  0.00  0.00    -0.270 OA
ATOM     28  N   UNL     1      -6.756  -2.041  -1.144  0.00  0.00    -0.307 N 
ATOM     29  H   UNL     1      -6.955  -1.591  -1.980  0.00  0.00    +0.149 HD
BRANCH  28  30
ATOM     30  C   UNL     1      -6.171  -3.384  -1.155  0.00  0.00    +0.096 C 
ATOM     31  C   UNL     1      -7.293  -4.430  -1.041  0.00  0.00    +0.046 C 
ATOM     32  C   UNL     1      -6.688  -5.825  -1.367  0.00  0.00    +0.168 C 
ATOM     33  S   UNL     1      -5.591  -5.394  -2.783  0.00  0.00    -0.029 S 
ATOM     34  O   UNL     1      -6.308  -5.577  -3.996  0.00  0.00    -0.174 OA
ATOM     35  O   UNL     1      -4.336  -6.037  -2.609  0.00  0.00    -0.174 OA
ATOM     36  C   UNL     1      -5.388  -3.592  -2.473  0.00  0.00    +0.188 C 
ENDBRANCH  28  30
ENDBRANCH   2  26
TORSDOF 4
