REMARK  Name = ZINC39195330
REMARK  8 active torsions:
REMARK  status: ('A' for Active; 'I' for Inactive)
REMARK    1  A    between atoms: C_1  and  C_2
REMARK    2  A    between atoms: C_2  and  C_3
REMARK    3  A    between atoms: C_3  and  C_4
REMARK    4  A    between atoms: C_16  and  C_18
REMARK    5  A    between atoms: C_18  and  C_20
REMARK    6  A    between atoms: C_18  and  C_21
REMARK    7  A    between atoms: C_25  and  C_27
REMARK    8  A    between atoms: C_27  and  C_29
REMARK                            x       y       z     vdW  Elec       q    Type
REMARK                         _______ _______ _______ _____ _____    ______ ____
ROOT
ATOM      1  C   UNL     1       0.963  -2.888  -2.486  0.00  0.00    +0.064 C 
ATOM      2  C   UNL     1       1.909  -3.125  -1.280  0.00  0.00    +0.134 C 
ATOM      3  N   UNL     1       2.425  -4.494  -1.462  0.00  0.00    -0.298 N 
ATOM      4  C   UNL     1       2.336  -4.846  -2.887  0.00  0.00    +0.122 C 
ATOM      5  C   UNL     1       1.687  -3.654  -3.612  0.00  0.00    +0.117 C 
ATOM      6  C   UNL     1       0.715  -4.134  -4.644  0.00  0.00    +0.227 C 
ATOM      7  O   UNL     1       1.091  -4.280  -5.788  0.00  0.00    -0.275 OA
ATOM      8  N   UNL     1      -0.563  -4.407  -4.337  0.00  0.00    -0.240 N 
ATOM      9  C   UNL     1      -1.040  -4.169  -3.104  0.00  0.00    +0.306 C 
ATOM     10  O   UNL     1      -2.152  -4.563  -2.814  0.00  0.00    -0.252 OA
ATOM     11  N   UNL     1      -0.333  -3.495  -2.203  0.00  0.00    -0.291 N 
ATOM     12  C   UNL     1       2.900  -5.290  -0.483  0.00  0.00    +0.223 C 
ATOM     13  O   UNL     1       3.021  -4.859   0.644  0.00  0.00    -0.275 OA
ATOM     14  H   UNL     1      -1.149  -4.781  -5.013  0.00  0.00    +0.159 HD
ATOM     15  H   UNL     1      -0.697  -3.417  -1.307  0.00  0.00    +0.151 HD
ENDROOT
BRANCH  12  16
ATOM     16  C   UNL     1       3.280  -6.715  -0.790  0.00  0.00    +0.102 C 
ATOM     17  C   UNL     1       4.695  -6.752  -1.371  0.00  0.00    +0.022 C 
BRANCH  16  18
ATOM     18  C   UNL     1       3.235  -7.531   0.476  0.00  0.00    -0.035 A 
ATOM     19  C   UNL     1       4.041  -7.188   1.548  0.00  0.00    +0.004 A 
ATOM     20  C   UNL     1       4.006  -7.931   2.714  0.00  0.00    +0.001 A 
ATOM     21  C   UNL     1       3.167  -9.021   2.816  0.00  0.00    +0.012 A 
ATOM     22  C   UNL     1       2.351  -9.373   1.739  0.00  0.00    +0.023 A 
ATOM     23  C   UNL     1       2.387  -8.615   0.566  0.00  0.00    +0.016 A 
BRANCH  22  24
ATOM     24  C   UNL     1       1.450 -10.540   1.841  0.00  0.00    +0.193 C 
ATOM     25  O   UNL     1       1.307 -11.106   2.907  0.00  0.00    -0.287 OA
BRANCH  24  26
ATOM     26  C   UNL     1       0.722 -11.017   0.648  0.00  0.00    +0.022 A 
ATOM     27  C   UNL     1       1.316 -10.941  -0.614  0.00  0.00    +0.012 A 
ATOM     28  C   UNL     1       0.631 -11.389  -1.724  0.00  0.00    +0.001 A 
ATOM     29  C   UNL     1      -0.643 -11.913  -1.590  0.00  0.00    +0.000 A 
ATOM     30  C   UNL     1      -1.238 -11.991  -0.343  0.00  0.00    +0.001 A 
ATOM     31  C   UNL     1      -0.562 -11.552   0.776  0.00  0.00    +0.012 A 
ENDBRANCH  24  26
ENDBRANCH  22  24
ENDBRANCH  16  18
ENDBRANCH  12  16
BRANCH   1  32
ATOM     32  C   UNL     1       0.826  -1.400  -2.813  0.00  0.00    +0.028 C 
BRANCH  32  34
ATOM     33  C   UNL     1      -0.034   0.798  -1.995  0.00  0.00    +0.004 C 
ATOM     34  C   UNL     1       0.103  -0.690  -1.667  0.00  0.00    -0.001 C 
ENDBRANCH  32  34
ENDBRANCH   1  32
TORSDOF 6
