REMARK  Name = ZINC03230830
REMARK  7 active torsions:
REMARK  status: ('A' for Active; 'I' for Inactive)
REMARK    1  A    between atoms: C_1  and  O_2
REMARK    2  A    between atoms: O_2  and  C_3
REMARK    3  A    between atoms: C_6  and  C_9
REMARK    4  A    between atoms: C_9  and  C_30
REMARK    5  A    between atoms: C_10  and  C_28
REMARK    6  A    between atoms: N_12  and  C_25
REMARK    7  A    between atoms: C_25  and  C_26
REMARK                            x       y       z     vdW  Elec       q    Type
REMARK                         _______ _______ _______ _____ _____    ______ ____
ROOT
ATOM      1  C   UNL     1      -1.259   1.632   0.140  0.00  0.00    +0.195 C 
ATOM      2  C   UNL     1      -0.950   3.112   0.026  0.00  0.00    +0.104 C 
ATOM      3  C   UNL     1       0.376   3.480  -0.097  0.00  0.00    +0.141 C 
ATOM      4  N   UNL     1       0.973   4.709  -0.223  0.00  0.00    -0.254 N 
ATOM      5  C   UNL     1       2.331   4.511  -0.312  0.00  0.00    +0.208 C 
ATOM      6  N   UNL     1       2.585   3.239  -0.249  0.00  0.00    -0.138 NA
ATOM      7  N   UNL     1       1.371   2.541  -0.112  0.00  0.00    -0.126 N 
ATOM      8  C   UNL     1       1.129   1.224  -0.008  0.00  0.00    +0.329 C 
ATOM      9  O   UNL     1       2.072   0.458  -0.030  0.00  0.00    -0.250 OA
ATOM     10  N   UNL     1      -0.108   0.714   0.118  0.00  0.00    -0.276 N 
ATOM     11  N   UNL     1       3.278   5.512  -0.450  0.00  0.00    -0.297 N 
ATOM     12  C   UNL     1       4.572   5.429   0.245  0.00  0.00    +0.136 C 
ATOM     13  C   UNL     1       5.686   5.675  -0.786  0.00  0.00    +0.179 C 
ATOM     14  O   UNL     1       5.417   6.893  -1.485  0.00  0.00    -0.377 OA
ATOM     15  C   UNL     1       4.205   6.878  -2.242  0.00  0.00    +0.179 C 
ATOM     16  C   UNL     1       3.018   6.691  -1.290  0.00  0.00    +0.136 C 
ATOM     17  H   UNL     1      -0.241  -0.245   0.190  0.00  0.00    +0.152 HD
ENDROOT
BRANCH   1  21
ATOM     18  C   UNL     1      -3.863   0.564  -3.076  0.00  0.00    +0.120 A 
ATOM     19  C   UNL     1      -2.617  -0.036  -2.962  0.00  0.00    +0.046 A 
ATOM     20  C   UNL     1      -1.777   0.311  -1.922  0.00  0.00    +0.010 A 
ATOM     21  C   UNL     1      -2.177   1.255  -0.994  0.00  0.00    -0.010 A 
ATOM     22  C   UNL     1      -3.421   1.851  -1.102  0.00  0.00    +0.010 A 
ATOM     23  C   UNL     1      -4.262   1.511  -2.144  0.00  0.00    +0.046 A 
BRANCH  18  25
ATOM     24  C   UNL     1      -5.958   0.882  -4.153  0.00  0.00    +0.277 C 
ATOM     25  O   UNL     1      -4.691   0.224  -4.099  0.00  0.00    -0.495 OA
ENDBRANCH  18  25
ENDBRANCH   1  21
BRANCH   1  26
ATOM     26  C   UNL     1      -2.017   1.410   1.450  0.00  0.00    +0.420 C 
ATOM     27  F   UNL     1      -1.168   1.674   2.530  0.00  0.00    -0.168 F 
ATOM     28  F   UNL     1      -3.119   2.270   1.502  0.00  0.00    -0.168 F 
ATOM     29  F   UNL     1      -2.457   0.084   1.515  0.00  0.00    -0.168 F 
ENDBRANCH   1  26
BRANCH   2  30
ATOM     30  C   UNL     1      -1.994   4.091   0.041  0.00  0.00    +0.101 C 
ATOM     31  N   UNL     1      -2.823   4.869   0.053  0.00  0.00    -0.191 NA
ENDBRANCH   2  30
BRANCH   4  32
ATOM     32  C   UNL     1       0.286   6.002  -0.255  0.00  0.00    +0.141 C 
BRANCH  32  33
ATOM     33  C   UNL     1       0.037   6.474   1.154  0.00  0.00    -0.015 C 
ATOM     34  C   UNL     1       0.464   7.653   1.535  0.00  0.00    +0.005 C 
ENDBRANCH  32  33
ENDBRANCH   4  32
TORSDOF 6
