REMARK  Name = ZINC35592933
REMARK  13 active torsions:
REMARK  status: ('A' for Active; 'I' for Inactive)
REMARK    1  A    between atoms: C_1  and  C_2
REMARK    2  A    between atoms: C_2  and  C_3
REMARK    3  A    between atoms: C_2  and  C_4
REMARK    4  A    between atoms: C_2  and  C_5
REMARK    5  A    between atoms: N_8  and  C_10
REMARK    6  A    between atoms: C_10  and  C_11
REMARK    7  A    between atoms: C_10  and  C_12
REMARK    8  A    between atoms: C_10  and  C_13
REMARK    9  A    between atoms: N_14  and  C_26
REMARK   10  A    between atoms: C_19  and  C_21
REMARK   11  A    between atoms: C_26  and  C_27
REMARK   12  A    between atoms: N_29  and  C_30
REMARK   13  A    between atoms: C_30  and  C_31
REMARK                            x       y       z     vdW  Elec       q    Type
REMARK                         _______ _______ _______ _____ _____    ______ ____
ROOT
ATOM      1  C   UNL     1       0.375   0.344  -1.343  0.00  0.00    +0.075 A 
ATOM      2  C   UNL     1       1.716   0.023  -1.560  0.00  0.00    +0.034 A 
ATOM      3  C   UNL     1       2.094   0.587  -2.730  0.00  0.00    +0.132 A 
ATOM      4  N   UNL     1       1.037   1.246  -3.241  0.00  0.00    -0.244 N 
ATOM      5  N   UNL     1      -0.037   1.073  -2.353  0.00  0.00    -0.173 NA
ATOM      6  N   UNL     1       3.381   0.466  -3.275  0.00  0.00    -0.246 N 
ATOM      7  C   UNL     1       3.934  -0.750  -3.343  0.00  0.00    +0.231 C 
ATOM      8  O   UNL     1       5.129  -0.861  -3.514  0.00  0.00    -0.274 OA
ATOM      9  C   UNL     1       3.082  -1.975  -3.208  0.00  0.00    +0.166 C 
ATOM     10  S   UNL     1       2.877  -2.429  -1.452  0.00  0.00    -0.138 S 
ATOM     11  C   UNL     1       2.613  -0.797  -0.670  0.00  0.00    +0.118 C 
ENDROOT
BRANCH  11  12
ATOM     12  C   UNL     1       1.960  -0.981   0.676  0.00  0.00    +0.007 A 
ATOM     13  C   UNL     1       1.123  -1.963   1.091  0.00  0.00    +0.012 A 
ATOM     14  C   UNL     1       0.641  -1.929   2.386  0.00  0.00    +0.008 A 
ATOM     15  C   UNL     1       1.019  -0.916   3.203  0.00  0.00    +0.045 A 
ATOM     16  S   UNL     1       2.095   0.033   2.139  0.00  0.00    -0.100 S 
ENDBRANCH  11  12
BRANCH   1  18
ATOM     17  C   UNL     1      -1.849   0.547  -0.265  0.00  0.00    +0.017 C 
ATOM     18  C   UNL     1      -0.457  -0.079  -0.160  0.00  0.00    +0.007 C 
ATOM     19  C   UNL     1       0.218   0.391   1.131  0.00  0.00    +0.017 C 
ATOM     20  C   UNL     1      -0.583  -1.603  -0.144  0.00  0.00    +0.017 C 
ENDBRANCH   1  18
BRANCH   4  21
ATOM     21  C   UNL     1       1.010   2.001  -4.495  0.00  0.00    +0.057 C 
ATOM     22  C   UNL     1       1.945   1.339  -5.509  0.00  0.00    +0.036 C 
ATOM     23  C   UNL     1      -0.415   2.017  -5.051  0.00  0.00    +0.036 C 
ATOM     24  C   UNL     1       1.473   3.436  -4.237  0.00  0.00    +0.036 C 
ENDBRANCH   4  21
BRANCH   6  25
ATOM     25  C   UNL     1       4.104   1.645  -3.759  0.00  0.00    +0.210 C 
BRANCH  25  26
ATOM     26  C   UNL     1       5.002   2.167  -2.667  0.00  0.00    +0.231 C 
ATOM     27  O   UNL     1       5.035   1.609  -1.591  0.00  0.00    -0.274 OA
ATOM     28  N   UNL     1       5.768   3.254  -2.886  0.00  0.00    -0.310 N 
ATOM     29  H   UNL     1       5.741   3.700  -3.747  0.00  0.00    +0.149 HD
BRANCH  28  30
ATOM     30  C   UNL     1       6.641   3.761  -1.825  0.00  0.00    +0.141 C 
BRANCH  30  31
ATOM     31  C   UNL     1       7.384   4.974  -2.323  0.00  0.00    -0.012 A 
ATOM     32  C   UNL     1       8.613   4.836  -2.951  0.00  0.00    +0.008 A 
ATOM     33  C   UNL     1       9.260   5.979  -3.393  0.00  0.00    +0.020 A 
ATOM     34  C   UNL     1       8.664   7.210  -3.193  0.00  0.00    +0.111 A 
ATOM     35  N   UNL     1       7.495   7.304  -2.590  0.00  0.00    -0.263 NA
ATOM     36  C   UNL     1       6.848   6.237  -2.163  0.00  0.00    +0.115 A 
ENDBRANCH  30  31
ENDBRANCH  28  30
ENDBRANCH  25  26
ENDBRANCH   6  25
TORSDOF 7
