REMARK  Name = ZINC63627424
REMARK  5 active torsions:
REMARK  status: ('A' for Active; 'I' for Inactive)
REMARK    1  A    between atoms: C_1  and  C_2
REMARK    2  A    between atoms: C_5  and  S_8
REMARK    3  A    between atoms: S_8  and  N_11
REMARK    4  A    between atoms: N_11  and  C_12
REMARK    5  A    between atoms: C_15  and  C_18
REMARK                            x       y       z     vdW  Elec       q    Type
REMARK                         _______ _______ _______ _____ _____    ______ ____
ROOT
ATOM      1  C   UNL     1       2.403  -4.609   1.211  0.00  0.00    +0.048 A 
ATOM      2  C   UNL     1       2.174  -3.426   1.902  0.00  0.00    +0.025 A 
ATOM      3  C   UNL     1       2.894  -3.146   3.046  0.00  0.00    +0.008 A 
ATOM      4  C   UNL     1       3.843  -4.042   3.505  0.00  0.00    -0.021 A 
ATOM      5  C   UNL     1       4.074  -5.220   2.819  0.00  0.00    +0.008 A 
ATOM      6  C   UNL     1       3.353  -5.509   1.677  0.00  0.00    +0.025 A 
ENDROOT
BRANCH   4   7
ATOM      7  C   UNL     1       4.628  -3.732   4.753  0.00  0.00    +0.133 C 
ATOM      8  C   UNL     1       6.017  -3.256   4.392  0.00  0.00    +0.012 C 
ATOM      9  C   UNL     1       6.873  -4.144   4.945  0.00  0.00    -0.001 A 
ATOM     10  C   UNL     1       8.338  -4.237   4.956  0.00  0.00    +0.048 A 
ATOM     11  C   UNL     1       8.926  -5.266   5.612  0.00  0.00    +0.124 A 
ATOM     12  C   UNL     1       8.169  -6.242   6.280  0.00  0.00    +0.040 A 
ATOM     13  C   UNL     1       6.821  -6.222   6.314  0.00  0.00    +0.029 A 
ATOM     14  C   UNL     1       6.100  -5.186   5.658  0.00  0.00    +0.043 A 
ATOM     15  N   UNL     1       4.813  -4.951   5.549  0.00  0.00    -0.374 N 
ATOM     16  F   UNL     1      10.274  -5.356   5.623  0.00  0.00    -0.205 F 
ATOM     17  H   UNL     1       4.104  -5.491   5.931  0.00  0.00    +0.161 HD
ENDBRANCH   4   7
BRANCH   1  18
ATOM     18  N   UNL     1       1.676  -4.896   0.053  0.00  0.00    -0.216 N 
ATOM     19  H   UNL     1       2.097  -4.813  -0.817  0.00  0.00    +0.174 HD
BRANCH  18  20
ATOM     20  S   UNL     1       0.096  -5.378   0.166  0.00  0.00    +0.072 S 
ATOM     21  O   UNL     1      -0.336  -5.668  -1.156  0.00  0.00    -0.150 OA
ATOM     22  O   UNL     1      -0.561  -4.425   0.991  0.00  0.00    -0.150 OA
BRANCH  20  27
ATOM     23  C   UNL     1       0.031 -10.602   3.183  0.00  0.00    +0.044 C 
ATOM     24  C   UNL     1       0.048  -9.297   2.430  0.00  0.00    -0.050 A 
ATOM     25  C   UNL     1      -0.164  -8.108   3.102  0.00  0.00    +0.005 A 
ATOM     26  C   UNL     1      -0.149  -6.911   2.411  0.00  0.00    +0.029 A 
ATOM     27  C   UNL     1       0.078  -6.903   1.048  0.00  0.00    +0.109 A 
ATOM     28  C   UNL     1       0.291  -8.092   0.375  0.00  0.00    +0.029 A 
ATOM     29  C   UNL     1       0.280  -9.289   1.067  0.00  0.00    +0.005 A 
ENDBRANCH  20  27
ENDBRANCH  18  20
ENDBRANCH   1  18
TORSDOF 4
