REMARK  Name = ZINC32094922
REMARK  7 active torsions:
REMARK  status: ('A' for Active; 'I' for Inactive)
REMARK    1  A    between atoms: C_1  and  C_2
REMARK    2  A    between atoms: C_2  and  C_3
REMARK    3  A    between atoms: C_2  and  C_4
REMARK    4  A    between atoms: N_19  and  C_20
REMARK    5  A    between atoms: C_23  and  O_26
REMARK    6  A    between atoms: O_26  and  C_27
REMARK    7  A    between atoms: N_30  and  C_31
REMARK                            x       y       z     vdW  Elec       q    Type
REMARK                         _______ _______ _______ _____ _____    ______ ____
ROOT
ATOM      1  C   UNL     1       0.731  -0.503   1.223  0.00  0.00    -0.044 A 
ATOM      2  C   UNL     1       2.048  -0.140   1.419  0.00  0.00    +0.006 A 
ATOM      3  C   UNL     1       2.770  -0.567   2.522  0.00  0.00    +0.024 A 
ATOM      4  C   UNL     1       2.111  -1.387   3.439  0.00  0.00    +0.040 A 
ATOM      5  C   UNL     1       0.774  -1.749   3.228  0.00  0.00    -0.006 A 
ATOM      6  C   UNL     1       0.061  -1.316   2.131  0.00  0.00    +0.010 A 
ATOM      7  C   UNL     1       0.389  -2.615   4.384  0.00  0.00    +0.112 C 
ATOM      8  C   UNL     1      -0.757  -1.996   5.181  0.00  0.00    +0.122 C 
ATOM      9  C   UNL     1      -2.083  -2.256   4.521  0.00  0.00    +0.220 C 
ATOM     10  O   UNL     1      -2.930  -1.388   4.543  0.00  0.00    -0.275 OA
ATOM     11  N   UNL     1      -2.360  -3.424   3.905  0.00  0.00    -0.270 N 
ATOM     12  C   UNL     1      -1.321  -4.334   3.710  0.00  0.00    +0.133 A 
ATOM     13  C   UNL     1      -0.011  -3.991   3.927  0.00  0.00    +0.032 A 
ATOM     14  C   UNL     1       0.772  -5.102   3.652  0.00  0.00    +0.141 A 
ATOM     15  N   UNL     1      -0.017  -6.080   3.273  0.00  0.00    -0.173 NA
ATOM     16  N   UNL     1      -1.342  -5.615   3.293  0.00  0.00    -0.218 N 
ATOM     17  C   UNL     1       1.638  -2.688   5.234  0.00  0.00    +0.235 C 
ATOM     18  O   UNL     1       1.767  -3.294   6.277  0.00  0.00    -0.274 OA
ATOM     19  N   UNL     1       2.582  -1.951   4.612  0.00  0.00    -0.273 N 
ATOM     20  C   UNL     1       3.945  -1.769   5.117  0.00  0.00    +0.138 C 
ATOM     21  H   UNL     1      -3.260  -3.626   3.605  0.00  0.00    +0.156 HD
ENDROOT
BRANCH  16  22
ATOM     22  C   UNL     1      -2.483  -6.353   2.942  0.00  0.00    +0.068 A 
ATOM     23  C   UNL     1      -3.679  -6.145   3.616  0.00  0.00    +0.031 A 
ATOM     24  C   UNL     1      -4.801  -6.871   3.271  0.00  0.00    +0.048 A 
ATOM     25  C   UNL     1      -4.734  -7.809   2.251  0.00  0.00    +0.120 A 
ATOM     26  C   UNL     1      -3.539  -8.018   1.577  0.00  0.00    +0.048 A 
ATOM     27  C   UNL     1      -2.418  -7.287   1.917  0.00  0.00    +0.031 A 
BRANCH  25  28
ATOM     28  O   UNL     1      -5.840  -8.524   1.911  0.00  0.00    -0.495 OA
ATOM     29  C   UNL     1      -5.699  -9.472   0.852  0.00  0.00    +0.277 C 
ENDBRANCH  25  28
ENDBRANCH  16  22
BRANCH   1  31
ATOM     30  C   UNL     1      -0.019   1.526   0.010  0.00  0.00    +0.012 C 
ATOM     31  C   UNL     1       0.002  -0.004   0.002  0.00  0.00    +0.013 C 
ATOM     32  C   UNL     1       0.718  -0.497  -1.257  0.00  0.00    +0.012 C 
ENDBRANCH   1  31
TORSDOF 3
