REMARK  Name = ZINC62496241
REMARK  8 active torsions:
REMARK  status: ('A' for Active; 'I' for Inactive)
REMARK    1  A    between atoms: C_1  and  C_2
REMARK    2  A    between atoms: C_2  and  C_3
REMARK    3  A    between atoms: C_3  and  N_4
REMARK    4  A    between atoms: C_8  and  N_25
REMARK    5  A    between atoms: C_12  and  C_16
REMARK    6  A    between atoms: C_16  and  C_17
REMARK    7  A    between atoms: C_19  and  C_24
REMARK    8  A    between atoms: C_22  and  C_23
REMARK                            x       y       z     vdW  Elec       q    Type
REMARK                         _______ _______ _______ _____ _____    ______ ____
ROOT
ATOM      1  N   UNL     1      -2.277  -2.541  -0.275  0.00  0.00    -0.265 N 
ATOM      2  C   UNL     1      -2.177  -3.369  -1.404  0.00  0.00    +0.078 A 
ATOM      3  C   UNL     1      -2.091  -2.819  -2.673  0.00  0.00    +0.029 A 
ATOM      4  C   UNL     1      -1.980  -3.644  -3.776  0.00  0.00    +0.025 A 
ATOM      5  C   UNL     1      -1.952  -5.023  -3.615  0.00  0.00    +0.028 A 
ATOM      6  C   UNL     1      -2.043  -5.577  -2.345  0.00  0.00    +0.070 A 
ATOM      7  C   UNL     1      -2.161  -4.752  -1.240  0.00  0.00    +0.145 A 
ATOM      8  O   UNL     1      -2.283  -5.284   0.006  0.00  0.00    -0.477 OA
ATOM      9  C   UNL     1      -1.735  -4.530   1.090  0.00  0.00    +0.263 C 
ATOM     10  C   UNL     1      -2.128  -3.081   0.953  0.00  0.00    +0.261 C 
ATOM     11  O   UNL     1      -2.312  -2.405   1.943  0.00  0.00    -0.271 OA
ENDROOT
BRANCH   5  12
ATOM     12  N   UNL     1      -1.833  -5.855  -4.733  0.00  0.00    -0.358 N 
ATOM     13  H   UNL     1      -1.770  -5.469  -5.620  0.00  0.00    +0.142 HD
ATOM     14  H   UNL     1      -1.814  -6.819  -4.621  0.00  0.00    +0.142 HD
ENDBRANCH   5  12
BRANCH   1  15
ATOM     15  C   UNL     1      -2.534  -1.106  -0.427  0.00  0.00    +0.113 C 
BRANCH  15  17
ATOM     16  C   UNL     1      -1.473   1.139  -0.703  0.00  0.00    +0.005 C 
ATOM     17  C   UNL     1      -1.204  -0.359  -0.544  0.00  0.00    +0.016 C 
ENDBRANCH  15  17
ENDBRANCH   1  15
BRANCH   9  18
ATOM     18  C   UNL     1      -0.209  -4.642   1.068  0.00  0.00    +0.089 C 
BRANCH  18  19
ATOM     19  C   UNL     1       0.193  -6.070   1.329  0.00  0.00    -0.040 A 
ATOM     20  C   UNL     1       0.525  -6.899   0.273  0.00  0.00    +0.007 A 
ATOM     21  C   UNL     1       0.894  -8.209   0.512  0.00  0.00    -0.050 A 
ATOM     22  C   UNL     1       0.933  -8.691   1.808  0.00  0.00    +0.003 A 
ATOM     23  C   UNL     1       0.603  -7.862   2.864  0.00  0.00    +0.004 A 
ATOM     24  C   UNL     1       0.237  -6.550   2.624  0.00  0.00    -0.047 A 
ATOM     25  C   UNL     1      -0.118  -5.645   3.776  0.00  0.00    +0.044 C 
ATOM     26  C   UNL     1       1.254  -9.113  -0.639  0.00  0.00    +0.044 C 
ENDBRANCH  18  19
ENDBRANCH   9  18
TORSDOF 5
