REMARK  Name = ZINC12856466
REMARK  12 active torsions:
REMARK  status: ('A' for Active; 'I' for Inactive)
REMARK    1  A    between atoms: C_1  and  C_2
REMARK    2  A    between atoms: C_2  and  C_3
REMARK    3  A    between atoms: C_3  and  C_30
REMARK    4  A    between atoms: N_6  and  N_10
REMARK    5  A    between atoms: C_11  and  C_13
REMARK    6  A    between atoms: C_13  and  S_14
REMARK    7  A    between atoms: S_14  and  C_15
REMARK    8  A    between atoms: C_18  and  C_24
REMARK    9  A    between atoms: N_19  and  C_20
REMARK   10  A    between atoms: C_20  and  C_21
REMARK   11  A    between atoms: C_21  and  O_22
REMARK   12  A    between atoms: O_22  and  C_23
REMARK                            x       y       z     vdW  Elec       q    Type
REMARK                         _______ _______ _______ _____ _____    ______ ____
ROOT
ATOM      1  N   UNL     1      -4.338   1.141  -2.217  0.00  0.00    -0.223 N 
ATOM      2  C   UNL     1      -4.212   0.161  -3.134  0.00  0.00    +0.240 C 
ATOM      3  O   UNL     1      -3.484  -0.784  -2.915  0.00  0.00    -0.273 OA
ATOM      4  H   UNL     1      -4.920   1.897  -2.392  0.00  0.00    +0.174 HD
ENDROOT
BRANCH   1   8
ATOM      5  C   UNL     1      -2.116   1.395   0.669  0.00  0.00    +0.139 C 
ATOM      6  C   UNL     1      -2.539   1.807  -0.727  0.00  0.00    +0.268 C 
ATOM      7  O   UNL     1      -2.007   2.631  -1.440  0.00  0.00    -0.271 OA
ATOM      8  N   UNL     1      -3.629   1.067  -1.011  0.00  0.00    -0.137 N 
ATOM      9  C   UNL     1      -3.950   0.253   0.001  0.00  0.00    +0.327 C 
ATOM     10  O   UNL     1      -4.896  -0.510  -0.019  0.00  0.00    -0.251 OA
ATOM     11  N   UNL     1      -3.110   0.375   1.045  0.00  0.00    -0.280 N 
ATOM     12  H   UNL     1      -3.151  -0.114   1.882  0.00  0.00    +0.152 HD
BRANCH   5  13
ATOM     13  C   UNL     1      -0.730   0.803   0.650  0.00  0.00    -0.015 A 
ATOM     14  C   UNL     1       0.372   1.618   0.829  0.00  0.00    +0.006 A 
ATOM     15  C   UNL     1       1.643   1.076   0.805  0.00  0.00    +0.000 A 
ATOM     16  C   UNL     1       1.813  -0.281   0.602  0.00  0.00    +0.000 A 
ATOM     17  C   UNL     1       0.711  -1.096   0.424  0.00  0.00    +0.000 A 
ATOM     18  C   UNL     1      -0.561  -0.554   0.447  0.00  0.00    +0.006 A 
ENDBRANCH   5  13
BRANCH   5  20
ATOM     19  C   UNL     1      -3.618   3.092   1.720  0.00  0.00    +0.007 C 
ATOM     20  C   UNL     1      -2.177   2.589   1.624  0.00  0.00    +0.037 C 
ENDBRANCH   5  20
ENDBRANCH   1   8
BRANCH   2  21
ATOM     21  C   UNL     1      -4.974   0.240  -4.431  0.00  0.00    +0.174 C 
BRANCH  21  22
ATOM     22  S   UNL     1      -4.596  -1.213  -5.443  0.00  0.00    -0.077 S 
BRANCH  22  23
ATOM     23  C   UNL     1      -5.591  -0.869  -6.855  0.00  0.00    +0.192 A 
ATOM     24  N   UNL     1      -6.362   0.181  -7.030  0.00  0.00    -0.122 NA
ATOM     25  N   UNL     1      -6.946   0.115  -8.172  0.00  0.00    -0.128 NA
ATOM     26  C   UNL     1      -6.585  -0.981  -8.798  0.00  0.00    +0.165 A 
ATOM     27  N   UNL     1      -5.702  -1.643  -7.976  0.00  0.00    -0.300 N 
BRANCH  26  28
ATOM     28  C   UNL     1      -7.038  -1.419 -10.135  0.00  0.00    +0.019 A 
ATOM     29  C   UNL     1      -7.606  -0.500 -11.019  0.00  0.00    +0.011 A 
ATOM     30  C   UNL     1      -8.022  -0.915 -12.267  0.00  0.00    +0.001 A 
ATOM     31  C   UNL     1      -7.887  -2.241 -12.640  0.00  0.00    +0.000 A 
ATOM     32  C   UNL     1      -7.329  -3.158 -11.766  0.00  0.00    +0.001 A 
ATOM     33  C   UNL     1      -6.904  -2.755 -10.517  0.00  0.00    +0.011 A 
ENDBRANCH  26  28
BRANCH  27  34
ATOM     34  C   UNL     1      -5.024  -2.913  -8.245  0.00  0.00    +0.154 C 
BRANCH  34  35
ATOM     35  C   UNL     1      -5.843  -4.063  -7.656  0.00  0.00    +0.181 C 
BRANCH  35  36
ATOM     36  O   UNL     1      -5.181  -5.302  -7.918  0.00  0.00    -0.381 OA
ATOM     37  C   UNL     1      -5.867  -6.447  -7.407  0.00  0.00    +0.194 C 
ENDBRANCH  35  36
ENDBRANCH  34  35
ENDBRANCH  27  34
ENDBRANCH  22  23
ENDBRANCH  21  22
ENDBRANCH   2  21
TORSDOF 10
