REMARK  Name = ZINC07132205
REMARK  11 active torsions:
REMARK  status: ('A' for Active; 'I' for Inactive)
REMARK    1  A    between atoms: C_1  and  C_2
REMARK    2  A    between atoms: C_2  and  C_4
REMARK    3  A    between atoms: C_2  and  O_18
REMARK    4  A    between atoms: N_6  and  C_7
REMARK    5  A    between atoms: C_8  and  C_15
REMARK    6  A    between atoms: O_18  and  C_19
REMARK    7  A    between atoms: C_19  and  C_21
REMARK    8  A    between atoms: C_26  and  N_27
REMARK    9  A    between atoms: N_27  and  C_28
REMARK   10  A    between atoms: C_28  and  C_29
REMARK   11  A    between atoms: C_29  and  O_30
REMARK                            x       y       z     vdW  Elec       q    Type
REMARK                         _______ _______ _______ _____ _____    ______ ____
ROOT
ATOM      1  C   UNL     1       3.070   5.886  -1.252  0.00  0.00    +0.062 C 
ATOM      2  C   UNL     1       2.317   5.745   0.073  0.00  0.00    +0.259 C 
ENDROOT
BRANCH   2   3
ATOM      3  C   UNL     1       1.600   4.420   0.106  0.00  0.00    +0.258 C 
ATOM      4  O   UNL     1       0.388   4.387   0.131  0.00  0.00    -0.271 OA
ATOM      5  N   UNL     1       2.306   3.272   0.107  0.00  0.00    -0.276 N 
ATOM      6  H   UNL     1       3.276   3.298   0.086  0.00  0.00    +0.155 HD
BRANCH   5   7
ATOM      7  C   UNL     1       1.646   2.052   0.137  0.00  0.00    +0.084 A 
ATOM      8  C   UNL     1       2.191   0.779   0.143  0.00  0.00    +0.068 A 
ATOM      9  C   UNL     1       1.265  -0.352   0.177  0.00  0.00    -0.023 A 
ATOM     10  C   UNL     1      -0.039  -0.024   0.199  0.00  0.00    -0.004 A 
ATOM     11  S   UNL     1      -0.058   1.752   0.175  0.00  0.00    -0.077 S 
ATOM     12  C   UNL     1      -0.926  -1.238   0.237  0.00  0.00    +0.043 C 
ATOM     13  C   UNL     1       0.007  -2.389   0.672  0.00  0.00    +0.010 C 
ATOM     14  C   UNL     1       1.381  -1.877   0.193  0.00  0.00    +0.037 C 
BRANCH   8  15
ATOM     15  C   UNL     1       3.642   0.574   0.118  0.00  0.00    +0.244 C 
ATOM     16  O   UNL     1       4.224   0.474  -0.947  0.00  0.00    -0.270 OA
ATOM     17  N   UNL     1       4.332   0.495   1.273  0.00  0.00    -0.325 N 
ATOM     18  H   UNL     1       3.868   0.574   2.121  0.00  0.00    +0.145 HD
ATOM     19  H   UNL     1       5.292   0.359   1.256  0.00  0.00    +0.145 HD
ENDBRANCH   8  15
ENDBRANCH   5   7
ENDBRANCH   2   3
BRANCH   2  20
ATOM     20  O   UNL     1       1.351   6.821   0.198  0.00  0.00    -0.449 OA
BRANCH  20  21
ATOM     21  C   UNL     1       1.772   7.955   0.793  0.00  0.00    +0.342 C 
ATOM     22  O   UNL     1       2.915   8.042   1.196  0.00  0.00    -0.245 OA
BRANCH  21  23
ATOM     23  C   UNL     1       0.846   9.089   0.954  0.00  0.00    +0.080 A 
ATOM     24  C   UNL     1      -0.430   9.042   0.386  0.00  0.00    +0.017 A 
ATOM     25  C   UNL     1      -1.293  10.104   0.545  0.00  0.00    +0.001 A 
ATOM     26  C   UNL     1      -0.899  11.226   1.257  0.00  0.00    +0.002 A 
ATOM     27  C   UNL     1       0.359  11.291   1.819  0.00  0.00    +0.024 A 
ATOM     28  C   UNL     1       1.242  10.228   1.674  0.00  0.00    +0.041 A 
BRANCH  28  29
ATOM     29  N   UNL     1       2.509  10.291   2.239  0.00  0.00    -0.341 N 
ATOM     30  H   UNL     1       3.152   9.585   2.067  0.00  0.00    +0.146 HD
BRANCH  29  31
ATOM     31  C   UNL     1       2.875  11.424   3.092  0.00  0.00    +0.129 C 
BRANCH  31  32
ATOM     32  C   UNL     1       4.314  11.250   3.581  0.00  0.00    +0.174 C 
BRANCH  32  33
ATOM     33  O   UNL     1       5.206  11.313   2.467  0.00  0.00    -0.393 OA
ATOM     34  H   UNL     1       6.138  11.210   2.703  0.00  0.00    +0.209 HD
ENDBRANCH  32  33
ENDBRANCH  31  32
ENDBRANCH  29  31
ENDBRANCH  28  29
ENDBRANCH  21  23
ENDBRANCH  20  21
ENDBRANCH   2  20
TORSDOF 10
