REMARK  Name = ZINC39533573
REMARK  12 active torsions:
REMARK  status: ('A' for Active; 'I' for Inactive)
REMARK    1  A    between atoms: C_1  and  C_2
REMARK    2  A    between atoms: C_2  and  C_3
REMARK    3  A    between atoms: C_2  and  C_4
REMARK    4  A    between atoms: C_4  and  C_5
REMARK    5  A    between atoms: C_8  and  C_11
REMARK    6  A    between atoms: C_11  and  C_13
REMARK    7  A    between atoms: C_11  and  N_16
REMARK    8  A    between atoms: C_13  and  N_14
REMARK    9  A    between atoms: N_14  and  O_15
REMARK   10  A    between atoms: C_20  and  S_23
REMARK   11  A    between atoms: S_23  and  O_26
REMARK   12  A    between atoms: O_26  and  C_27
REMARK                            x       y       z     vdW  Elec       q    Type
REMARK                         _______ _______ _______ _____ _____    ______ ____
ROOT
ATOM      1  N   UNL     1      -2.408  -0.172   6.829  0.00  0.00    -0.296 NA
ATOM      2  C   UNL     1      -3.548  -0.968   6.353  0.00  0.00    +0.066 C 
ATOM      3  C   UNL     1      -3.690  -2.221   7.219  0.00  0.00    -0.064 C 
ATOM      4  N   UNL     1      -3.896  -1.827   8.619  0.00  0.00    +0.398 N 
ATOM      5  C   UNL     1      -2.739  -1.055   9.088  0.00  0.00    +0.130 C 
ATOM      6  C   UNL     1      -2.589   0.208   8.237  0.00  0.00    +0.095 C 
ATOM      7  H   UNL     1      -4.729  -1.262   8.690  0.00  0.00    -0.083 HD
ATOM      8  H   UNL     1      -4.002  -2.654   9.189  0.00  0.00    -0.083 HD
ENDROOT
BRANCH   5   9
ATOM      9  S   UNL     1      -2.986  -0.589  10.824  0.00  0.00    +0.109 S 
ATOM     10  O   UNL     1      -1.804   0.002  11.345  0.00  0.00    -0.138 OA
ATOM     11  O   UNL     1      -4.246   0.048  10.985  0.00  0.00    -0.138 OA
BRANCH   9  12
ATOM     12  O   UNL     1      -3.121  -1.909  11.569  0.00  0.00    -0.347 OA
BRANCH  12  13
ATOM     13  C   UNL     1      -1.946  -2.571  11.738  0.00  0.00    +0.156 A 
ATOM     14  C   UNL     1      -1.513  -3.475  10.778  0.00  0.00    +0.048 A 
ATOM     15  C   UNL     1      -0.318  -4.146  10.953  0.00  0.00    +0.004 A 
ATOM     16  C   UNL     1       0.447  -3.917  12.082  0.00  0.00    +0.000 A 
ATOM     17  C   UNL     1       0.017  -3.017  13.039  0.00  0.00    +0.004 A 
ATOM     18  C   UNL     1      -1.174  -2.339  12.867  0.00  0.00    +0.048 A 
ENDBRANCH  12  13
ENDBRANCH   9  12
ENDBRANCH   5   9
BRANCH   1  19
ATOM     19  C   UNL     1      -2.204   1.013   5.986  0.00  0.00    +0.103 C 
BRANCH  19  23
ATOM     20  C   UNL     1       0.166  -0.045   2.593  0.00  0.00    -0.047 A 
ATOM     21  C   UNL     1       0.059   1.279   2.976  0.00  0.00    +0.004 A 
ATOM     22  C   UNL     1      -0.708   1.621   4.074  0.00  0.00    +0.005 A 
ATOM     23  C   UNL     1      -1.368   0.640   4.789  0.00  0.00    -0.029 A 
ATOM     24  C   UNL     1      -1.262  -0.684   4.406  0.00  0.00    +0.005 A 
ATOM     25  C   UNL     1      -0.498  -1.026   3.305  0.00  0.00    +0.004 A 
BRANCH  20  26
ATOM     26  C   UNL     1       1.003  -0.418   1.397  0.00  0.00    +0.038 C 
BRANCH  26  28
ATOM     27  C   UNL     1      -0.329   1.050  -0.124  0.00  0.00    +0.007 C 
ATOM     28  C   UNL     1       0.135  -0.385   0.137  0.00  0.00    -0.013 C 
ATOM     29  C   UNL     1       0.950  -0.883  -1.058  0.00  0.00    +0.007 C 
ENDBRANCH  26  28
ENDBRANCH  20  26
ENDBRANCH  19  23
BRANCH  19  30
ATOM     30  C   UNL     1      -3.559   1.544   5.516  0.00  0.00    +0.134 C 
BRANCH  30  31
ATOM     31  N   UNL     1      -4.372   1.913   6.683  0.00  0.00    -0.202 NA
ATOM     32  H   UNL     1      -4.575   1.105   7.252  0.00  0.00    +0.154 HD
BRANCH  31  33
ATOM     33  O   UNL     1      -5.603   2.589   6.273  0.00  0.00    -0.315 OA
ATOM     34  H   UNL     1      -6.172   2.851   7.009  0.00  0.00    +0.236 HD
ENDBRANCH  31  33
ENDBRANCH  30  31
ENDBRANCH  19  30
ENDBRANCH   1  19
TORSDOF 10
