REMARK  Name = ZINC63393535
REMARK  12 active torsions:
REMARK  status: ('A' for Active; 'I' for Inactive)
REMARK    1  A    between atoms: C_1  and  C_2
REMARK    2  A    between atoms: C_8  and  C_11
REMARK    3  A    between atoms: C_11  and  C_12
REMARK    4  A    between atoms: C_12  and  N_13
REMARK    5  A    between atoms: C_15  and  C_20
REMARK    6  A    between atoms: N_22  and  C_23
REMARK    7  A    between atoms: C_26  and  S_29
REMARK    8  A    between atoms: S_29  and  N_32
REMARK    9  A    between atoms: N_32  and  C_33
REMARK   10  A    between atoms: C_33  and  C_34
REMARK   11  A    between atoms: C_33  and  C_35
REMARK   12  A    between atoms: C_33  and  C_36
REMARK                            x       y       z     vdW  Elec       q    Type
REMARK                         _______ _______ _______ _____ _____    ______ ____
ROOT
ATOM      1  N   UNL     1       2.188  -1.309   5.648  0.00  0.00    -0.300 N 
ATOM      2  C   UNL     1       2.191  -2.515   6.484  0.00  0.00    +0.121 C 
ATOM      3  C   UNL     1       0.960  -2.380   7.407  0.00  0.00    +0.101 C 
ATOM      4  C   UNL     1       0.769  -0.847   7.455  0.00  0.00    +0.110 C 
ATOM      5  C   UNL     1       1.407  -0.351   6.176  0.00  0.00    +0.216 C 
ATOM      6  O   UNL     1       1.236   0.749   5.695  0.00  0.00    -0.276 OA
ENDROOT
BRANCH   3   7
ATOM      7  C   UNL     1       1.251  -2.932   8.779  0.00  0.00    +0.222 C 
ATOM      8  O   UNL     1       2.343  -3.399   9.025  0.00  0.00    -0.275 OA
ATOM      9  N   UNL     1       0.298  -2.905   9.732  0.00  0.00    -0.285 N 
ATOM     10  H   UNL     1      -0.550  -2.470   9.557  0.00  0.00    +0.155 HD
BRANCH   9  11
ATOM     11  C   UNL     1       0.534  -3.506  10.974  0.00  0.00    +0.034 A 
ATOM     12  C   UNL     1      -0.499  -4.148  11.643  0.00  0.00    +0.025 A 
ATOM     13  C   UNL     1      -0.264  -4.740  12.868  0.00  0.00    +0.030 A 
ATOM     14  C   UNL     1       1.000  -4.694  13.428  0.00  0.00    +0.105 A 
ATOM     15  C   UNL     1       2.031  -4.056  12.765  0.00  0.00    +0.030 A 
ATOM     16  C   UNL     1       1.803  -3.467  11.536  0.00  0.00    +0.025 A 
BRANCH  14  17
ATOM     17  S   UNL     1       1.296  -5.451  14.992  0.00  0.00    +0.059 S 
ATOM     18  O   UNL     1       2.585  -5.023  15.412  0.00  0.00    -0.153 OA
ATOM     19  O   UNL     1       0.130  -5.238  15.774  0.00  0.00    -0.153 OA
BRANCH  17  20
ATOM     20  N   UNL     1       1.401  -7.084  14.734  0.00  0.00    -0.185 NA
ATOM     21  H   UNL     1       0.672  -7.665  15.003  0.00  0.00    +0.149 HD
BRANCH  20  22
ATOM     22  C   UNL     1       2.594  -7.650  14.099  0.00  0.00    +0.032 C 
ATOM     23  C   UNL     1       3.795  -7.485  15.032  0.00  0.00    +0.029 C 
ATOM     24  C   UNL     1       2.365  -9.137  13.819  0.00  0.00    +0.029 C 
ATOM     25  C   UNL     1       2.866  -6.919  12.783  0.00  0.00    +0.029 C 
ENDBRANCH  20  22
ENDBRANCH  17  20
ENDBRANCH  14  17
ENDBRANCH   9  11
ENDBRANCH   3   7
BRANCH   1  26
ATOM     26  C   UNL     1       2.945  -1.165   4.402  0.00  0.00    +0.112 C 
BRANCH  26  27
ATOM     27  C   UNL     1       4.335  -0.604   4.712  0.00  0.00    +0.052 C 
BRANCH  27  35
ATOM     28  C   UNL     1       4.422   4.333   2.008  0.00  0.00    +0.044 C 
ATOM     29  C   UNL     1       4.980   2.940   1.869  0.00  0.00    -0.050 A 
ATOM     30  C   UNL     1       5.793   2.636   0.768  0.00  0.00    +0.005 A 
ATOM     31  C   UNL     1       6.330   1.413   0.573  0.00  0.00    +0.026 A 
ATOM     32  C   UNL     1       6.084   0.364   1.501  0.00  0.00    +0.043 A 
ATOM     33  N   UNL     1       6.482  -0.884   1.533  0.00  0.00    -0.380 N 
ATOM     34  C   UNL     1       5.924  -1.524   2.730  0.00  0.00    +0.144 C 
ATOM     35  C   UNL     1       5.114  -0.456   3.430  0.00  0.00    -0.040 C 
ATOM     36  C   UNL     1       5.228   0.659   2.673  0.00  0.00    -0.001 A 
ATOM     37  C   UNL     1       4.688   2.017   2.813  0.00  0.00    +0.013 A 
ATOM     38  H   UNL     1       7.051  -1.314   0.875  0.00  0.00    +0.160 HD
ENDBRANCH  27  35
ENDBRANCH  26  27
ENDBRANCH   1  26
TORSDOF 8
