REMARK  Name = ZINC66579124
REMARK  8 active torsions:
REMARK  status: ('A' for Active; 'I' for Inactive)
REMARK    1  A    between atoms: C_1  and  C_2
REMARK    2  A    between atoms: C_5  and  C_16
REMARK    3  A    between atoms: C_7  and  N_8
REMARK    4  A    between atoms: N_8  and  S_9
REMARK    5  A    between atoms: S_9  and  C_12
REMARK    6  A    between atoms: C_12  and  C_13
REMARK    7  A    between atoms: C_13  and  C_14
REMARK    8  A    between atoms: C_13  and  C_15
REMARK                            x       y       z     vdW  Elec       q    Type
REMARK                         _______ _______ _______ _____ _____    ______ ____
ROOT
ATOM      1  C   UNL     1      -0.019   1.503   0.010  0.00  0.00    +0.046 C 
ATOM      2  C   UNL     1       0.002  -0.004   0.002  0.00  0.00    -0.026 A 
ATOM      3  C   UNL     1      -0.020  -0.687  -1.200  0.00  0.00    +0.006 A 
ATOM      4  C   UNL     1      -0.001  -2.067  -1.215  0.00  0.00    +0.012 A 
ATOM      5  C   UNL     1       0.039  -2.778  -0.015  0.00  0.00    +0.021 A 
ATOM      6  C   UNL     1       0.061  -2.090   1.197  0.00  0.00    +0.038 A 
ATOM      7  C   UNL     1       0.048  -0.703   1.203  0.00  0.00    +0.077 A 
ENDROOT
BRANCH   5   8
ATOM      8  C   UNL     1       0.058  -4.257  -0.029  0.00  0.00    +0.164 A 
ATOM      9  N   UNL     1       0.429  -5.046   0.957  0.00  0.00    -0.129 NA
ATOM     10  N   UNL     1       0.310  -6.277   0.597  0.00  0.00    -0.134 NA
ATOM     11  C   UNL     1      -0.142  -6.341  -0.624  0.00  0.00    +0.134 A 
ATOM     12  N   UNL     1      -0.311  -5.066  -1.064  0.00  0.00    -0.311 N 
ATOM     13  C   UNL     1      -0.777  -4.655  -2.388  0.00  0.00    +0.125 C 
ATOM     14  C   UNL     1      -1.690  -5.742  -2.964  0.00  0.00    +0.022 C 
ATOM     15  C   UNL     1      -0.855  -6.758  -3.740  0.00  0.00    +0.002 C 
ATOM     16  C   UNL     1       0.151  -7.441  -2.820  0.00  0.00    +0.008 C 
ATOM     17  C   UNL     1      -0.443  -7.585  -1.420  0.00  0.00    +0.076 C 
ENDBRANCH   5   8
BRANCH   7  18
ATOM     18  N   UNL     1       0.076  -0.009   2.414  0.00  0.00    -0.102 NA
BRANCH  18  19
ATOM     19  S   UNL     1       0.131  -0.841   3.845  0.00  0.00    +0.063 S 
ATOM     20  O   UNL     1      -1.093  -1.561   3.892  0.00  0.00    -0.154 OA
ATOM     21  O   UNL     1       1.375  -1.528   3.817  0.00  0.00    -0.154 OA
BRANCH  19  22
ATOM     22  C   UNL     1       0.153   0.439   5.129  0.00  0.00    +0.193 C 
BRANCH  22  23
ATOM     23  C   UNL     1       0.204  -0.222   6.508  0.00  0.00    +0.006 C 
ATOM     24  C   UNL     1       1.527  -0.975   6.664  0.00  0.00    +0.009 C 
ATOM     25  C   UNL     1       0.097   0.852   7.593  0.00  0.00    +0.009 C 
ENDBRANCH  22  23
ENDBRANCH  19  22
ENDBRANCH  18  19
ENDBRANCH   7  18
TORSDOF 5
