REMARK  Name = ZINC24965920
REMARK  10 active torsions:
REMARK  status: ('A' for Active; 'I' for Inactive)
REMARK    1  A    between atoms: C_1  and  C_2
REMARK    2  A    between atoms: C_2  and  C_3
REMARK    3  A    between atoms: C_2  and  C_4
REMARK    4  A    between atoms: C_4  and  C_6
REMARK    5  A    between atoms: C_4  and  N_13
REMARK    6  A    between atoms: C_14  and  C_16
REMARK    7  A    between atoms: N_19  and  S_22
REMARK    8  A    between atoms: S_22  and  C_25
REMARK    9  A    between atoms: C_27  and  C_31
REMARK   10  A    between atoms: N_28  and  C_30
REMARK                            x       y       z     vdW  Elec       q    Type
REMARK                         _______ _______ _______ _____ _____    ______ ____
ROOT
ATOM      1  C   UNL     1      -6.932   0.156   4.368  0.00  0.00    +0.077 C 
ATOM      2  C   UNL     1      -6.443   1.435   3.684  0.00  0.00    +0.030 C 
ATOM      3  C   UNL     1      -7.162   1.597   2.341  0.00  0.00    +0.110 C 
ATOM      4  N   UNL     1      -6.965   0.375   1.549  0.00  0.00    -0.176 NA
ATOM      5  C   UNL     1      -7.324  -0.919   2.145  0.00  0.00    +0.110 C 
ATOM      6  C   UNL     1      -6.598  -1.054   3.493  0.00  0.00    +0.030 C 
ENDROOT
BRANCH   1   8
ATOM      7  N   UNL     1      -6.531  -1.048   6.491  0.00  0.00    -0.308 N 
ATOM      8  C   UNL     1      -6.253   0.011   5.705  0.00  0.00    +0.217 C 
ATOM      9  O   UNL     1      -5.456   0.847   6.075  0.00  0.00    -0.275 OA
ATOM     10  H   UNL     1      -7.254  -1.807   6.156  0.00  0.00    +0.149 HD
BRANCH   7  11
ATOM     11  C   UNL     1      -5.870  -1.189   7.791  0.00  0.00    +0.106 C 
BRANCH  11  12
ATOM     12  C   UNL     1      -5.841  -2.644   8.184  0.00  0.00    -0.027 A 
ATOM     13  C   UNL     1      -6.941  -3.446   7.945  0.00  0.00    +0.007 A 
ATOM     14  C   UNL     1      -6.912  -4.782   8.300  0.00  0.00    +0.020 A 
ATOM     15  C   UNL     1      -5.787  -5.313   8.906  0.00  0.00    +0.041 A 
ATOM     16  C   UNL     1      -4.689  -4.507   9.151  0.00  0.00    +0.020 A 
ATOM     17  C   UNL     1      -4.716  -3.174   8.790  0.00  0.00    +0.007 A 
ATOM     18 CL   UNL     1      -5.754  -6.988   9.360  0.00  0.00    -0.084 Cl
ENDBRANCH  11  12
BRANCH  11  20
ATOM     19  C   UNL     1      -6.671   1.085   8.445  0.00  0.00    +0.009 C 
ATOM     20  C   UNL     1      -6.641  -0.392   8.845  0.00  0.00    +0.008 C 
ATOM     21  C   UNL     1      -8.073  -0.923   8.940  0.00  0.00    +0.009 C 
ENDBRANCH  11  20
ENDBRANCH   7  11
ENDBRANCH   1   8
BRANCH   4  22
ATOM     22  S   UNL     1      -6.357   0.456   0.010  0.00  0.00    +0.062 S 
ATOM     23  O   UNL     1      -6.643   1.762  -0.471  0.00  0.00    -0.153 OA
ATOM     24  O   UNL     1      -6.797  -0.717  -0.662  0.00  0.00    -0.153 OA
BRANCH  22  25
ATOM     25  C   UNL     1      -4.604   0.337   0.136  0.00  0.00    +0.124 A 
ATOM     26  C   UNL     1      -3.715   1.406   0.287  0.00  0.00    +0.061 A 
ATOM     27  C   UNL     1      -2.445   0.872   0.340  0.00  0.00    +0.106 A 
ATOM     28  N   UNL     1      -2.565  -0.495   0.232  0.00  0.00    -0.344 N 
ATOM     29  C   UNL     1      -3.878  -0.806   0.109  0.00  0.00    +0.114 A 
ATOM     30  C   UNL     1      -1.457  -1.454   0.248  0.00  0.00    +0.149 C 
BRANCH  27  31
ATOM     31  C   UNL     1      -1.194   1.624   0.489  0.00  0.00    +0.258 C 
ATOM     32  O   UNL     1      -0.126   1.044   0.437  0.00  0.00    -0.269 OA
ATOM     33  N   UNL     1      -1.228   2.957   0.685  0.00  0.00    -0.324 N 
ATOM     34  H   UNL     1      -0.291   3.520   0.797  0.00  0.00    +0.145 HD
ATOM     35  H   UNL     1      -2.194   3.481   0.732  0.00  0.00    +0.145 HD
ENDBRANCH  27  31
ENDBRANCH  22  25
ENDBRANCH   4  22
TORSDOF 7
