REMARK  Name = ZINC09831182
REMARK  6 active torsions:
REMARK  status: ('A' for Active; 'I' for Inactive)
REMARK    1  A    between atoms: C_1  and  C_2
REMARK    2  A    between atoms: C_2  and  C_3
REMARK    3  A    between atoms: C_8  and  N_9
REMARK    4  A    between atoms: C_10  and  C_12
REMARK    5  A    between atoms: N_15  and  S_18
REMARK    6  A    between atoms: S_18  and  C_21
REMARK                            x       y       z     vdW  Elec       q    Type
REMARK                         _______ _______ _______ _____ _____    ______ ____
ROOT
ATOM      1  C   UNL     1       2.596   7.965   4.266  0.00  0.00    +0.078 C 
ATOM      2  C   UNL     1       3.505   7.636   3.080  0.00  0.00    +0.030 C 
ATOM      3  C   UNL     1       3.080   8.472   1.869  0.00  0.00    +0.110 C 
ATOM      4  N   UNL     1       1.651   8.245   1.615  0.00  0.00    -0.177 NA
ATOM      5  C   UNL     1       0.697   8.451   2.713  0.00  0.00    +0.110 C 
ATOM      6  C   UNL     1       1.149   7.609   3.917  0.00  0.00    +0.030 C 
ENDROOT
BRANCH   1   8
ATOM      7  N   UNL     1       2.373   7.297   6.637  0.00  0.00    -0.285 N 
ATOM      8  C   UNL     1       3.032   7.168   5.469  0.00  0.00    +0.220 C 
ATOM      9  O   UNL     1       3.977   6.412   5.385  0.00  0.00    -0.275 OA
ATOM     10  H   UNL     1       1.670   7.959   6.727  0.00  0.00    +0.155 HD
BRANCH   7  16
ATOM     11  C   UNL     1       2.447   6.898   9.018  0.00  0.00    -0.026 A 
ATOM     12  C   UNL     1       2.768   6.081  10.085  0.00  0.00    +0.005 A 
ATOM     13  C   UNL     1       3.354   4.849   9.863  0.00  0.00    +0.000 A 
ATOM     14  C   UNL     1       3.616   4.427   8.572  0.00  0.00    +0.002 A 
ATOM     15  C   UNL     1       3.292   5.236   7.500  0.00  0.00    +0.023 A 
ATOM     16  C   UNL     1       2.703   6.475   7.721  0.00  0.00    +0.037 A 
BRANCH  11  18
ATOM     17  C   UNL     1       0.292   8.117   9.160  0.00  0.00    +0.009 C 
ATOM     18  C   UNL     1       1.813   8.243   9.262  0.00  0.00    +0.033 C 
ENDBRANCH  11  18
ENDBRANCH   7  16
ENDBRANCH   1   8
BRANCH   4  19
ATOM     19  S   UNL     1       1.124   7.774   0.117  0.00  0.00    +0.061 S 
ATOM     20  O   UNL     1       2.111   8.200  -0.813  0.00  0.00    -0.153 OA
ATOM     21  O   UNL     1      -0.236   8.173   0.021  0.00  0.00    -0.153 OA
BRANCH  19  22
ATOM     22  C   UNL     1       1.135   6.012   0.092  0.00  0.00    +0.106 A 
ATOM     23  C   UNL     1       2.269   5.335  -0.320  0.00  0.00    +0.030 A 
ATOM     24  C   UNL     1       2.282   3.955  -0.341  0.00  0.00    +0.025 A 
ATOM     25  C   UNL     1       1.154   3.246   0.051  0.00  0.00    +0.037 A 
ATOM     26  C   UNL     1       0.017   3.929   0.464  0.00  0.00    -0.024 A 
ATOM     27  C   UNL     1       0.011   5.309   0.483  0.00  0.00    +0.034 A 
ATOM     28  C   UNL     1      -1.206   3.159   0.890  0.00  0.00    +0.046 C 
ATOM     29  C   UNL     1      -1.319   1.879   0.057  0.00  0.00    +0.101 C 
ATOM     30  C   UNL     1       0.003   1.161   0.047  0.00  0.00    +0.218 C 
ATOM     31  O   UNL     1       0.027  -0.052   0.046  0.00  0.00    -0.275 OA
ATOM     32  N   UNL     1       1.160   1.848   0.033  0.00  0.00    -0.285 N 
ATOM     33  H   UNL     1       2.004   1.370   0.010  0.00  0.00    +0.155 HD
ENDBRANCH  19  22
ENDBRANCH   4  19
TORSDOF 5
