REMARK  Name = ZINC39127782
REMARK  6 active torsions:
REMARK  status: ('A' for Active; 'I' for Inactive)
REMARK    1  A    between atoms: C_1  and  C_2
REMARK    2  A    between atoms: C_3  and  C_18
REMARK    3  A    between atoms: C_4  and  O_17
REMARK    4  A    between atoms: C_5  and  C_16
REMARK    5  A    between atoms: N_11  and  S_12
REMARK    6  A    between atoms: S_12  and  C_15
REMARK                            x       y       z     vdW  Elec       q    Type
REMARK                         _______ _______ _______ _____ _____    ______ ____
ROOT
ATOM      1  C   UNL     1       0.438   1.473  -0.054  0.00  0.00    +0.046 C 
ATOM      2  C   UNL     1       0.222  -0.018  -0.029  0.00  0.00    -0.020 A 
ATOM      3  C   UNL     1      -0.099  -0.676  -1.193  0.00  0.00    -0.004 A 
ATOM      4  C   UNL     1      -0.305  -2.049  -1.209  0.00  0.00    +0.124 A 
ATOM      5  C   UNL     1      -0.184  -2.762  -0.024  0.00  0.00    +0.007 A 
ATOM      6  C   UNL     1       0.137  -2.100   1.137  0.00  0.00    +0.046 A 
ATOM      7  C   UNL     1       0.356  -0.717   1.182  0.00  0.00    +0.059 A 
ATOM      8  N   UNL     1       0.678  -0.191   2.426  0.00  0.00    -0.332 N 
ATOM      9  C   UNL     1       0.769  -1.020   3.517  0.00  0.00    +0.192 A 
ATOM     10  S   UNL     1       0.383  -2.617   2.819  0.00  0.00    -0.048 S 
ATOM     11  N   UNL     1       1.058  -0.716   4.755  0.00  0.00    -0.108 NA
ATOM     12  C   UNL     1      -0.403  -4.253  -0.010  0.00  0.00    +0.049 C 
ATOM     13  C   UNL     1      -0.228   0.107  -2.474  0.00  0.00    +0.048 C 
ATOM     14  H   UNL     1       0.839   0.760   2.525  0.00  0.00    +0.168 HD
ENDROOT
BRANCH  11  15
ATOM     15  S   UNL     1       1.108  -1.902   5.909  0.00  0.00    +0.069 S 
ATOM     16  O   UNL     1      -0.223  -2.395   5.981  0.00  0.00    -0.152 OA
ATOM     17  O   UNL     1       2.175  -2.752   5.510  0.00  0.00    -0.152 OA
ATOM     18  C   UNL     1       1.538  -1.040   7.446  0.00  0.00    +0.223 C 
ENDBRANCH  11  15
BRANCH   4  19
ATOM     19  O   UNL     1      -0.623  -2.685  -2.368  0.00  0.00    -0.506 OA
ATOM     20  H   UNL     1       0.144  -2.997  -2.869  0.00  0.00    +0.292 HD
ENDBRANCH   4  19
TORSDOF 2
