REMARK  Name = ZINC33937258
REMARK  13 active torsions:
REMARK  status: ('A' for Active; 'I' for Inactive)
REMARK    1  A    between atoms: C_1  and  C_2
REMARK    2  A    between atoms: C_7  and  C_15
REMARK    3  A    between atoms: C_13  and  C_14
REMARK    4  A    between atoms: C_15  and  N_16
REMARK    5  A    between atoms: N_16  and  C_17
REMARK    6  A    between atoms: N_16  and  C_24
REMARK    7  A    between atoms: C_17  and  C_18
REMARK    8  A    between atoms: C_24  and  C_26
REMARK    9  A    between atoms: C_24  and  C_37
REMARK   10  A    between atoms: N_30  and  C_31
REMARK   11  A    between atoms: C_31  and  C_32
REMARK   12  A    between atoms: C_37  and  C_38
REMARK   13  A    between atoms: C_37  and  C_39
REMARK                            x       y       z     vdW  Elec       q    Type
REMARK                         _______ _______ _______ _____ _____    ______ ____
ROOT
ATOM      1  N   UNL     1       0.528  -7.119   1.129  0.00  0.00    +0.391 N 
ATOM      2  H   UNL     1       0.802  -6.404   1.786  0.00  0.00    -0.080 HD
ENDROOT
BRANCH   1   3
ATOM      3  C   UNL     1      -0.892  -6.955   0.790  0.00  0.00    -0.036 C 
BRANCH   3  10
ATOM      4  C   UNL     1      -3.018 -12.454  -4.583  0.00  0.00    +0.044 C 
ATOM      5  C   UNL     1      -2.680 -11.573  -3.408  0.00  0.00    -0.046 A 
ATOM      6  C   UNL     1      -2.874 -12.045  -2.117  0.00  0.00    +0.004 A 
ATOM      7  C   UNL     1      -2.574 -11.263  -1.038  0.00  0.00    +0.010 A 
ATOM      8  C   UNL     1      -2.066  -9.975  -1.235  0.00  0.00    -0.001 A 
ATOM      9  C   UNL     1      -1.733  -9.110  -0.102  0.00  0.00    +0.017 A 
ATOM     10  C   UNL     1      -1.244  -7.871  -0.354  0.00  0.00    +0.001 A 
ATOM     11  C   UNL     1      -1.065  -7.435  -1.684  0.00  0.00    +0.251 A 
ATOM     12  O   UNL     1      -0.624  -6.317  -1.889  0.00  0.00    -0.268 OA
ATOM     13  N   UNL     1      -1.367  -8.222  -2.731  0.00  0.00    -0.322 N 
ATOM     14  H   UNL     1      -1.232  -7.891  -3.633  0.00  0.00    +0.169 HD
ATOM     15  C   UNL     1      -1.868  -9.492  -2.542  0.00  0.00    +0.052 A 
ATOM     16  C   UNL     1      -2.176 -10.309  -3.626  0.00  0.00    -0.024 A 
ATOM     17  C   UNL     1      -1.964  -9.811  -5.032  0.00  0.00    +0.046 C 
ENDBRANCH   3  10
ENDBRANCH   1   3
BRANCH   1  18
ATOM     18  C   UNL     1       1.339  -6.999  -0.091  0.00  0.00    -0.045 C 
BRANCH  18  19
ATOM     19  C   UNL     1       1.634  -5.522  -0.364  0.00  0.00    +0.102 C 
ATOM     20  C   UNL     1       2.315  -5.357  -1.746  0.00  0.00    +0.032 C 
ATOM     21  C   UNL     1       1.934  -3.890  -2.088  0.00  0.00    +0.030 C 
ATOM     22  C   UNL     1       0.530  -3.762  -1.460  0.00  0.00    +0.160 C 
ATOM     23  O   UNL     1       0.409  -4.777  -0.455  0.00  0.00    -0.378 OA
ENDBRANCH  18  19
ENDBRANCH   1  18
BRANCH   1  24
ATOM     24  C   UNL     1       0.740  -8.443   1.729  0.00  0.00    +0.006 C 
BRANCH  24  25
ATOM     25  C   UNL     1       0.445  -9.510   0.707  0.00  0.00    +0.139 A 
ATOM     26  N   UNL     1       0.782  -9.496  -0.560  0.00  0.00    -0.115 NA
ATOM     27  N   UNL     1       0.351 -10.584  -1.099  0.00  0.00    -0.023 NA
ATOM     28  N   UNL     1      -0.252 -11.292  -0.209  0.00  0.00    -0.044 NA
ATOM     29  N   UNL     1      -0.210 -10.667   0.919  0.00  0.00    -0.223 N 
BRANCH  29  30
ATOM     30  C   UNL     1      -0.774 -11.127   2.190  0.00  0.00    +0.221 C 
BRANCH  30  31
ATOM     31  C   UNL     1      -2.175 -10.590   2.342  0.00  0.00    +0.126 A 
ATOM     32  C   UNL     1      -3.305 -11.234   2.002  0.00  0.00    +0.046 A 
ATOM     33  C   UNL     1      -4.379 -10.369   2.314  0.00  0.00    +0.041 A 
ATOM     34  C   UNL     1      -3.840  -9.248   2.825  0.00  0.00    +0.195 A 
ATOM     35  O   UNL     1      -2.505  -9.389   2.846  0.00  0.00    -0.466 OA
ENDBRANCH  30  31
ENDBRANCH  29  30
ENDBRANCH  24  25
BRANCH  24  36
ATOM     36  C   UNL     1       2.193  -8.567   2.191  0.00  0.00    -0.024 C 
ATOM     37  C   UNL     1       2.463  -7.549   3.301  0.00  0.00    +0.006 C 
ATOM     38  C   UNL     1       2.439  -9.979   2.724  0.00  0.00    +0.006 C 
ENDBRANCH  24  36
ENDBRANCH   1  24
TORSDOF 9
