REMARK  Name = ZINC67317622
REMARK  6 active torsions:
REMARK  status: ('A' for Active; 'I' for Inactive)
REMARK    1  A    between atoms: C_3  and  O_26
REMARK    2  A    between atoms: C_6  and  C_7
REMARK    3  A    between atoms: N_14  and  C_17
REMARK    4  A    between atoms: C_17  and  C_18
REMARK    5  A    between atoms: N_20  and  C_21
REMARK    6  A    between atoms: O_26  and  C_27
REMARK                            x       y       z     vdW  Elec       q    Type
REMARK                         _______ _______ _______ _____ _____    ______ ____
ROOT
ATOM      1  C   UNL     1      -1.268  -0.763   0.011  0.00  0.00    +0.168 C 
ATOM      2  N   UNL     1      -2.443  -0.222   0.020  0.00  0.00    -0.067 NA
ATOM      3  O   UNL     1      -3.456  -1.212   0.026  0.00  0.00    -0.366 OA
ATOM      4  C   UNL     1      -2.783  -2.476   0.020  0.00  0.00    +0.201 C 
ATOM      5  N   UNL     1      -1.354  -2.145   0.004  0.00  0.00    -0.287 N 
ATOM      6  C   UNL     1      -3.136  -3.272   1.274  0.00  0.00    +0.053 C 
ATOM      7  C   UNL     1      -4.620  -3.645   1.235  0.00  0.00    -0.073 C 
ATOM      8  N   UNL     1      -4.894  -4.445   0.035  0.00  0.00    +0.386 N 
ATOM      9  C   UNL     1      -4.638  -3.644  -1.169  0.00  0.00    -0.073 C 
ATOM     10  C   UNL     1      -3.154  -3.271  -1.230  0.00  0.00    +0.053 C 
ATOM     11  H   UNL     1      -0.614  -2.771  -0.007  0.00  0.00    +0.151 HD
ATOM     12  H   UNL     1      -4.297  -5.258   0.030  0.00  0.00    -0.081 HD
ENDROOT
BRANCH   1  18
ATOM     13  C   UNL     1      -0.017   1.391   0.010  0.00  0.00    +0.015 A 
ATOM     14  C   UNL     1       1.168   2.095   0.002  0.00  0.00    +0.046 A 
ATOM     15  C   UNL     1       2.380   1.417  -0.013  0.00  0.00    +0.130 A 
ATOM     16  C   UNL     1       2.403   0.028  -0.021  0.00  0.00    +0.046 A 
ATOM     17  C   UNL     1       1.222  -0.682  -0.014  0.00  0.00    +0.015 A 
ATOM     18  C   UNL     1       0.002  -0.004   0.002  0.00  0.00    +0.018 A 
BRANCH  15  19
ATOM     19  O   UNL     1       3.546   2.114  -0.021  0.00  0.00    -0.406 OA
BRANCH  19  20
ATOM     20  C   UNL     1       4.756   1.353  -0.036  0.00  0.00    +0.575 C 
ATOM     21  F   UNL     1       4.789   0.552  -1.183  0.00  0.00    -0.133 F 
ATOM     22  F   UNL     1       5.853   2.222  -0.043  0.00  0.00    -0.133 F 
ATOM     23  F   UNL     1       4.811   0.541   1.101  0.00  0.00    -0.133 F 
ENDBRANCH  19  20
ENDBRANCH  15  19
ENDBRANCH   1  18
BRANCH   8  24
ATOM     24  C   UNL     1      -6.299  -4.874   0.045  0.00  0.00    +0.019 C 
BRANCH  24  25
ATOM     25  C   UNL     1      -6.552  -5.795  -1.121  0.00  0.00    +0.197 C 
ATOM     26  O   UNL     1      -5.650  -6.067  -1.885  0.00  0.00    -0.278 OA
ATOM     27  N   UNL     1      -7.779  -6.316  -1.315  0.00  0.00    -0.314 N 
ATOM     28  H   UNL     1      -8.501  -6.099  -0.704  0.00  0.00    +0.149 HD
BRANCH  27  29
ATOM     29  C   UNL     1      -8.024  -7.212  -2.448  0.00  0.00    +0.073 C 
ATOM     30  C   UNL     1      -7.707  -8.668  -2.050  0.00  0.00    +0.022 C 
ATOM     31  C   UNL     1      -9.079  -9.256  -1.636  0.00  0.00    +0.002 C 
ATOM     32  C   UNL     1     -10.049  -8.612  -2.658  0.00  0.00    +0.002 C 
ATOM     33  C   UNL     1      -9.513  -7.176  -2.835  0.00  0.00    +0.022 C 
ENDBRANCH  27  29
ENDBRANCH  24  25
ENDBRANCH   8  24
TORSDOF 6
