REMARK  Name = ZINC39491759
REMARK  16 active torsions:
REMARK  status: ('A' for Active; 'I' for Inactive)
REMARK    1  A    between atoms: C_1  and  C_2
REMARK    2  A    between atoms: C_2  and  C_3
REMARK    3  A    between atoms: C_3  and  N_4
REMARK    4  A    between atoms: N_4  and  C_5
REMARK    5  A    between atoms: C_5  and  C_6
REMARK    6  A    between atoms: N_8  and  C_19
REMARK    7  A    between atoms: C_12  and  C_15
REMARK    8  A    between atoms: C_15  and  O_17
REMARK    9  A    between atoms: O_17  and  C_18
REMARK   10  A    between atoms: C_19  and  C_20
REMARK   11  A    between atoms: C_20  and  C_22
REMARK   12  A    between atoms: C_20  and  S_29
REMARK   13  A    between atoms: C_27  and  O_28
REMARK   14  A    between atoms: S_29  and  C_32
REMARK   15  A    between atoms: C_32  and  C_33
REMARK   16  A    between atoms: C_32  and  C_34
REMARK                            x       y       z     vdW  Elec       q    Type
REMARK                         _______ _______ _______ _____ _____    ______ ____
ROOT
ATOM      1  C   UNL     1       1.492  -4.355  -1.833  0.00  0.00    -0.039 A 
ATOM      2  C   UNL     1       2.490  -5.242  -1.708  0.00  0.00    +0.088 A 
ATOM      3  N   UNL     1       2.033  -6.502  -1.983  0.00  0.00    -0.344 N 
ATOM      4  C   UNL     1       0.697  -6.458  -2.298  0.00  0.00    +0.049 A 
ATOM      5  C   UNL     1       0.294  -5.111  -2.213  0.00  0.00    +0.002 A 
ATOM      6  C   UNL     1      -1.026  -4.760  -2.477  0.00  0.00    +0.025 A 
ATOM      7  C   UNL     1      -1.941  -5.752  -2.822  0.00  0.00    +0.060 A 
ATOM      8  C   UNL     1      -1.529  -7.090  -2.900  0.00  0.00    +0.017 A 
ATOM      9  C   UNL     1      -0.234  -7.434  -2.650  0.00  0.00    +0.027 A 
ENDROOT
BRANCH   7  10
ATOM     10  C   UNL     1      -3.344  -5.395  -3.104  0.00  0.00    +0.339 C 
ATOM     11  O   UNL     1      -3.702  -4.236  -3.036  0.00  0.00    -0.245 OA
BRANCH  10  12
ATOM     12  O   UNL     1      -4.229  -6.354  -3.438  0.00  0.00    -0.464 OA
ATOM     13  C   UNL     1      -5.571  -5.937  -3.698  0.00  0.00    +0.280 C 
ENDBRANCH  10  12
ENDBRANCH   7  10
BRANCH   1  14
ATOM     14  C   UNL     1       1.582  -2.866  -1.617  0.00  0.00    -0.045 C 
BRANCH  14  15
ATOM     15  N   UNL     1       1.068  -2.533  -0.282  0.00  0.00    +0.382 N 
ATOM     16  H   UNL     1       1.618  -3.008   0.418  0.00  0.00    -0.085 HD
ATOM     17  H   UNL     1       0.105  -2.825  -0.209  0.00  0.00    -0.085 HD
BRANCH  15  18
ATOM     18  C   UNL     1       1.156  -1.081  -0.072  0.00  0.00    -0.082 C 
BRANCH  18  20
ATOM     19  C   UNL     1       0.712   0.777   1.538  0.00  0.00    +0.002 C 
ATOM     20  C   UNL     1       0.621  -0.734   1.319  0.00  0.00    -0.022 C 
ENDBRANCH  18  20
ENDBRANCH  15  18
ENDBRANCH  14  15
ENDBRANCH   1  14
BRANCH   3  21
ATOM     21  C   UNL     1       2.848  -7.719  -1.946  0.00  0.00    +0.153 C 
BRANCH  21  22
ATOM     22  C   UNL     1       3.551  -7.903  -3.293  0.00  0.00    +0.184 C 
BRANCH  22  23
ATOM     23  C   UNL     1       4.499  -9.071  -3.209  0.00  0.00    +0.020 A 
ATOM     24  C   UNL     1       4.080 -10.331  -3.591  0.00  0.00    +0.009 A 
ATOM     25  C   UNL     1       4.949 -11.403  -3.515  0.00  0.00    +0.001 A 
ATOM     26  C   UNL     1       6.240 -11.217  -3.056  0.00  0.00    +0.004 A 
ATOM     27  C   UNL     1       6.665  -9.960  -2.673  0.00  0.00    +0.046 A 
ATOM     28  C   UNL     1       5.796  -8.881  -2.754  0.00  0.00    +0.122 A 
BRANCH  28  29
ATOM     29  O   UNL     1       6.213  -7.642  -2.383  0.00  0.00    -0.506 OA
ATOM     30  H   UNL     1       6.066  -7.441  -1.449  0.00  0.00    +0.292 HD
ENDBRANCH  28  29
ENDBRANCH  22  23
BRANCH  22  31
ATOM     31  S   UNL     1       2.314  -8.219  -4.582  0.00  0.00    -0.020 S 
ATOM     32  O   UNL     1       1.566  -9.369  -4.214  0.00  0.00    -0.173 OA
ATOM     33  O   UNL     1       1.627  -7.005  -4.853  0.00  0.00    -0.173 OA
BRANCH  31  34
ATOM     34  C   UNL     1       3.335  -8.634  -6.023  0.00  0.00    +0.125 C 
ATOM     35  C   UNL     1       2.437  -8.819  -7.248  0.00  0.00    +0.031 C 
ATOM     36  C   UNL     1       4.330  -7.503  -6.286  0.00  0.00    +0.031 C 
ENDBRANCH  31  34
ENDBRANCH  22  31
ENDBRANCH  21  22
ENDBRANCH   3  21
TORSDOF 12
