REMARK  Name = ZINC35341147
REMARK  8 active torsions:
REMARK  status: ('A' for Active; 'I' for Inactive)
REMARK    1  A    between atoms: C_1  and  C_2
REMARK    2  A    between atoms: C_2  and  C_3
REMARK    3  A    between atoms: C_3  and  C_5
REMARK    4  A    between atoms: C_3  and  N_6
REMARK    5  A    between atoms: C_7  and  C_9
REMARK    6  A    between atoms: C_11  and  N_21
REMARK    7  A    between atoms: C_14  and  N_15
REMARK    8  A    between atoms: N_24  and  C_25
REMARK                            x       y       z     vdW  Elec       q    Type
REMARK                         _______ _______ _______ _____ _____    ______ ____
ROOT
ATOM      1  C   UNL     1      -3.981   0.667  -2.412  0.00  0.00    +0.059 A 
ATOM      2  C   UNL     1      -3.265   0.875  -3.594  0.00  0.00    +0.038 A 
ATOM      3  C   UNL     1      -3.942   1.055  -4.787  0.00  0.00    +0.036 A 
ATOM      4  C   UNL     1      -5.333   1.031  -4.813  0.00  0.00    +0.025 A 
ATOM      5  C   UNL     1      -6.048   0.826  -3.652  0.00  0.00    +0.026 A 
ATOM      6  C   UNL     1      -5.384   0.638  -2.447  0.00  0.00    +0.042 A 
ENDROOT
BRANCH   6   7
ATOM      7  N   UNL     1      -6.106   0.426  -1.277  0.00  0.00    -0.329 N 
ATOM      8  C   UNL     1      -6.531   1.559  -0.444  0.00  0.00    +0.105 C 
ATOM      9  C   UNL     1      -8.043   1.464  -0.216  0.00  0.00    +0.019 C 
ATOM     10  C   UNL     1      -8.380   0.091   0.371  0.00  0.00    +0.003 C 
ATOM     11  C   UNL     1      -7.971  -1.003  -0.618  0.00  0.00    +0.019 C 
ATOM     12  C   UNL     1      -6.463  -0.935  -0.854  0.00  0.00    +0.105 C 
ENDBRANCH   6   7
BRANCH   3  13
ATOM     13  N   UNL     1      -3.224   1.264  -5.973  0.00  0.00    -0.269 N 
ATOM     14  C   UNL     1      -3.727   2.066  -6.933  0.00  0.00    +0.308 C 
ATOM     15  O   UNL     1      -4.755   2.684  -6.732  0.00  0.00    -0.252 OA
ATOM     16  N   UNL     1      -3.091   2.183  -8.115  0.00  0.00    -0.268 N 
ATOM     17  H   UNL     1      -2.366   0.831  -6.103  0.00  0.00    +0.156 HD
ATOM     18  H   UNL     1      -2.316   1.631  -8.305  0.00  0.00    +0.156 HD
BRANCH  16  19
ATOM     19  C   UNL     1      -3.548   3.101  -9.068  0.00  0.00    +0.053 A 
ATOM     20  C   UNL     1      -4.327   4.181  -8.676  0.00  0.00    +0.026 A 
ATOM     21  C   UNL     1      -4.776   5.086  -9.618  0.00  0.00    +0.022 A 
ATOM     22  C   UNL     1      -4.451   4.916 -10.953  0.00  0.00    +0.042 A 
ATOM     23  C   UNL     1      -3.676   3.840 -11.347  0.00  0.00    +0.041 A 
ATOM     24  C   UNL     1      -3.218   2.935 -10.408  0.00  0.00    +0.064 A 
ATOM     25 CL   UNL     1      -2.239   1.590 -10.902  0.00  0.00    -0.082 Cl
ATOM     26 CL   UNL     1      -5.018   6.055 -12.134  0.00  0.00    -0.083 Cl
ENDBRANCH  16  19
ENDBRANCH   3  13
BRANCH   1  28
ATOM     27  N   UNL     1      -1.920   0.503  -1.108  0.00  0.00    -0.309 N 
ATOM     28  C   UNL     1      -3.267   0.474  -1.137  0.00  0.00    +0.246 C 
ATOM     29  O   UNL     1      -3.893   0.288  -0.111  0.00  0.00    -0.270 OA
ATOM     30  H   UNL     1      -1.420   0.651  -1.926  0.00  0.00    +0.149 HD
BRANCH  27  31
ATOM     31  C   UNL     1      -1.210   0.311   0.159  0.00  0.00    +0.070 C 
ATOM     32  C   UNL     1      -1.038  -1.186   0.425  0.00  0.00    +0.028 C 
BRANCH  31  34
ATOM     33  C   UNL     1      -0.009   2.490  -0.062  0.00  0.00    +0.005 C 
ATOM     34  C   UNL     1       0.165   0.977   0.079  0.00  0.00    +0.018 C 
ENDBRANCH  31  34
ENDBRANCH  27  31
ENDBRANCH   1  28
TORSDOF 6
