REMARK  Name = ZINC34997700
REMARK  18 active torsions:
REMARK  status: ('A' for Active; 'I' for Inactive)
REMARK    1  A    between atoms: C_1  and  C_2
REMARK    2  A    between atoms: C_6  and  C_43
REMARK    3  A    between atoms: C_7  and  N_8
REMARK    4  A    between atoms: N_14  and  C_17
REMARK    5  A    between atoms: C_17  and  C_18
REMARK    6  A    between atoms: C_18  and  N_19
REMARK    7  A    between atoms: N_19  and  C_20
REMARK    8  A    between atoms: C_20  and  C_21
REMARK    9  A    between atoms: C_29  and  C_30
REMARK   10  A    between atoms: C_29  and  C_31
REMARK   11  A    between atoms: C_32  and  C_34
REMARK   12  A    between atoms: C_34  and  C_35
REMARK   13  A    between atoms: C_35  and  C_37
REMARK   14  A    between atoms: C_35  and  C_38
REMARK   15  A    between atoms: C_38  and  C_39
REMARK   16  A    between atoms: C_39  and  C_40
REMARK   17  A    between atoms: C_39  and  C_41
REMARK   18  A    between atoms: C_39  and  C_42
REMARK                            x       y       z     vdW  Elec       q    Type
REMARK                         _______ _______ _______ _____ _____    ______ ____
ROOT
ATOM      1  N   UNL     1       1.193   0.725  12.027  0.00  0.00    -0.296 N 
ATOM      2  C   UNL     1       2.513   0.472  12.134  0.00  0.00    +0.216 C 
ATOM      3  O   UNL     1       2.930  -0.654  11.964  0.00  0.00    -0.276 OA
ENDROOT
BRANCH   1   4
ATOM      4  C   UNL     1       0.263  -0.360  11.704  0.00  0.00    +0.123 C 
BRANCH   4   5
ATOM      5  C   UNL     1       0.106  -0.463  10.186  0.00  0.00    +0.103 C 
BRANCH   5  12
ATOM      6  N   UNL     1      -2.443  -4.896   6.683  0.00  0.00    -0.269 N 
ATOM      7  C   UNL     1      -1.896  -4.965   7.912  0.00  0.00    +0.307 C 
ATOM      8  O   UNL     1      -1.449  -6.019   8.321  0.00  0.00    -0.252 OA
ATOM      9  N   UNL     1      -1.845  -3.864   8.689  0.00  0.00    -0.283 N 
ATOM     10  C   UNL     1      -2.292  -2.559   8.179  0.00  0.00    +0.124 C 
ATOM     11  C   UNL     1      -1.186  -1.530   8.439  0.00  0.00    +0.103 C 
ATOM     12  N   UNL     1      -0.826  -1.551   9.863  0.00  0.00    -0.298 NA
ATOM     13  C   UNL     1      -0.271  -2.854  10.253  0.00  0.00    +0.103 C 
ATOM     14  C   UNL     1      -1.345  -3.938  10.070  0.00  0.00    +0.124 C 
ATOM     15  H   UNL     1      -2.753  -4.045   6.336  0.00  0.00    +0.156 HD
BRANCH   6  22
ATOM     16  C   UNL     1      -1.632  -4.778   3.958  0.00  0.00    +0.045 C 
ATOM     17  C   UNL     1      -2.181  -6.040   4.571  0.00  0.00    -0.029 A 
ATOM     18  C   UNL     1      -2.297  -7.186   3.809  0.00  0.00    +0.005 A 
ATOM     19  C   UNL     1      -2.801  -8.344   4.371  0.00  0.00    +0.001 A 
ATOM     20  C   UNL     1      -3.190  -8.360   5.698  0.00  0.00    +0.005 A 
ATOM     21  C   UNL     1      -3.077  -7.217   6.466  0.00  0.00    -0.029 A 
ATOM     22  C   UNL     1      -2.565  -6.054   5.906  0.00  0.00    +0.041 A 
ATOM     23  C   UNL     1      -3.502  -7.234   7.912  0.00  0.00    +0.045 C 
ENDBRANCH   6  22
ENDBRANCH   5  12
ENDBRANCH   4   5
ENDBRANCH   1   4
BRANCH   1  24
ATOM     24  C   UNL     1       0.689   2.085  12.233  0.00  0.00    +0.138 C 
BRANCH  24  25
ATOM     25  C   UNL     1       0.352   2.281  13.688  0.00  0.00    -0.053 C 
ATOM     26  C   UNL     1       1.211   2.823  14.521  0.00  0.00    -0.025 C 
ATOM     27  C   UNL     1       0.830   3.009  15.970  0.00  0.00    +0.031 C 
ATOM     28  C   UNL     1      -0.563   2.416  16.219  0.00  0.00    -0.000 C 
ATOM     29  C   UNL     1      -0.748   1.033  15.570  0.00  0.00    +0.012 C 
ATOM     30  C   UNL     1      -0.997   1.864  14.248  0.00  0.00    +0.022 C 
ATOM     31  C   UNL     1      -1.576   2.940  15.180  0.00  0.00    -0.025 C 
ATOM     32  C   UNL     1      -3.037   2.704  15.566  0.00  0.00    +0.012 C 
ATOM     33  C   UNL     1      -1.300   4.371  14.713  0.00  0.00    +0.012 C 
ENDBRANCH  24  25
ENDBRANCH   1  24
BRANCH   2  34
ATOM     34  C   UNL     1       3.469   1.588  12.466  0.00  0.00    +0.099 C 
BRANCH  34  35
ATOM     35  C   UNL     1       4.895   1.036  12.527  0.00  0.00    -0.005 C 
ATOM     36  C   UNL     1       5.312   0.545  11.140  0.00  0.00    +0.008 C 
BRANCH  35  37
ATOM     37  C   UNL     1       5.850   2.140  12.985  0.00  0.00    +0.010 C 
BRANCH  37  38
ATOM     38  C   UNL     1       7.247   1.552  13.194  0.00  0.00    -0.037 C 
ATOM     39  C   UNL     1       7.997   1.534  11.860  0.00  0.00    +0.010 C 
ATOM     40  C   UNL     1       8.017   2.411  14.200  0.00  0.00    +0.010 C 
ATOM     41  C   UNL     1       7.125   0.125  13.730  0.00  0.00    +0.010 C 
ENDBRANCH  37  38
ENDBRANCH  35  37
ENDBRANCH  34  35
ENDBRANCH   2  34
TORSDOF 10
