REMARK  Name = ZINC10645678
REMARK  9 active torsions:
REMARK  status: ('A' for Active; 'I' for Inactive)
REMARK    1  A    between atoms: C_1  and  C_2
REMARK    2  A    between atoms: C_4  and  N_7
REMARK    3  A    between atoms: C_8  and  C_10
REMARK    4  A    between atoms: C_10  and  C_12
REMARK    5  A    between atoms: C_10  and  S_13
REMARK    6  A    between atoms: S_13  and  C_14
REMARK    7  A    between atoms: C_17  and  C_26
REMARK    8  A    between atoms: N_18  and  C_19
REMARK    9  A    between atoms: C_26  and  C_27
REMARK                            x       y       z     vdW  Elec       q    Type
REMARK                         _______ _______ _______ _____ _____    ______ ____
ROOT
ATOM      1  C   UNL     1      -3.900   1.193   3.385  0.00  0.00    +0.197 A 
ATOM      2  N   UNL     1      -3.217   0.071   3.407  0.00  0.00    -0.122 NA
ATOM      3  N   UNL     1      -2.754  -0.183   2.236  0.00  0.00    -0.133 NA
ATOM      4  C   UNL     1      -3.102   0.756   1.402  0.00  0.00    +0.143 A 
ATOM      5  N   UNL     1      -3.849   1.667   2.103  0.00  0.00    -0.274 N 
ENDROOT
BRANCH   5   6
ATOM      6  C   UNL     1      -4.437   2.840   1.608  0.00  0.00    +0.050 A 
ATOM      7  C   UNL     1      -3.638   3.892   1.182  0.00  0.00    +0.028 A 
ATOM      8  C   UNL     1      -4.220   5.045   0.691  0.00  0.00    +0.022 A 
ATOM      9  C   UNL     1      -5.598   5.155   0.633  0.00  0.00    +0.041 A 
ATOM     10  C   UNL     1      -6.396   4.110   1.062  0.00  0.00    +0.022 A 
ATOM     11  C   UNL     1      -5.819   2.953   1.550  0.00  0.00    +0.028 A 
ATOM     12 CL   UNL     1      -6.326   6.608   0.023  0.00  0.00    -0.084 Cl
ENDBRANCH   5   6
BRANCH   1  13
ATOM     13  S   UNL     1      -4.726   1.944   4.747  0.00  0.00    -0.073 S 
BRANCH  13  14
ATOM     14  C   UNL     1      -4.339   0.748   6.049  0.00  0.00    +0.137 C 
ATOM     15  C   UNL     1      -5.003  -0.592   5.724  0.00  0.00    +0.029 C 
BRANCH  14  17
ATOM     16  N   UNL     1      -4.288   0.844   8.520  0.00  0.00    -0.253 N 
ATOM     17  C   UNL     1      -4.856   1.257   7.370  0.00  0.00    +0.233 C 
ATOM     18  O   UNL     1      -5.782   2.039   7.397  0.00  0.00    -0.274 OA
ATOM     19  H   UNL     1      -3.547   0.218   8.498  0.00  0.00    +0.158 HD
BRANCH  16  23
ATOM     20  C   UNL     1      -5.044   1.753  13.357  0.00  0.00    +0.069 C 
ATOM     21  C   UNL     1      -5.119   1.731  11.852  0.00  0.00    +0.082 A 
ATOM     22  C   UNL     1      -4.298   0.990  10.978  0.00  0.00    +0.092 A 
ATOM     23  C   UNL     1      -4.764   1.313   9.736  0.00  0.00    +0.224 A 
ATOM     24  O   UNL     1      -5.771   2.179   9.927  0.00  0.00    -0.339 OA
ATOM     25  N   UNL     1      -5.955   2.393  11.103  0.00  0.00    -0.081 NA
ENDBRANCH  16  23
ENDBRANCH  14  17
ENDBRANCH  13  14
ENDBRANCH   1  13
BRANCH   4  26
ATOM     26  C   UNL     1      -2.754   0.825  -0.062  0.00  0.00    +0.111 C 
BRANCH  26  27
ATOM     27  C   UNL     1      -3.748   0.014  -0.854  0.00  0.00    -0.040 A 
ATOM     28  C   UNL     1      -4.856   0.628  -1.406  0.00  0.00    +0.004 A 
ATOM     29  C   UNL     1      -5.765  -0.115  -2.137  0.00  0.00    +0.000 A 
ATOM     30  C   UNL     1      -5.568  -1.472  -2.310  0.00  0.00    +0.000 A 
ATOM     31  C   UNL     1      -4.462  -2.087  -1.753  0.00  0.00    +0.000 A 
ATOM     32  C   UNL     1      -3.554  -1.344  -1.023  0.00  0.00    +0.004 A 
ENDBRANCH  26  27
ENDBRANCH   4  26
TORSDOF 7
