REMARK  Name = ZINC37379145
REMARK  13 active torsions:
REMARK  status: ('A' for Active; 'I' for Inactive)
REMARK    1  A    between atoms: C_1  and  C_2
REMARK    2  A    between atoms: C_2  and  N_3
REMARK    3  A    between atoms: N_3  and  C_4
REMARK    4  A    between atoms: N_3  and  C_29
REMARK    5  A    between atoms: C_4  and  C_5
REMARK    6  A    between atoms: N_8  and  C_10
REMARK    7  A    between atoms: N_19  and  C_21
REMARK    8  A    between atoms: C_21  and  C_22
REMARK    9  A    between atoms: C_29  and  C_30
REMARK   10  A    between atoms: C_30  and  C_32
REMARK   11  A    between atoms: C_30  and  O_36
REMARK   12  A    between atoms: C_32  and  C_33
REMARK   13  A    between atoms: C_33  and  C_34
REMARK                            x       y       z     vdW  Elec       q    Type
REMARK                         _______ _______ _______ _____ _____    ______ ____
ROOT
ATOM      1  C   UNL     1      -1.006  -1.967   1.651  0.00  0.00    +0.052 A 
ATOM      2  C   UNL     1       0.360  -1.822   1.874  0.00  0.00    +0.009 A 
ATOM      3  C   UNL     1       0.604  -2.105   3.181  0.00  0.00    +0.051 A 
ATOM      4  N   UNL     1      -0.567  -2.414   3.762  0.00  0.00    -0.236 N 
ATOM      5  N   UNL     1      -1.569  -2.318   2.784  0.00  0.00    -0.173 NA
ATOM      6  C   UNL     1       1.983  -2.059   3.792  0.00  0.00    +0.071 C 
ATOM      7  C   UNL     1       3.005  -2.049   2.646  0.00  0.00    +0.091 C 
ATOM      8  N   UNL     1       2.630  -1.026   1.659  0.00  0.00    -0.293 NA
ATOM      9  C   UNL     1       1.436  -1.425   0.895  0.00  0.00    +0.123 C 
ENDROOT
BRANCH   4  10
ATOM     10  C   UNL     1      -0.755  -2.765   5.107  0.00  0.00    +0.066 A 
ATOM     11  C   UNL     1      -0.088  -2.070   6.107  0.00  0.00    +0.030 A 
ATOM     12  C   UNL     1      -0.275  -2.418   7.430  0.00  0.00    +0.040 A 
ATOM     13  C   UNL     1      -1.127  -3.459   7.760  0.00  0.00    +0.124 A 
ATOM     14  C   UNL     1      -1.792  -4.154   6.764  0.00  0.00    +0.040 A 
ATOM     15  C   UNL     1      -1.613  -3.805   5.440  0.00  0.00    +0.030 A 
ATOM     16  F   UNL     1      -1.308  -3.798   9.056  0.00  0.00    -0.205 F 
ENDBRANCH   4  10
BRANCH   1  17
ATOM     17  C   UNL     1      -1.717  -1.752   0.340  0.00  0.00    -0.020 C 
BRANCH  17  18
ATOM     18  N   UNL     1      -2.256  -0.387   0.293  0.00  0.00    +0.385 N 
ATOM     19  H   UNL     1      -2.811  -0.216   1.119  0.00  0.00    -0.081 HD
BRANCH  18  21
ATOM     20  C   UNL     1      -0.397   0.416  -1.083  0.00  0.00    -0.017 C 
ATOM     21  C   UNL     1      -1.148   0.576   0.240  0.00  0.00    -0.082 C 
ENDBRANCH  18  21
BRANCH  18  22
ATOM     22  C   UNL     1      -3.097  -0.233  -0.901  0.00  0.00    -0.047 C 
BRANCH  22  23
ATOM     23  C   UNL     1      -3.772   1.140  -0.877  0.00  0.00    +0.098 C 
BRANCH  23  24
ATOM     24  O   UNL     1      -4.597   1.244   0.286  0.00  0.00    -0.394 OA
ATOM     25  H   UNL     1      -5.299   0.580   0.331  0.00  0.00    +0.210 HD
ENDBRANCH  23  24
BRANCH  23  26
ATOM     26  C   UNL     1      -4.634   1.307  -2.130  0.00  0.00    +0.033 C 
BRANCH  26  27
ATOM     27  C   UNL     1      -5.209   2.724  -2.168  0.00  0.00    +0.029 C 
BRANCH  27  28
ATOM     28  C   UNL     1      -6.058   2.889  -3.402  0.00  0.00    -0.034 C 
ATOM     29  C   UNL     1      -7.302   3.284  -3.294  0.00  0.00    +0.004 C 
ENDBRANCH  27  28
ENDBRANCH  26  27
ENDBRANCH  23  26
ENDBRANCH  22  23
ENDBRANCH  18  22
ENDBRANCH  17  18
ENDBRANCH   1  17
BRANCH   8  30
ATOM     30  C   UNL     1       3.753  -0.725   0.762  0.00  0.00    +0.122 C 
BRANCH  30  31
ATOM     31  C   UNL     1       4.860  -0.066   1.545  0.00  0.00    +0.002 A 
ATOM     32  C   UNL     1       5.989  -0.787   1.887  0.00  0.00    +0.008 A 
ATOM     33  C   UNL     1       7.003  -0.183   2.606  0.00  0.00    +0.000 A 
ATOM     34  C   UNL     1       6.891   1.143   2.983  0.00  0.00    +0.003 A 
ATOM     35  C   UNL     1       5.763   1.865   2.642  0.00  0.00    +0.038 A 
ATOM     36  C   UNL     1       4.748   1.263   1.918  0.00  0.00    +0.128 A 
ATOM     37  F   UNL     1       3.648   1.969   1.580  0.00  0.00    -0.205 F 
ENDBRANCH  30  31
ENDBRANCH   8  30
TORSDOF 12
