REMARK  Name = ZINC63571332
REMARK  4 active torsions:
REMARK  status: ('A' for Active; 'I' for Inactive)
REMARK    1  A    between atoms: C_4  and  C_7
REMARK    2  A    between atoms: C_7  and  C_8
REMARK    3  A    between atoms: C_8  and  N_9
REMARK    4  A    between atoms: C_25  and  C_27
REMARK                            x       y       z     vdW  Elec       q    Type
REMARK                         _______ _______ _______ _____ _____    ______ ____
ROOT
ATOM      1  N   UNL     1       5.058  -2.462   1.419  0.00  0.00    -0.299 N 
ATOM      2  C   UNL     1       5.784  -2.516   2.554  0.00  0.00    +0.303 C 
ATOM      3  O   UNL     1       5.322  -2.084   3.592  0.00  0.00    -0.253 OA
ATOM      4  N   UNL     1       7.022  -3.048   2.537  0.00  0.00    -0.276 N 
ATOM      5  C   UNL     1       7.621  -3.451   1.260  0.00  0.00    +0.114 C 
ATOM      6  C   UNL     1       7.991  -4.944   1.317  0.00  0.00    +0.052 C 
ATOM      7  C   UNL     1       8.678  -5.170   2.641  0.00  0.00    -0.035 C 
ATOM      8  C   UNL     1       9.840  -5.735   2.943  0.00  0.00    -0.001 A 
ATOM      9  C   UNL     1      10.829  -6.444   2.114  0.00  0.00    +0.010 A 
ATOM     10  C   UNL     1      11.942  -6.888   2.756  0.00  0.00    +0.001 A 
ATOM     11  C   UNL     1      12.167  -6.700   4.124  0.00  0.00    +0.002 A 
ATOM     12  C   UNL     1      11.309  -6.067   4.963  0.00  0.00    +0.026 A 
ATOM     13  C   UNL     1      10.098  -5.563   4.405  0.00  0.00    +0.043 A 
ATOM     14  N   UNL     1       9.103  -4.947   4.972  0.00  0.00    -0.375 N 
ATOM     15  C   UNL     1       8.072  -4.708   3.962  0.00  0.00    +0.131 C 
ATOM     16  C   UNL     1       7.761  -3.212   3.799  0.00  0.00    +0.137 C 
ATOM     17  H   UNL     1       5.452  -2.739   0.577  0.00  0.00    +0.150 HD
ATOM     18  H   UNL     1       9.053  -4.689   5.906  0.00  0.00    +0.160 HD
ENDROOT
BRANCH  16  19
ATOM     19  C   UNL     1       6.915  -2.735   4.951  0.00  0.00    +0.010 A 
ATOM     20  C   UNL     1       6.175  -3.642   5.687  0.00  0.00    +0.008 A 
ATOM     21  C   UNL     1       5.399  -3.204   6.744  0.00  0.00    +0.000 A 
ATOM     22  C   UNL     1       5.362  -1.861   7.067  0.00  0.00    +0.003 A 
ATOM     23  C   UNL     1       6.102  -0.953   6.333  0.00  0.00    +0.039 A 
ATOM     24  C   UNL     1       6.883  -1.390   5.277  0.00  0.00    +0.128 A 
ATOM     25  F   UNL     1       7.611  -0.504   4.562  0.00  0.00    -0.205 F 
ENDBRANCH  16  19
BRANCH   1  26
ATOM     26  C   UNL     1       3.673  -1.986   1.458  0.00  0.00    +0.110 C 
BRANCH  26  27
ATOM     27  C   UNL     1       3.080  -2.025   0.048  0.00  0.00    +0.054 C 
BRANCH  27  31
ATOM     28  C   UNL     1      -0.958  -0.637   0.158  0.00  0.00    +0.000 A 
ATOM     29  C   UNL     1       0.075   0.258  -0.049  0.00  0.00    +0.000 A 
ATOM     30  C   UNL     1       1.382  -0.192  -0.085  0.00  0.00    +0.004 A 
ATOM     31  C   UNL     1       1.656  -1.535   0.087  0.00  0.00    -0.046 A 
ATOM     32  C   UNL     1       0.623  -2.430   0.295  0.00  0.00    +0.004 A 
ATOM     33  C   UNL     1      -0.684  -1.982   0.329  0.00  0.00    +0.000 A 
ENDBRANCH  27  31
ENDBRANCH  26  27
ENDBRANCH   1  26
TORSDOF 4
