REMARK  Name = ZINC38847408
REMARK  12 active torsions:
REMARK  status: ('A' for Active; 'I' for Inactive)
REMARK    1  A    between atoms: C_1  and  C_2
REMARK    2  A    between atoms: C_2  and  C_3
REMARK    3  A    between atoms: N_12  and  C_13
REMARK    4  A    between atoms: C_13  and  C_14
REMARK    5  A    between atoms: C_14  and  C_15
REMARK    6  A    between atoms: C_15  and  N_16
REMARK    7  A    between atoms: N_16  and  C_17
REMARK    8  A    between atoms: N_16  and  C_18
REMARK    9  A    between atoms: C_19  and  C_21
REMARK   10  A    between atoms: N_24  and  S_27
REMARK   11  A    between atoms: S_27  and  C_30
REMARK   12  A    between atoms: C_33  and  C_36
REMARK                            x       y       z     vdW  Elec       q    Type
REMARK                         _______ _______ _______ _____ _____    ______ ____
ROOT
ATOM      1  C   UNL     1      -1.248  -0.714   0.000  0.00  0.00    -0.021 A 
ATOM      2  C   UNL     1      -1.829  -0.926   1.224  0.00  0.00    +0.006 A 
ATOM      3  C   UNL     1      -3.208  -0.978   1.372  0.00  0.00    +0.001 A 
ATOM      4  C   UNL     1      -4.016  -0.811   0.262  0.00  0.00    +0.017 A 
ATOM      5  C   UNL     1      -3.443  -0.599  -0.967  0.00  0.00    +0.041 A 
ATOM      6  C   UNL     1      -2.043  -0.534  -1.155  0.00  0.00    +0.083 A 
ATOM      7  N   UNL     1      -1.633  -0.313  -2.423  0.00  0.00    -0.224 NA
ATOM      8  C   UNL     1      -2.473  -0.162  -3.420  0.00  0.00    +0.168 A 
ATOM      9  S   UNL     1      -4.058  -0.341  -2.613  0.00  0.00    -0.052 S 
ATOM     10  N   UNL     1      -2.201   0.069  -4.758  0.00  0.00    -0.250 N 
ATOM     11  C   UNL     1      -0.924   0.166  -5.179  0.00  0.00    +0.224 C 
ATOM     12  O   UNL     1      -0.013  -0.034  -4.404  0.00  0.00    -0.275 OA
ENDROOT
BRANCH  11  13
ATOM     13  C   UNL     1      -0.629   0.521  -6.614  0.00  0.00    +0.078 C 
ATOM     14  C   UNL     1      -0.935  -0.680  -7.511  0.00  0.00    +0.030 C 
ATOM     15  C   UNL     1      -0.666  -0.304  -8.971  0.00  0.00    +0.110 C 
ATOM     16  N   UNL     1       0.710   0.199  -9.084  0.00  0.00    -0.177 NA
ATOM     17  C   UNL     1       1.137   1.294  -8.203  0.00  0.00    +0.110 C 
ATOM     18  C   UNL     1       0.848   0.900  -6.751  0.00  0.00    +0.030 C 
BRANCH  16  19
ATOM     19  S   UNL     1       1.760  -0.457 -10.184  0.00  0.00    +0.061 S 
ATOM     20  O   UNL     1       3.070  -0.198  -9.700  0.00  0.00    -0.153 OA
ATOM     21  O   UNL     1       1.294  -1.772 -10.456  0.00  0.00    -0.153 OA
BRANCH  19  22
ATOM     22  C   UNL     1       1.586   0.458 -11.680  0.00  0.00    +0.105 A 
ATOM     23  C   UNL     1       0.660   0.063 -12.628  0.00  0.00    +0.029 A 
ATOM     24  C   UNL     1       0.524   0.781 -13.802  0.00  0.00    +0.005 A 
ATOM     25  C   UNL     1       1.313   1.893 -14.027  0.00  0.00    -0.050 A 
ATOM     26  C   UNL     1       2.238   2.289 -13.079  0.00  0.00    +0.005 A 
ATOM     27  C   UNL     1       2.371   1.573 -11.903  0.00  0.00    +0.029 A 
ATOM     28  C   UNL     1       1.165   2.675 -15.307  0.00  0.00    +0.044 C 
ENDBRANCH  19  22
ENDBRANCH  16  19
ENDBRANCH  11  13
BRANCH   1  30
ATOM     29  C   UNL     1       0.724   0.788  -0.035  0.00  0.00    +0.009 C 
ATOM     30  C   UNL     1       0.254  -0.666  -0.113  0.00  0.00    +0.034 C 
ENDBRANCH   1  30
BRANCH  10  31
ATOM     31  C   UNL     1      -3.301   0.209  -5.716  0.00  0.00    +0.114 C 
BRANCH  31  32
ATOM     32  C   UNL     1      -3.809   1.652  -5.703  0.00  0.00    +0.001 C 
BRANCH  32  33
ATOM     33  C   UNL     1      -4.957   1.798  -6.703  0.00  0.00    -0.078 C 
BRANCH  33  34
ATOM     34  N   UNL     1      -5.445   3.183  -6.690  0.00  0.00    +0.376 N 
ATOM     35  C   UNL     1      -4.389   4.079  -7.178  0.00  0.00    -0.097 C 
ATOM     36  C   UNL     1      -6.623   3.295  -7.560  0.00  0.00    -0.097 C 
ATOM     37  H   UNL     1      -5.697   3.442  -5.748  0.00  0.00    -0.083 HD
ENDBRANCH  33  34
ENDBRANCH  32  33
ENDBRANCH  31  32
ENDBRANCH  10  31
TORSDOF 8
