REMARK  Name = ZINC32704004
REMARK  19 active torsions:
REMARK  status: ('A' for Active; 'I' for Inactive)
REMARK    1  A    between atoms: C_1  and  C_2
REMARK    2  A    between atoms: C_2  and  C_31
REMARK    3  A    between atoms: C_4  and  O_30
REMARK    4  A    between atoms: C_6  and  C_28
REMARK    5  A    between atoms: C_6  and  C_29
REMARK    6  A    between atoms: N_7  and  C_8
REMARK    7  A    between atoms: C_8  and  C_9
REMARK    8  A    between atoms: C_9  and  C_11
REMARK    9  A    between atoms: C_9  and  O_27
REMARK   10  A    between atoms: C_11  and  O_12
REMARK   11  A    between atoms: O_12  and  C_13
REMARK   12  A    between atoms: C_16  and  C_19
REMARK   13  A    between atoms: C_19  and  C_20
REMARK   14  A    between atoms: C_19  and  C_21
REMARK   15  A    between atoms: C_19  and  C_22
REMARK   16  A    between atoms: C_22  and  C_23
REMARK   17  A    between atoms: C_23  and  C_24
REMARK   18  A    between atoms: C_23  and  C_25
REMARK   19  A    between atoms: C_23  and  C_26
REMARK                            x       y       z     vdW  Elec       q    Type
REMARK                         _______ _______ _______ _____ _____    ______ ____
ROOT
ATOM      1  C   UNL     1      -1.572  -0.488   2.685  0.00  0.00    +0.135 C 
ENDROOT
BRANCH   1   2
ATOM      2  O   UNL     1      -1.342  -0.040   1.348  0.00  0.00    -0.390 OA
ATOM      3  H   UNL     1      -0.955  -0.740   0.592  0.00  0.00    +0.210 HD
ENDBRANCH   1   2
BRANCH   1   4
ATOM      4  C   UNL     1      -2.105   0.673   3.527  0.00  0.00    -0.042 C 
BRANCH   4  11
ATOM      5  C   UNL     1      -2.458   3.504   3.543  0.00  0.00    -0.010 C 
ATOM      6  C   UNL     1      -1.459   2.806   4.471  0.00  0.00    -0.068 C 
ATOM      7  C   UNL     1      -0.316   3.760   4.811  0.00  0.00    +0.019 C 
ATOM      8  C   UNL     1       0.642   3.896   3.628  0.00  0.00    +0.112 C 
ATOM      9  C   UNL     1       1.197   2.514   3.284  0.00  0.00    +0.019 C 
ATOM     10  C   UNL     1       0.056   1.570   2.905  0.00  0.00    -0.068 C 
ATOM     11  N   UNL     1      -0.992   1.552   3.909  0.00  0.00    +0.388 N 
ATOM     12  C   UNL     1       0.647   0.146   2.807  0.00  0.00    -0.010 C 
ATOM     13  C   UNL     1      -0.486   1.935   1.522  0.00  0.00    -0.010 C 
ATOM     14  C   UNL     1      -2.204   2.490   5.788  0.00  0.00    -0.010 C 
ATOM     15  H   UNL     1      -0.439   1.144   4.768  0.00  0.00    -0.080 HD
BRANCH   8  16
ATOM     16  O   UNL     1       1.724   4.760   3.995  0.00  0.00    -0.392 OA
ATOM     17  H   UNL     1       2.521   4.981   3.270  0.00  0.00    +0.210 HD
ENDBRANCH   8  16
ENDBRANCH   4  11
ENDBRANCH   1   4
BRANCH   1  18
ATOM     18  C   UNL     1      -2.598  -1.623   2.673  0.00  0.00    +0.258 C 
BRANCH  18  19
ATOM     19  O   UNL     1      -2.053  -2.751   1.985  0.00  0.00    -0.489 OA
BRANCH  19  20
ATOM     20  C   UNL     1      -2.842  -3.852   1.885  0.00  0.00    +0.121 A 
ATOM     21  C   UNL     1      -4.112  -3.850   2.441  0.00  0.00    +0.046 A 
ATOM     22  C   UNL     1      -4.915  -4.969   2.332  0.00  0.00    +0.008 A 
ATOM     23  C   UNL     1      -4.448  -6.095   1.679  0.00  0.00    -0.041 A 
ATOM     24  C   UNL     1      -3.180  -6.102   1.129  0.00  0.00    +0.008 A 
ATOM     25  C   UNL     1      -2.376  -4.983   1.230  0.00  0.00    +0.046 A 
BRANCH  23  26
ATOM     26  C   UNL     1      -5.323  -7.317   1.567  0.00  0.00    -0.009 C 
ATOM     27  C   UNL     1      -5.562  -7.640   0.091  0.00  0.00    +0.016 C 
ATOM     28  C   UNL     1      -4.632  -8.503   2.243  0.00  0.00    +0.016 C 
BRANCH  26  29
ATOM     29  C   UNL     1      -6.664  -7.049   2.254  0.00  0.00    +0.017 C 
BRANCH  29  30
ATOM     30  C   UNL     1      -7.359  -8.379   2.552  0.00  0.00    -0.037 C 
ATOM     31  C   UNL     1      -6.682  -9.052   3.748  0.00  0.00    +0.010 C 
ATOM     32  C   UNL     1      -8.832  -8.122   2.878  0.00  0.00    +0.010 C 
ATOM     33  C   UNL     1      -7.259  -9.292   1.329  0.00  0.00    +0.010 C 
ENDBRANCH  29  30
ENDBRANCH  26  29
ENDBRANCH  23  26
ENDBRANCH  19  20
ENDBRANCH  18  19
ENDBRANCH   1  18
TORSDOF 10
