REMARK  Name = ZINC06511208
REMARK  15 active torsions:
REMARK  status: ('A' for Active; 'I' for Inactive)
REMARK    1  A    between atoms: C_1  and  C_2
REMARK    2  A    between atoms: C_2  and  N_78
REMARK    3  A    between atoms: C_3  and  C_4
REMARK    4  A    between atoms: C_3  and  N_78
REMARK    5  A    between atoms: C_5  and  C_6
REMARK    6  A    between atoms: C_5  and  N_78
REMARK    7  A    between atoms: C_6  and  C_7
REMARK    8  A    between atoms: C_7  and  N_8
REMARK    9  A    between atoms: N_8  and  C_9
REMARK   10  A    between atoms: C_9  and  C_11
REMARK   11  A    between atoms: C_9  and  C_18
REMARK   12  A    between atoms: N_20  and  C_21
REMARK   13  A    between atoms: C_21  and  C_22
REMARK   14  A    between atoms: C_28  and  C_30
REMARK   15  A    between atoms: C_33  and  C_36
REMARK                            x       y       z     vdW  Elec       q    Type
REMARK                         _______ _______ _______ _____ _____    ______ ____
ROOT
ATOM      1  N   UNL     1       4.540  -3.967  -4.467  0.00  0.00    -0.281 N 
ATOM      2  C   UNL     1       4.277  -5.139  -3.856  0.00  0.00    +0.264 C 
ATOM      3  O   UNL     1       4.382  -5.231  -2.647  0.00  0.00    -0.268 OA
ENDROOT
BRANCH   2   4
ATOM      4  C   UNL     1       3.863  -6.302  -4.646  0.00  0.00    +0.102 A 
ATOM      5  C   UNL     1       3.450  -7.519  -4.144  0.00  0.00    +0.033 A 
ATOM      6  C   UNL     1       3.147  -8.338  -5.230  0.00  0.00    +0.028 A 
ATOM      7  C   UNL     1       3.387  -7.615  -6.378  0.00  0.00    +0.047 A 
ATOM      8  N   UNL     1       3.824  -6.373  -6.021  0.00  0.00    -0.351 N 
ATOM      9  H   UNL     1       4.066  -5.660  -6.632  0.00  0.00    +0.166 HD
BRANCH   7  10
ATOM     10  C   UNL     1       3.202  -8.102  -7.762  0.00  0.00    -0.002 A 
ATOM     11  C   UNL     1       3.493  -7.268  -8.843  0.00  0.00    +0.010 A 
ATOM     12  C   UNL     1       3.325  -7.731 -10.132  0.00  0.00    +0.001 A 
ATOM     13  C   UNL     1       2.858  -9.014 -10.354  0.00  0.00    +0.000 A 
ATOM     14  C   UNL     1       2.562  -9.844  -9.287  0.00  0.00    +0.001 A 
ATOM     15  C   UNL     1       2.731  -9.396  -7.993  0.00  0.00    +0.010 A 
ENDBRANCH   7  10
ENDBRANCH   2   4
BRANCH   1  16
ATOM     16  C   UNL     1       4.302  -3.822  -5.905  0.00  0.00    +0.107 C 
BRANCH  16  17
ATOM     17  C   UNL     1       5.525  -4.319  -6.678  0.00  0.00    +0.000 C 
BRANCH  17  18
ATOM     18  C   UNL     1       5.287  -4.140  -8.179  0.00  0.00    -0.077 C 
BRANCH  18  19
ATOM     19  N   UNL     1       6.477  -4.627  -8.909  0.00  0.00    +0.379 N 
ATOM     20  H   UNL     1       7.321  -4.290  -8.432  0.00  0.00    -0.082 HD
BRANCH  19  22
ATOM     21  C   UNL     1       7.884  -6.578  -9.342  0.00  0.00    -0.017 C 
ATOM     22  C   UNL     1       6.491  -6.104  -8.923  0.00  0.00    -0.082 C 
ENDBRANCH  19  22
BRANCH  19  23
ATOM     23  C   UNL     1       6.468  -4.108 -10.293  0.00  0.00    -0.082 C 
ATOM     24  C   UNL     1       6.919  -2.646 -10.272  0.00  0.00    -0.017 C 
ENDBRANCH  19  23
ENDBRANCH  18  19
ENDBRANCH  17  18
ENDBRANCH  16  17
ENDBRANCH   1  16
BRANCH   1  25
ATOM     25  C   UNL     1       5.066  -2.839  -3.694  0.00  0.00    +0.192 C 
BRANCH  25  26
ATOM     26  C   UNL     1       6.476  -2.542  -4.135  0.00  0.00    -0.018 A 
ATOM     27  C   UNL     1       6.710  -2.011  -5.390  0.00  0.00    +0.009 A 
ATOM     28  C   UNL     1       8.002  -1.734  -5.793  0.00  0.00    +0.038 A 
ATOM     29  C   UNL     1       9.064  -1.997  -4.944  0.00  0.00    +0.123 A 
ATOM     30  C   UNL     1       8.829  -2.533  -3.689  0.00  0.00    +0.038 A 
ATOM     31  C   UNL     1       7.535  -2.805  -3.286  0.00  0.00    +0.009 A 
ATOM     32  F   UNL     1      10.328  -1.730  -5.339  0.00  0.00    -0.205 F 
ENDBRANCH  25  26
BRANCH  25  33
ATOM     33  C   UNL     1       4.201  -1.627  -3.924  0.00  0.00    +0.238 C 
ATOM     34  O   UNL     1       3.241  -1.697  -4.661  0.00  0.00    -0.273 OA
ATOM     35  N   UNL     1       4.496  -0.463  -3.310  0.00  0.00    -0.311 N 
ATOM     36  H   UNL     1       5.264  -0.406  -2.721  0.00  0.00    +0.149 HD
BRANCH  35  37
ATOM     37  C   UNL     1       3.655   0.716  -3.534  0.00  0.00    +0.135 C 
BRANCH  37  38
ATOM     38  C   UNL     1       4.204   1.894  -2.726  0.00  0.00    +0.135 C 
ATOM     39  C   UNL     1       3.258   3.103  -2.855  0.00  0.00    +0.035 C 
ATOM     40  C   UNL     1       4.150   4.222  -3.447  0.00  0.00    +0.031 C 
ATOM     41  C   UNL     1       5.574   3.726  -3.087  0.00  0.00    +0.160 C 
ATOM     42  O   UNL     1       5.482   2.294  -3.248  0.00  0.00    -0.375 OA
ENDBRANCH  37  38
ENDBRANCH  35  37
ENDBRANCH  25  33
ENDBRANCH   1  25
TORSDOF 13
