REMARK  Name = ZINC40826295
REMARK  6 active torsions:
REMARK  status: ('A' for Active; 'I' for Inactive)
REMARK    1  A    between atoms: C_1  and  C_2
REMARK    2  A    between atoms: C_6  and  C_7
REMARK    3  A    between atoms: C_12  and  C_15
REMARK    4  A    between atoms: N_20  and  N_21
REMARK    5  A    between atoms: C_22  and  C_24
REMARK    6  A    between atoms: C_29  and  O_30
REMARK                            x       y       z     vdW  Elec       q    Type
REMARK                         _______ _______ _______ _____ _____    ______ ____
ROOT
ATOM      1  C   UNL     1       0.546   1.438   0.014  0.00  0.00    +0.048 C 
ATOM      2  C   UNL     1       0.194  -0.028   0.004  0.00  0.00    +0.009 A 
ATOM      3  C   UNL     1       0.037  -0.847  -1.122  0.00  0.00    +0.042 A 
ATOM      4  C   UNL     1      -0.283  -2.107  -0.674  0.00  0.00    +0.115 A 
ATOM      5  O   UNL     1      -0.319  -2.073   0.656  0.00  0.00    -0.454 OA
ATOM      6  C   UNL     1      -0.029  -0.826   1.091  0.00  0.00    +0.193 A 
ATOM      7  C   UNL     1      -0.535  -3.268  -1.602  0.00  0.00    +0.075 C 
ATOM      8  C   UNL     1      -0.887  -2.738  -2.995  0.00  0.00    +0.014 C 
ATOM      9  C   UNL     1       0.179  -1.752  -3.483  0.00  0.00    +0.058 C 
ATOM     10  C   UNL     1       0.164  -0.539  -2.564  0.00  0.00    +0.070 C 
ATOM     11  N   UNL     1       0.255   0.675  -3.011  0.00  0.00    -0.184 NA
ENDROOT
BRANCH   6  12
ATOM     12  C   UNL     1       0.032  -0.399   2.493  0.00  0.00    +0.282 C 
ATOM     13  O   UNL     1       0.154   0.780   2.766  0.00  0.00    -0.267 OA
ATOM     14  N   UNL     1      -0.048  -1.314   3.480  0.00  0.00    -0.295 N 
ATOM     15  C   UNL     1      -0.026  -2.751   3.172  0.00  0.00    +0.108 C 
ATOM     16  C   UNL     1       1.078  -3.416   3.999  0.00  0.00    +0.022 C 
ATOM     17  C   UNL     1       0.866  -3.094   5.480  0.00  0.00    -0.011 C 
ATOM     18  C   UNL     1       0.949  -1.580   5.691  0.00  0.00    +0.022 C 
ATOM     19  C   UNL     1      -0.152  -0.894   4.884  0.00  0.00    +0.108 C 
ATOM     20  C   UNL     1       1.947  -3.785   6.313  0.00  0.00    +0.007 C 
ENDBRANCH   6  12
BRANCH  11  21
ATOM     21  N   UNL     1       0.373   0.907  -4.388  0.00  0.00    -0.203 N 
ATOM     22  C   UNL     1       0.468   2.168  -4.853  0.00  0.00    +0.267 C 
ATOM     23  O   UNL     1       0.451   3.106  -4.078  0.00  0.00    -0.268 OA
ATOM     24  H   UNL     1       0.387   0.160  -5.006  0.00  0.00    +0.178 HD
BRANCH  22  25
ATOM     25  C   UNL     1       0.593   2.413  -6.302  0.00  0.00    +0.080 A 
ATOM     26  C   UNL     1       0.607   1.340  -7.197  0.00  0.00    +0.017 A 
ATOM     27  C   UNL     1       0.724   1.575  -8.550  0.00  0.00    +0.001 A 
ATOM     28  C   UNL     1       0.827   2.871  -9.028  0.00  0.00    +0.004 A 
ATOM     29  C   UNL     1       0.814   3.941  -8.155  0.00  0.00    +0.046 A 
ATOM     30  C   UNL     1       0.692   3.723  -6.790  0.00  0.00    +0.129 A 
BRANCH  30  31
ATOM     31  O   UNL     1       0.673   4.773  -5.932  0.00  0.00    -0.506 OA
ATOM     32  H   UNL     1       1.547   5.037  -5.614  0.00  0.00    +0.292 HD
ENDBRANCH  30  31
ENDBRANCH  22  25
ENDBRANCH  11  21
TORSDOF 4
