REMARK  Name = ZINC35476923
REMARK  7 active torsions:
REMARK  status: ('A' for Active; 'I' for Inactive)
REMARK    1  A    between atoms: C_1  and  C_2
REMARK    2  A    between atoms: C_2  and  C_3
REMARK    3  A    between atoms: C_5  and  C_17
REMARK    4  A    between atoms: C_6  and  N_8
REMARK    5  A    between atoms: C_9  and  C_11
REMARK    6  A    between atoms: C_17  and  C_19
REMARK    7  A    between atoms: C_17  and  N_24
REMARK                            x       y       z     vdW  Elec       q    Type
REMARK                         _______ _______ _______ _____ _____    ______ ____
ROOT
ATOM      1  C   UNL     1       0.736  -0.807  -1.032  0.00  0.00    -0.008 A 
ATOM      2  C   UNL     1       2.053  -0.990  -1.287  0.00  0.00    +0.019 A 
ATOM      3  C   UNL     1       2.452  -1.301  -2.575  0.00  0.00    +0.006 A 
ATOM      4  C   UNL     1       1.503  -1.413  -3.546  0.00  0.00    +0.077 A 
ATOM      5  S   UNL     1       0.003  -1.082  -2.636  0.00  0.00    -0.078 S 
ENDROOT
BRANCH   4   6
ATOM      6  N   UNL     1       1.662  -1.714  -4.900  0.00  0.00    -0.276 N 
ATOM      7  C   UNL     1       0.585  -1.778  -5.708  0.00  0.00    +0.249 C 
ATOM      8  O   UNL     1      -0.526  -1.574  -5.257  0.00  0.00    -0.270 OA
ATOM      9  H   UNL     1       2.548  -1.876  -5.260  0.00  0.00    +0.156 HD
BRANCH   7  10
ATOM     10  C   UNL     1       0.753  -2.097  -7.141  0.00  0.00    +0.037 A 
ATOM     11  C   UNL     1       2.026  -2.337  -7.661  0.00  0.00    +0.013 A 
ATOM     12  C   UNL     1       2.176  -2.635  -8.999  0.00  0.00    +0.001 A 
ATOM     13  C   UNL     1       1.069  -2.695  -9.826  0.00  0.00    +0.000 A 
ATOM     14  C   UNL     1      -0.196  -2.457  -9.318  0.00  0.00    +0.001 A 
ATOM     15  C   UNL     1      -0.360  -2.164  -7.980  0.00  0.00    +0.013 A 
ENDBRANCH   7  10
ENDBRANCH   4   6
BRANCH   1  17
ATOM     16  C   UNL     1      -0.036   1.054   0.413  0.00  0.00    +0.009 C 
ATOM     17  C   UNL     1       0.061  -0.466   0.272  0.00  0.00    +0.039 C 
ENDBRANCH   1  17
BRANCH   3  18
ATOM     18  C   UNL     1       3.909  -1.511  -2.897  0.00  0.00    +0.135 C 
BRANCH  18  19
ATOM     19  N   UNL     1       4.732  -0.749  -1.955  0.00  0.00    -0.320 N 
ATOM     20  C   UNL     1       6.015  -0.353  -2.316  0.00  0.00    +0.097 A 
ATOM     21  C   UNL     1       6.509  -0.680  -3.575  0.00  0.00    +0.041 A 
ATOM     22  C   UNL     1       7.787  -0.280  -3.921  0.00  0.00    +0.005 A 
ATOM     23  C   UNL     1       8.531   0.436  -2.993  0.00  0.00    +0.018 A 
ATOM     24  C   UNL     1       7.979   0.726  -1.762  0.00  0.00    +0.084 A 
ATOM     25  N   UNL     1       6.754   0.336  -1.461  0.00  0.00    -0.350 N 
ATOM     26  H   UNL     1       4.382  -0.519  -1.080  0.00  0.00    +0.148 HD
ATOM     27  H   UNL     1       6.388   0.556  -0.590  0.00  0.00    +0.166 HD
ENDBRANCH  18  19
BRANCH  18  28
ATOM     28  C   UNL     1       4.242  -2.976  -2.783  0.00  0.00    -0.016 A 
ATOM     29  C   UNL     1       4.326  -3.767  -3.914  0.00  0.00    +0.013 A 
ATOM     30  C   UNL     1       4.628  -5.081  -3.777  0.00  0.00    +0.045 A 
ATOM     31  S   UNL     1       4.804  -5.236  -2.007  0.00  0.00    -0.105 S 
ATOM     32  C   UNL     1       4.469  -3.538  -1.571  0.00  0.00    +0.051 A 
ENDBRANCH  18  28
ENDBRANCH   3  18
TORSDOF 6
