REMARK  Name = ZINC43140269
REMARK  6 active torsions:
REMARK  status: ('A' for Active; 'I' for Inactive)
REMARK    1  A    between atoms: C_1  and  C_2
REMARK    2  A    between atoms: C_2  and  C_4
REMARK    3  A    between atoms: C_2  and  N_12
REMARK    4  A    between atoms: N_15  and  N_16
REMARK    5  A    between atoms: C_17  and  C_19
REMARK    6  A    between atoms: C_23  and  N_25
REMARK                            x       y       z     vdW  Elec       q    Type
REMARK                         _______ _______ _______ _____ _____    ______ ____
ROOT
ATOM      1  N   UNL     1       0.688  -0.476  -1.203  0.00  0.00    -0.292 N 
ATOM      2  C   UNL     1       0.006  -0.608  -2.358  0.00  0.00    +0.316 C 
ATOM      3  O   UNL     1      -1.178  -0.335  -2.400  0.00  0.00    -0.251 OA
ATOM      4  N   UNL     1       0.637  -1.043  -3.467  0.00  0.00    -0.218 N 
ATOM      5  H   UNL     1       1.632  -0.695  -1.170  0.00  0.00    +0.151 HD
ATOM      6  H   UNL     1       0.146  -1.137  -4.299  0.00  0.00    +0.174 HD
ENDROOT
BRANCH   4   7
ATOM      7  N   UNL     1       2.001  -1.358  -3.419  0.00  0.00    -0.229 N 
ATOM      8  C   UNL     1       2.632  -1.792  -4.528  0.00  0.00    +0.260 C 
ATOM      9  O   UNL     1       2.017  -1.911  -5.570  0.00  0.00    -0.269 OA
ATOM     10  H   UNL     1       2.492  -1.263  -2.588  0.00  0.00    +0.173 HD
BRANCH   8  11
ATOM     11  C   UNL     1       4.072  -2.125  -4.477  0.00  0.00    +0.040 A 
ATOM     12  C   UNL     1       4.779  -1.995  -3.281  0.00  0.00    +0.013 A 
ATOM     13  C   UNL     1       6.122  -2.307  -3.240  0.00  0.00    +0.003 A 
ATOM     14  C   UNL     1       6.768  -2.748  -4.382  0.00  0.00    +0.033 A 
ATOM     15  C   UNL     1       6.073  -2.879  -5.571  0.00  0.00    +0.127 A 
ATOM     16  C   UNL     1       4.728  -2.575  -5.624  0.00  0.00    +0.045 A 
BRANCH  15  17
ATOM     17  N   UNL     1       6.772  -3.351  -6.787  0.00  0.00    +0.056 N 
ATOM     18  O   UNL     1       7.949  -3.622  -6.741  0.00  0.00    -0.126 OA
ATOM     19  O   UNL     1       6.166  -3.465  -7.827  0.00  0.00    -0.126 OA
ENDBRANCH  15  17
ENDBRANCH   8  11
ENDBRANCH   4   7
BRANCH   1  21
ATOM     20  C   UNL     1      -0.019   1.526   0.010  0.00  0.00    +0.033 C 
ATOM     21  C   UNL     1       0.002  -0.004   0.002  0.00  0.00    +0.103 C 
BRANCH  21  22
ATOM     22  C   UNL     1       0.731  -0.503   1.223  0.00  0.00    -0.009 A 
ATOM     23  C   UNL     1       2.077  -0.808   1.148  0.00  0.00    +0.008 A 
ATOM     24  C   UNL     1       2.746  -1.266   2.267  0.00  0.00    +0.020 A 
ATOM     25  C   UNL     1       2.069  -1.419   3.464  0.00  0.00    +0.042 A 
ATOM     26  C   UNL     1       0.722  -1.114   3.540  0.00  0.00    +0.040 A 
ATOM     27  C   UNL     1       0.054  -0.651   2.420  0.00  0.00    +0.047 A 
ATOM     28 CL   UNL     1      -1.635  -0.262   2.516  0.00  0.00    -0.083 Cl
ATOM     29 CL   UNL     1       2.909  -1.995   4.869  0.00  0.00    -0.083 Cl
ENDBRANCH  21  22
ENDBRANCH   1  21
TORSDOF 5
