REMARK  Name = ZINC39696243
REMARK  10 active torsions:
REMARK  status: ('A' for Active; 'I' for Inactive)
REMARK    1  A    between atoms: C_1  and  C_2
REMARK    2  A    between atoms: C_2  and  C_3
REMARK    3  A    between atoms: C_6  and  C_9
REMARK    4  A    between atoms: C_9  and  C_11
REMARK    5  A    between atoms: C_9  and  N_12
REMARK    6  A    between atoms: C_13  and  C_15
REMARK    7  A    between atoms: C_26  and  C_28
REMARK    8  A    between atoms: C_28  and  O_29
REMARK    9  A    between atoms: O_29  and  C_30
REMARK   10  A    between atoms: C_40  and  C_41
REMARK                            x       y       z     vdW  Elec       q    Type
REMARK                         _______ _______ _______ _____ _____    ______ ____
ROOT
ATOM      1  C   UNL     1      -8.330  -0.554  -1.977  0.00  0.00    +0.100 C 
ATOM      2  C   UNL     1      -8.015   0.958  -2.002  0.00  0.00    +0.121 C 
ATOM      3  N   UNL     1      -9.312   1.606  -2.306  0.00  0.00    -0.297 N 
ATOM      4  C   UNL     1     -10.306   0.822  -1.533  0.00  0.00    +0.115 C 
ATOM      5  C   UNL     1      -9.834  -0.640  -1.669  0.00  0.00    -0.004 C 
ATOM      6  C   UNL     1     -10.570  -1.328  -2.814  0.00  0.00    -0.010 C 
ATOM      7  C   UNL     1     -12.055  -1.451  -2.459  0.00  0.00    -0.082 C 
ATOM      8  N   UNL     1     -12.201  -2.227  -1.221  0.00  0.00    +0.379 N 
ATOM      9  C   UNL     1     -11.569  -1.512  -0.105  0.00  0.00    -0.082 C 
ATOM     10  C   UNL     1     -10.064  -1.391  -0.361  0.00  0.00    -0.010 C 
ATOM     11  C   UNL     1      -9.539   2.668  -3.104  0.00  0.00    +0.253 C 
ATOM     12  O   UNL     1     -10.668   3.085  -3.253  0.00  0.00    -0.272 OA
ATOM     13  H   UNL     1     -13.181  -2.359  -1.023  0.00  0.00    -0.086 HD
ATOM     14  H   UNL     1     -11.759  -3.127  -1.336  0.00  0.00    -0.086 HD
ENDROOT
BRANCH   1  16
ATOM     15  N   UNL     1      -7.184  -2.533  -1.033  0.00  0.00    -0.308 N 
ATOM     16  C   UNL     1      -7.533  -1.239  -0.896  0.00  0.00    +0.219 C 
ATOM     17  O   UNL     1      -7.206  -0.624   0.097  0.00  0.00    -0.275 OA
ATOM     18  H   UNL     1      -7.446  -3.025  -1.828  0.00  0.00    +0.149 HD
BRANCH  15  19
ATOM     19  C   UNL     1      -6.409  -3.198   0.018  0.00  0.00    +0.100 C 
ATOM     20  C   UNL     1      -7.359  -3.721   1.098  0.00  0.00    +0.033 C 
BRANCH  19  24
ATOM     21  C   UNL     1      -4.236  -6.467  -1.667  0.00  0.00    -0.048 A 
ATOM     22  C   UNL     1      -3.644  -5.663  -0.711  0.00  0.00    +0.004 A 
ATOM     23  C   UNL     1      -4.347  -4.605  -0.166  0.00  0.00    +0.006 A 
ATOM     24  C   UNL     1      -5.642  -4.351  -0.577  0.00  0.00    -0.027 A 
ATOM     25  C   UNL     1      -6.234  -5.155  -1.534  0.00  0.00    +0.006 A 
ATOM     26  C   UNL     1      -5.529  -6.210  -2.082  0.00  0.00    +0.004 A 
BRANCH  21  28
ATOM     27  C   UNL     1      -2.704  -7.142  -3.497  0.00  0.00    +0.009 C 
ATOM     28  C   UNL     1      -3.469  -7.620  -2.261  0.00  0.00    +0.032 C 
ENDBRANCH  21  28
ENDBRANCH  19  24
ENDBRANCH  15  19
ENDBRANCH   1  16
BRANCH  11  29
ATOM     29  C   UNL     1      -8.389   3.337  -3.812  0.00  0.00    +0.324 C 
BRANCH  29  30
ATOM     30  O   UNL     1      -8.880   4.429  -4.592  0.00  0.00    -0.479 OA
BRANCH  30  31
ATOM     31  C   UNL     1      -7.964   5.144  -5.298  0.00  0.00    +0.164 A 
ATOM     32  C   UNL     1      -6.626   4.799  -5.247  0.00  0.00    +0.049 A 
ATOM     33  C   UNL     1      -5.682   5.520  -5.963  0.00  0.00    +0.004 A 
ATOM     34  C   UNL     1      -6.065   6.592  -6.737  0.00  0.00    +0.012 A 
ATOM     35  C   UNL     1      -7.415   6.954  -6.801  0.00  0.00    +0.024 A 
ATOM     36  C   UNL     1      -8.373   6.222  -6.081  0.00  0.00    +0.181 A 
ATOM     37  O   UNL     1      -9.676   6.571  -6.148  0.00  0.00    -0.418 OA
ATOM     38  C   UNL     1     -10.087   7.606  -6.896  0.00  0.00    +0.338 A 
ATOM     39  O   UNL     1     -11.272   7.884  -6.925  0.00  0.00    -0.245 OA
ATOM     40  C   UNL     1      -9.179   8.382  -7.650  0.00  0.00    +0.096 A 
ATOM     41  C   UNL     1      -7.854   8.091  -7.617  0.00  0.00    -0.033 A 
ATOM     42  C   UNL     1      -6.863   8.903  -8.410  0.00  0.00    +0.045 C 
ENDBRANCH  30  31
ENDBRANCH  29  30
ENDBRANCH  11  29
TORSDOF 7
