REMARK  Name = ZINC39635501
REMARK  6 active torsions:
REMARK  status: ('A' for Active; 'I' for Inactive)
REMARK    1  A    between atoms: C_3  and  C_8
REMARK    2  A    between atoms: C_8  and  N_9
REMARK    3  A    between atoms: C_10  and  C_12
REMARK    4  A    between atoms: C_23  and  C_25
REMARK    5  A    between atoms: C_28  and  O_31
REMARK    6  A    between atoms: O_31  and  C_32
REMARK                            x       y       z     vdW  Elec       q    Type
REMARK                         _______ _______ _______ _____ _____    ______ ____
ROOT
ATOM      1  C   UNL     1       5.399   3.866   2.650  0.00  0.00    +0.100 C 
ATOM      2  C   UNL     1       4.491   4.632   3.637  0.00  0.00    +0.121 C 
ATOM      3  N   UNL     1       5.429   5.402   4.488  0.00  0.00    -0.296 N 
ATOM      4  C   UNL     1       6.476   5.872   3.550  0.00  0.00    +0.115 C 
ATOM      5  C   UNL     1       6.701   4.683   2.595  0.00  0.00    -0.004 C 
ATOM      6  C   UNL     1       7.877   3.836   3.073  0.00  0.00    -0.010 C 
ATOM      7  C   UNL     1       9.167   4.652   2.955  0.00  0.00    -0.082 C 
ATOM      8  N   UNL     1       9.366   5.057   1.559  0.00  0.00    +0.379 N 
ATOM      9  C   UNL     1       8.278   5.947   1.135  0.00  0.00    -0.082 C 
ATOM     10  C   UNL     1       6.950   5.186   1.176  0.00  0.00    -0.010 C 
ATOM     11  C   UNL     1       5.348   5.625   5.814  0.00  0.00    +0.247 C 
ATOM     12  O   UNL     1       4.494   5.065   6.474  0.00  0.00    -0.270 OA
ATOM     13  H   UNL     1      10.247   5.542   1.473  0.00  0.00    -0.086 HD
ATOM     14  H   UNL     1       9.377   4.238   0.970  0.00  0.00    -0.086 HD
ENDROOT
BRANCH  11  15
ATOM     15  C   UNL     1       6.295   6.550   6.467  0.00  0.00    +0.037 A 
ATOM     16  C   UNL     1       6.972   7.510   5.709  0.00  0.00    +0.016 A 
ATOM     17  C   UNL     1       7.855   8.371   6.321  0.00  0.00    +0.047 A 
ATOM     18  C   UNL     1       8.074   8.286   7.691  0.00  0.00    +0.130 A 
ATOM     19  C   UNL     1       7.403   7.333   8.448  0.00  0.00    +0.047 A 
ATOM     20  C   UNL     1       6.514   6.472   7.845  0.00  0.00    +0.016 A 
BRANCH  18  21
ATOM     21  O   UNL     1       8.946   9.136   8.291  0.00  0.00    -0.406 OA
BRANCH  21  22
ATOM     22  C   UNL     1       9.124   8.994   9.701  0.00  0.00    +0.575 C 
ATOM     23  F   UNL     1       9.597   7.708   9.985  0.00  0.00    -0.133 F 
ATOM     24  F   UNL     1      10.049   9.942  10.152  0.00  0.00    -0.133 F 
ATOM     25  F   UNL     1       7.899   9.193  10.348  0.00  0.00    -0.133 F 
ENDBRANCH  21  22
ENDBRANCH  18  21
ENDBRANCH  11  15
BRANCH   1  27
ATOM     26  N   UNL     1       5.002   2.760   0.473  0.00  0.00    -0.311 N 
ATOM     27  C   UNL     1       4.759   3.806   1.286  0.00  0.00    +0.218 C 
ATOM     28  O   UNL     1       4.025   4.700   0.922  0.00  0.00    -0.275 OA
ATOM     29  H   UNL     1       5.590   2.045   0.765  0.00  0.00    +0.149 HD
BRANCH  26  30
ATOM     30  C   UNL     1       4.380   2.702  -0.852  0.00  0.00    +0.139 C 
BRANCH  30  33
ATOM     31  C   UNL     1       4.467  -0.876  -2.056  0.00  0.00    +0.002 A 
ATOM     32  C   UNL     1       4.072   0.282  -1.411  0.00  0.00    +0.005 A 
ATOM     33  C   UNL     1       4.812   1.440  -1.555  0.00  0.00    -0.029 A 
ATOM     34  C   UNL     1       5.947   1.443  -2.343  0.00  0.00    +0.025 A 
ATOM     35  C   UNL     1       6.343   0.285  -2.989  0.00  0.00    +0.041 A 
ATOM     36  C   UNL     1       5.602  -0.875  -2.844  0.00  0.00    +0.020 A 
ATOM     37 CL   UNL     1       7.769   0.287  -3.979  0.00  0.00    -0.084 Cl
ENDBRANCH  30  33
ENDBRANCH  26  30
ENDBRANCH   1  27
TORSDOF 6
