REMARK  Name = ZINC61821748
REMARK  5 active torsions:
REMARK  status: ('A' for Active; 'I' for Inactive)
REMARK    1  A    between atoms: C_1  and  N_2
REMARK    2  A    between atoms: N_2  and  C_3
REMARK    3  A    between atoms: C_3  and  C_5
REMARK    4  A    between atoms: C_3  and  C_17
REMARK    5  A    between atoms: C_5  and  N_6
REMARK                            x       y       z     vdW  Elec       q    Type
REMARK                         _______ _______ _______ _____ _____    ______ ____
ROOT
ATOM      1  N   UNL     1      -1.280  -1.780  -1.651  0.00  0.00    +0.381 N 
ATOM      2  C   UNL     1      -1.849  -1.307  -0.383  0.00  0.00    -0.078 C 
ATOM      3  C   UNL     1      -3.353  -1.079  -0.548  0.00  0.00    -0.012 C 
ATOM      4  C   UNL     1      -4.021  -2.396  -0.951  0.00  0.00    -0.033 C 
ATOM      5  C   UNL     1      -3.842  -3.423   0.167  0.00  0.00    +0.007 C 
ATOM      6  C   UNL     1      -4.508  -4.740  -0.238  0.00  0.00    +0.001 C 
ATOM      7  C   UNL     1      -6.000  -4.503  -0.479  0.00  0.00    +0.000 C 
ATOM      8  C   UNL     1      -6.179  -3.476  -1.599  0.00  0.00    +0.001 C 
ATOM      9  C   UNL     1      -5.513  -2.159  -1.195  0.00  0.00    +0.007 C 
ATOM     10  C   UNL     1      -3.370  -2.918  -2.234  0.00  0.00    -0.012 C 
ATOM     11  C   UNL     1      -1.865  -3.078  -2.006  0.00  0.00    -0.078 C 
ATOM     12  H   UNL     1      -1.482  -1.111  -2.378  0.00  0.00    -0.082 HD
ENDROOT
BRANCH   1  13
ATOM     13  C   UNL     1       0.175  -1.923  -1.509  0.00  0.00    -0.051 C 
BRANCH  13  14
ATOM     14  C   UNL     1       0.789  -2.263  -2.869  0.00  0.00    +0.123 C 
BRANCH  14  15
ATOM     15  C   UNL     1       2.291  -2.300  -2.747  0.00  0.00    +0.226 C 
ATOM     16  O   UNL     1       2.971  -1.548  -3.413  0.00  0.00    -0.274 OA
ATOM     17  N   UNL     1       2.877  -3.168  -1.900  0.00  0.00    -0.328 N 
ATOM     18  H   UNL     1       2.333  -3.769  -1.368  0.00  0.00    +0.145 HD
ATOM     19  H   UNL     1       3.844  -3.192  -1.821  0.00  0.00    +0.145 HD
ENDBRANCH  14  15
BRANCH  14  21
ATOM     20  C   UNL     1       0.436  -1.781  -5.215  0.00  0.00    +0.101 C 
ATOM     21  N   UNL     1       0.402  -1.240  -3.850  0.00  0.00    -0.310 NA
ATOM     22  H   UNL     1       0.988  -0.422  -3.770  0.00  0.00    +0.122 HD
ENDBRANCH  14  21
ENDBRANCH  13  14
ENDBRANCH   1  13
TORSDOF 4
