REMARK  Name = ZINC21129859
REMARK  8 active torsions:
REMARK  status: ('A' for Active; 'I' for Inactive)
REMARK    1  A    between atoms: C_1  and  C_2
REMARK    2  A    between atoms: C_5  and  N_9
REMARK    3  A    between atoms: C_7  and  C_8
REMARK    4  A    between atoms: C_18  and  S_19
REMARK    5  A    between atoms: S_19  and  C_20
REMARK    6  A    between atoms: C_20  and  C_22
REMARK    7  A    between atoms: C_20  and  C_23
REMARK    8  A    between atoms: N_28  and  C_29
REMARK                            x       y       z     vdW  Elec       q    Type
REMARK                         _______ _______ _______ _____ _____    ______ ____
ROOT
ATOM      1  N   UNL     1      -0.957   3.662   0.031  0.00  0.00    -0.255 N 
ATOM      2  C   UNL     1      -1.027   2.505  -0.652  0.00  0.00    +0.268 A 
ATOM      3  O   UNL     1      -2.044   2.203  -1.254  0.00  0.00    -0.267 OA
ATOM      4  C   UNL     1       0.105   1.631  -0.659  0.00  0.00    +0.076 A 
ATOM      5  C   UNL     1       0.246   0.334  -1.325  0.00  0.00    -0.023 A 
ATOM      6  C   UNL     1       1.427  -0.301  -1.184  0.00  0.00    -0.004 A 
ATOM      7  S   UNL     1       2.410   0.773  -0.172  0.00  0.00    -0.073 S 
ATOM      8  C   UNL     1       1.227   2.076   0.060  0.00  0.00    +0.117 A 
ATOM      9  N   UNL     1       1.236   3.233   0.711  0.00  0.00    -0.215 NA
ATOM     10  C   UNL     1       0.177   4.018   0.706  0.00  0.00    +0.178 A 
ATOM     11  C   UNL     1       1.819  -1.627  -1.761  0.00  0.00    +0.043 C 
ATOM     12  C   UNL     1       0.547  -2.343  -2.238  0.00  0.00    +0.005 C 
ATOM     13  C   UNL     1      -0.290  -1.360  -3.061  0.00  0.00    +0.005 C 
ATOM     14  C   UNL     1      -0.881  -0.287  -2.145  0.00  0.00    +0.037 C 
ENDROOT
BRANCH   1  19
ATOM     15  C   UNL     1      -5.442   7.138   0.092  0.00  0.00    +0.044 C 
ATOM     16  C   UNL     1      -4.251   6.215   0.076  0.00  0.00    -0.047 A 
ATOM     17  C   UNL     1      -4.117   5.244   1.051  0.00  0.00    +0.005 A 
ATOM     18  C   UNL     1      -3.030   4.392   1.035  0.00  0.00    +0.026 A 
ATOM     19  C   UNL     1      -2.064   4.520   0.046  0.00  0.00    +0.052 A 
ATOM     20  C   UNL     1      -2.201   5.496  -0.932  0.00  0.00    +0.030 A 
ATOM     21  C   UNL     1      -3.294   6.341  -0.914  0.00  0.00    -0.046 A 
ATOM     22  C   UNL     1      -3.443   7.401  -1.975  0.00  0.00    +0.044 C 
ENDBRANCH   1  19
BRANCH  10  23
ATOM     23  S   UNL     1       0.224   5.547   1.581  0.00  0.00    -0.075 S 
BRANCH  23  24
ATOM     24  C   UNL     1       1.906   5.477   2.247  0.00  0.00    +0.137 C 
ATOM     25  C   UNL     1       2.014   4.316   3.238  0.00  0.00    +0.029 C 
BRANCH  24  26
ATOM     26  C   UNL     1       2.221   6.771   2.951  0.00  0.00    +0.233 C 
ATOM     27  O   UNL     1       1.324   7.451   3.400  0.00  0.00    -0.274 OA
ATOM     28  N   UNL     1       3.502   7.172   3.083  0.00  0.00    -0.239 N 
ATOM     29  C   UNL     1       3.784   8.329   3.713  0.00  0.00    +0.306 C 
ATOM     30  O   UNL     1       2.884   9.011   4.163  0.00  0.00    -0.252 OA
ATOM     31  N   UNL     1       5.064   8.730   3.845  0.00  0.00    -0.302 N 
ATOM     32  C   UNL     1       5.371   9.988   4.530  0.00  0.00    +0.129 C 
ATOM     33  H   UNL     1       4.316   6.554   2.675  0.00  0.00    +0.159 HD
ATOM     34  H   UNL     1       5.878   8.112   3.437  0.00  0.00    +0.150 HD
ENDBRANCH  24  26
ENDBRANCH  23  24
ENDBRANCH  10  23
TORSDOF 4
