REMARK  Name = ZINC63541085
REMARK  6 active torsions:
REMARK  status: ('A' for Active; 'I' for Inactive)
REMARK    1  A    between atoms: C_7  and  C_10
REMARK    2  A    between atoms: C_10  and  C_11
REMARK    3  A    between atoms: C_11  and  N_12
REMARK    4  A    between atoms: C_13  and  C_15
REMARK    5  A    between atoms: C_22  and  C_31
REMARK    6  A    between atoms: C_24  and  C_27
REMARK                            x       y       z     vdW  Elec       q    Type
REMARK                         _______ _______ _______ _____ _____    ______ ____
ROOT
ATOM      1  C   UNL     1      -1.752  -6.557  -2.622  0.00  0.00    +0.180 C 
ATOM      2  C   UNL     1      -0.987  -7.879  -2.337  0.00  0.00    +0.151 C 
ATOM      3  C   UNL     1      -0.530  -8.293  -3.751  0.00  0.00    +0.226 C 
ATOM      4  N   UNL     1       0.894  -8.005  -3.937  0.00  0.00    -0.258 NA
ATOM      5  C   UNL     1       1.327  -7.563  -5.096  0.00  0.00    +0.076 C 
ATOM      6  C   UNL     1       0.418  -7.351  -6.229  0.00  0.00    +0.057 C 
ATOM      7  C   UNL     1      -0.916  -7.262  -5.992  0.00  0.00    +0.129 C 
ATOM      8  N   UNL     1      -1.294  -7.425  -4.673  0.00  0.00    -0.236 N 
ATOM      9  N   UNL     1      -2.297  -6.806  -3.986  0.00  0.00    -0.225 NA
ATOM     10 CL   UNL     1      -2.086  -9.119  -1.625  0.00  0.00    -0.116 Cl
ATOM     11  H   UNL     1      -3.120  -7.388  -3.946  0.00  0.00    +0.145 HD
ENDROOT
BRANCH   5  12
ATOM     12  C   UNL     1       2.762  -7.272  -5.263  0.00  0.00    +0.037 A 
ATOM     13  C   UNL     1       3.782  -7.401  -4.353  0.00  0.00    +0.017 A 
ATOM     14  C   UNL     1       5.037  -7.049  -4.799  0.00  0.00    +0.008 A 
ATOM     15  C   UNL     1       5.182  -6.611  -6.072  0.00  0.00    +0.046 A 
ATOM     16  S   UNL     1       3.626  -6.671  -6.702  0.00  0.00    -0.095 S 
ENDBRANCH   5  12
BRANCH   1  18
ATOM     17  N   UNL     1      -0.458  -4.798  -1.460  0.00  0.00    -0.314 N 
ATOM     18  C   UNL     1      -0.811  -5.380  -2.623  0.00  0.00    +0.233 C 
ATOM     19  O   UNL     1      -0.371  -4.957  -3.671  0.00  0.00    -0.274 OA
ATOM     20  H   UNL     1      -0.810  -5.136  -0.622  0.00  0.00    +0.149 HD
BRANCH  17  21
ATOM     21  C   UNL     1       0.457  -3.653  -1.462  0.00  0.00    +0.108 C 
BRANCH  21  22
ATOM     22  C   UNL     1       0.691  -3.186  -0.024  0.00  0.00    +0.052 C 
BRANCH  22  29
ATOM     23  C   UNL     1      -0.016   1.348   0.009  0.00  0.00    +0.001 A 
ATOM     24  C   UNL     1       1.166   2.101   0.002  0.00  0.00    +0.002 A 
ATOM     25  C   UNL     1       2.391   1.535  -0.013  0.00  0.00    +0.026 A 
ATOM     26  C   UNL     1       2.529   0.120  -0.022  0.00  0.00    +0.043 A 
ATOM     27  N   UNL     1       3.587  -0.654  -0.037  0.00  0.00    -0.380 N 
ATOM     28  C   UNL     1       3.143  -2.053  -0.041  0.00  0.00    +0.144 C 
ATOM     29  C   UNL     1       1.631  -2.008  -0.025  0.00  0.00    -0.040 C 
ATOM     30  C   UNL     1       1.295  -0.698  -0.014  0.00  0.00    -0.001 A 
ATOM     31  C   UNL     1       0.002  -0.004   0.002  0.00  0.00    +0.010 A 
ATOM     32  H   UNL     1       4.509  -0.353  -0.045  0.00  0.00    +0.160 HD
ENDBRANCH  22  29
ENDBRANCH  21  22
ENDBRANCH  17  21
ENDBRANCH   1  18
BRANCH   7  33
ATOM     33  C   UNL     1      -1.920  -7.017  -7.089  0.00  0.00    +0.431 C 
ATOM     34  F   UNL     1      -1.254  -6.907  -8.315  0.00  0.00    -0.165 F 
ATOM     35  F   UNL     1      -2.821  -8.086  -7.143  0.00  0.00    -0.165 F 
ATOM     36  F   UNL     1      -2.616  -5.832  -6.828  0.00  0.00    -0.165 F 
ENDBRANCH   7  33
TORSDOF 6
