REMARK  Name = ZINC20594648
REMARK  5 active torsions:
REMARK  status: ('A' for Active; 'I' for Inactive)
REMARK    1  A    between atoms: C_1  and  C_2
REMARK    2  A    between atoms: C_2  and  C_3
REMARK    3  A    between atoms: C_16  and  C_18
REMARK    4  A    between atoms: C_18  and  C_19
REMARK    5  A    between atoms: C_19  and  C_20
REMARK                            x       y       z     vdW  Elec       q    Type
REMARK                         _______ _______ _______ _____ _____    ______ ____
ROOT
ATOM      1  C   UNL     1       3.650  -1.871   7.698  0.00  0.00    -0.006 C 
ATOM      2  C   UNL     1       3.111  -0.485   8.066  0.00  0.00    +0.008 C 
ATOM      3  C   UNL     1       1.853  -0.183   7.252  0.00  0.00    +0.037 C 
ATOM      4  C   UNL     1       2.160  -0.399   5.773  0.00  0.00    -0.023 A 
ATOM      5  C   UNL     1       3.227  -1.132   5.390  0.00  0.00    -0.004 A 
ATOM      6  S   UNL     1       3.188  -1.108   3.618  0.00  0.00    -0.073 S 
ATOM      7  C   UNL     1       1.736  -0.111   3.397  0.00  0.00    +0.116 A 
ATOM      8  C   UNL     1       1.330   0.169   4.711  0.00  0.00    +0.075 A 
ATOM      9  C   UNL     1       0.153   0.978   4.838  0.00  0.00    +0.260 A 
ATOM     10  O   UNL     1      -0.278   1.276   5.938  0.00  0.00    -0.267 OA
ATOM     11  N   UNL     1      -0.464   1.407   3.721  0.00  0.00    -0.310 N 
ATOM     12  H   UNL     1      -1.363   2.036   3.797  0.00  0.00    +0.170 HD
ATOM     13  C   UNL     1       0.000   1.080   2.488  0.00  0.00    +0.111 A 
ATOM     14  N   UNL     1       1.070   0.345   2.340  0.00  0.00    -0.227 NA
ATOM     15  C   UNL     1       4.224  -1.815   6.276  0.00  0.00    +0.046 C 
ENDROOT
BRANCH   1  17
ATOM     16  C   UNL     1       5.197  -3.706   8.391  0.00  0.00    +0.004 C 
ATOM     17  C   UNL     1       4.749  -2.273   8.684  0.00  0.00    +0.000 C 
ENDBRANCH   1  17
BRANCH  13  18
ATOM     18  C   UNL     1      -0.729   1.579   1.267  0.00  0.00    +0.085 C 
BRANCH  18  19
ATOM     19  C   UNL     1      -0.013   1.086   0.008  0.00  0.00    +0.133 C 
BRANCH  19  20
ATOM     20  C   UNL     1      -0.742   1.585  -1.213  0.00  0.00    +0.356 C 
ATOM     21  O   UNL     1      -1.732   2.266  -1.089  0.00  0.00    -0.246 OA
ATOM     22  O   UNL     1      -0.290   1.274  -2.438  0.00  0.00    -0.246 OA
ENDBRANCH  19  20
ENDBRANCH  18  19
ENDBRANCH  13  18
TORSDOF 4
