REMARK  Name = ZINC63731566
REMARK  13 active torsions:
REMARK  status: ('A' for Active; 'I' for Inactive)
REMARK    1  A    between atoms: C_1  and  C_2
REMARK    2  A    between atoms: C_2  and  C_3
REMARK    3  A    between atoms: C_3  and  C_5
REMARK    4  A    between atoms: C_3  and  S_12
REMARK    5  A    between atoms: N_7  and  C_8
REMARK    6  A    between atoms: C_8  and  C_9
REMARK    7  A    between atoms: C_9  and  O_10
REMARK    8  A    between atoms: O_10  and  C_11
REMARK    9  A    between atoms: S_12  and  C_13
REMARK   10  A    between atoms: C_18  and  C_21
REMARK   11  A    between atoms: N_24  and  C_25
REMARK   12  A    between atoms: C_28  and  O_31
REMARK   13  A    between atoms: O_31  and  C_32
REMARK                            x       y       z     vdW  Elec       q    Type
REMARK                         _______ _______ _______ _____ _____    ______ ____
ROOT
ATOM      1  C   UNL     1       2.349   1.755   0.946  0.00  0.00    +0.260 C 
ATOM      2  N   UNL     1       1.735   2.353   2.135  0.00  0.00    -0.230 NA
ATOM      3  C   UNL     1       0.462   2.576   2.171  0.00  0.00    +0.185 C 
ATOM      4  C   UNL     1      -0.402   2.341   0.963  0.00  0.00    +0.083 C 
ATOM      5  C   UNL     1      -1.642   2.658   1.347  0.00  0.00    +0.075 C 
ATOM      6  N   UNL     1      -1.590   3.074   2.631  0.00  0.00    -0.152 NA
ATOM      7  N   UNL     1      -0.393   3.046   3.112  0.00  0.00    -0.129 NA
ATOM      8  C   UNL     1      -2.883   2.566   0.496  0.00  0.00    +0.068 C 
ATOM      9  C   UNL     1       0.222   1.876  -0.293  0.00  0.00    +0.133 C 
ATOM     10  N   UNL     1      -0.440   1.353  -1.289  0.00  0.00    -0.285 NA
ATOM     11  N   UNL     1       1.613   2.066  -0.283  0.00  0.00    -0.253 N 
ATOM     12  H   UNL     1       0.037   0.997  -2.055  0.00  0.00    +0.188 HD
ENDROOT
BRANCH  11  13
ATOM     13  C   UNL     1       2.279   2.540  -1.420  0.00  0.00    +0.038 A 
ATOM     14  C   UNL     1       1.553   2.951  -2.530  0.00  0.00    +0.027 A 
ATOM     15  C   UNL     1       2.211   3.419  -3.650  0.00  0.00    +0.048 A 
ATOM     16  C   UNL     1       3.597   3.477  -3.667  0.00  0.00    +0.129 A 
ATOM     17  C   UNL     1       4.323   3.066  -2.559  0.00  0.00    +0.048 A 
ATOM     18  C   UNL     1       3.666   2.604  -1.436  0.00  0.00    +0.027 A 
BRANCH  16  19
ATOM     19  O   UNL     1       4.244   3.937  -4.771  0.00  0.00    -0.456 OA
BRANCH  19  20
ATOM     20  C   UNL     1       5.601   3.873  -4.788  0.00  0.00    +0.128 A 
ATOM     21  C   UNL     1       6.237   2.659  -5.005  0.00  0.00    +0.046 A 
ATOM     22  C   UNL     1       7.617   2.597  -5.021  0.00  0.00    +0.004 A 
ATOM     23  C   UNL     1       8.364   3.743  -4.822  0.00  0.00    +0.000 A 
ATOM     24  C   UNL     1       7.733   4.954  -4.606  0.00  0.00    +0.004 A 
ATOM     25  C   UNL     1       6.354   5.023  -4.594  0.00  0.00    +0.046 A 
ENDBRANCH  19  20
ENDBRANCH  16  19
ENDBRANCH  11  13
BRANCH   1  26
ATOM     26  S   UNL     1       2.401  -0.046   1.157  0.00  0.00    -0.102 S 
BRANCH  26  27
ATOM     27  C   UNL     1       3.697  -0.304   2.400  0.00  0.00    +0.135 C 
BRANCH  27  28
ATOM     28  C   UNL     1       5.032   0.093   1.824  0.00  0.00    +0.226 C 
ATOM     29  O   UNL     1       5.179   0.159   0.622  0.00  0.00    -0.275 OA
ATOM     30  N   UNL     1       6.062   0.375   2.646  0.00  0.00    -0.312 N 
ATOM     31  H   UNL     1       5.945   0.323   3.607  0.00  0.00    +0.149 HD
BRANCH  30  32
ATOM     32  C   UNL     1       7.360   0.762   2.087  0.00  0.00    +0.132 C 
BRANCH  32  33
ATOM     33  C   UNL     1       8.348   1.026   3.225  0.00  0.00    +0.178 C 
BRANCH  33  34
ATOM     34  O   UNL     1       8.590  -0.190   3.937  0.00  0.00    -0.381 OA
ATOM     35  C   UNL     1       9.504  -0.053   5.026  0.00  0.00    +0.194 C 
ENDBRANCH  33  34
ENDBRANCH  32  33
ENDBRANCH  30  32
ENDBRANCH  27  28
BRANCH  27  37
ATOM     36  C   UNL     1       2.426  -2.151   3.504  0.00  0.00    +0.005 C 
ATOM     37  C   UNL     1       3.733  -1.781   2.799  0.00  0.00    +0.020 C 
ENDBRANCH  27  37
ENDBRANCH  26  27
ENDBRANCH   1  26
TORSDOF 10
