REMARK  Name = ZINC37595800
REMARK  7 active torsions:
REMARK  status: ('A' for Active; 'I' for Inactive)
REMARK    1  A    between atoms: C_1  and  C_2
REMARK    2  A    between atoms: C_2  and  C_3
REMARK    3  A    between atoms: C_2  and  C_4
REMARK    4  A    between atoms: C_4  and  N_5
REMARK    5  A    between atoms: C_6  and  C_8
REMARK    6  A    between atoms: C_8  and  N_9
REMARK    7  A    between atoms: C_18  and  C_19
REMARK                            x       y       z     vdW  Elec       q    Type
REMARK                         _______ _______ _______ _____ _____    ______ ____
ROOT
ATOM      1  N   UNL     1       5.411  -0.166  -3.195  0.00  0.00    -0.321 N 
ATOM      2  C   UNL     1       6.242  -1.374  -3.093  0.00  0.00    +0.106 C 
ATOM      3  C   UNL     1       7.558  -1.101  -3.832  0.00  0.00    +0.024 C 
ATOM      4  C   UNL     1       7.254  -0.861  -5.310  0.00  0.00    +0.039 C 
ATOM      5  C   UNL     1       6.176   0.179  -5.465  0.00  0.00    -0.012 A 
ATOM      6  C   UNL     1       5.304   0.480  -4.432  0.00  0.00    +0.034 A 
ATOM      7  C   UNL     1       4.312   1.439  -4.611  0.00  0.00    +0.023 A 
ATOM      8  C   UNL     1       4.184   2.096  -5.820  0.00  0.00    +0.003 A 
ATOM      9  C   UNL     1       5.043   1.804  -6.859  0.00  0.00    +0.015 A 
ATOM     10  C   UNL     1       6.051   0.849  -6.687  0.00  0.00    +0.068 A 
ENDROOT
BRANCH  10  11
ATOM     11  C   UNL     1       6.971   0.536  -7.798  0.00  0.00    +0.387 C 
ATOM     12  O   UNL     1       6.931   1.192  -8.829  0.00  0.00    -0.241 OA
ATOM     13  O   UNL     1       7.773  -0.380  -7.687  0.00  0.00    -0.241 OA
ENDBRANCH  10  11
BRANCH   1  14
ATOM     14  C   UNL     1       4.701   0.350  -2.022  0.00  0.00    +0.200 C 
BRANCH  14  16
ATOM     15  N   UNL     1       2.498   0.046  -0.940  0.00  0.00    -0.314 N 
ATOM     16  C   UNL     1       3.334  -0.280  -1.944  0.00  0.00    +0.230 C 
ATOM     17  O   UNL     1       2.987  -1.081  -2.786  0.00  0.00    -0.274 OA
ATOM     18  H   UNL     1       2.775   0.687  -0.266  0.00  0.00    +0.149 HD
BRANCH  15  19
ATOM     19  C   UNL     1       1.169  -0.566  -0.864  0.00  0.00    +0.107 C 
BRANCH  19  21
ATOM     20  C   UNL     1       0.173   1.472   0.185  0.00  0.00    +0.009 C 
ATOM     21  C   UNL     1       0.428  -0.027   0.361  0.00  0.00    -0.000 C 
ATOM     22  C   UNL     1      -0.909  -0.757   0.510  0.00  0.00    +0.009 C 
ENDBRANCH  19  21
ENDBRANCH  15  19
ENDBRANCH  14  16
ENDBRANCH   1  14
TORSDOF 5
