REMARK  Name = ZINC33937196
REMARK  13 active torsions:
REMARK  status: ('A' for Active; 'I' for Inactive)
REMARK    1  A    between atoms: C_1  and  C_2
REMARK    2  A    between atoms: C_2  and  C_3
REMARK    3  A    between atoms: C_3  and  C_5
REMARK    4  A    between atoms: C_3  and  N_17
REMARK    5  A    between atoms: N_9  and  C_10
REMARK    6  A    between atoms: C_10  and  C_11
REMARK    7  A    between atoms: N_17  and  C_18
REMARK    8  A    between atoms: N_17  and  C_22
REMARK    9  A    between atoms: C_18  and  C_19
REMARK   10  A    between atoms: C_19  and  C_20
REMARK   11  A    between atoms: C_20  and  O_21
REMARK   12  A    between atoms: C_22  and  C_23
REMARK   13  A    between atoms: C_27  and  C_35
REMARK                            x       y       z     vdW  Elec       q    Type
REMARK                         _______ _______ _______ _____ _____    ______ ____
ROOT
ATOM      1  N   UNL     1      -1.977  -0.139  -1.076  0.00  0.00    +0.389 N 
ATOM      2  H   UNL     1      -1.710  -0.062  -2.046  0.00  0.00    -0.080 HD
ENDROOT
BRANCH   1   3
ATOM      3  C   UNL     1      -0.897  -0.788  -0.320  0.00  0.00    +0.003 C 
BRANCH   3   4
ATOM      4  C   UNL     1      -1.352  -1.035   1.095  0.00  0.00    +0.138 A 
ATOM      5  N   UNL     1      -2.525  -1.483   1.473  0.00  0.00    -0.115 NA
ATOM      6  N   UNL     1      -2.526  -1.559   2.759  0.00  0.00    -0.023 NA
ATOM      7  N   UNL     1      -1.385  -1.170   3.211  0.00  0.00    -0.044 NA
ATOM      8  N   UNL     1      -0.632  -0.844   2.216  0.00  0.00    -0.228 N 
BRANCH   8   9
ATOM      9  C   UNL     1       0.747  -0.355   2.291  0.00  0.00    +0.178 C 
BRANCH   9  10
ATOM     10  C   UNL     1       0.741   1.171   2.399  0.00  0.00    +0.140 C 
ATOM     11  C   UNL     1       2.186   1.703   2.571  0.00  0.00    +0.035 C 
ATOM     12  C   UNL     1       2.036   3.147   2.019  0.00  0.00    +0.031 C 
ATOM     13  C   UNL     1       0.990   2.963   0.900  0.00  0.00    +0.160 C 
ATOM     14  O   UNL     1       0.268   1.756   1.175  0.00  0.00    -0.375 OA
ENDBRANCH   9  10
ENDBRANCH   8   9
ENDBRANCH   3   4
BRANCH   3  16
ATOM     15  C   UNL     1      -0.020  -1.864  -2.398  0.00  0.00    +0.002 C 
ATOM     16  C   UNL     1      -0.541  -2.120  -0.982  0.00  0.00    -0.011 C 
ENDBRANCH   3  16
ENDBRANCH   1   3
BRANCH   1  17
ATOM     17  C   UNL     1      -3.201  -0.944  -0.968  0.00  0.00    -0.075 C 
BRANCH  17  18
ATOM     18  C   UNL     1      -4.083  -0.697  -2.194  0.00  0.00    +0.009 C 
BRANCH  18  19
ATOM     19  C   UNL     1      -5.397  -1.466  -2.041  0.00  0.00    +0.154 C 
BRANCH  19  20
ATOM     20  O   UNL     1      -6.221  -1.235  -3.185  0.00  0.00    -0.395 OA
ATOM     21  H   UNL     1      -7.072  -1.694  -3.156  0.00  0.00    +0.209 HD
ENDBRANCH  19  20
ENDBRANCH  18  19
ENDBRANCH  17  18
ENDBRANCH   1  17
BRANCH   1  22
ATOM     22  C   UNL     1      -2.223   1.201  -0.527  0.00  0.00    -0.037 C 
BRANCH  22  23
ATOM     23  C   UNL     1      -3.216   1.926  -1.397  0.00  0.00    +0.001 A 
ATOM     24  C   UNL     1      -4.493   2.091  -0.972  0.00  0.00    +0.017 A 
ATOM     25  C   UNL     1      -5.434   2.800  -1.841  0.00  0.00    -0.001 A 
ATOM     26  C   UNL     1      -6.764   3.002  -1.456  0.00  0.00    +0.013 A 
ATOM     27  C   UNL     1      -7.616   3.668  -2.290  0.00  0.00    -0.050 A 
ATOM     28  C   UNL     1      -7.175   4.147  -3.516  0.00  0.00    +0.005 A 
ATOM     29  C   UNL     1      -5.869   3.960  -3.916  0.00  0.00    +0.026 A 
ATOM     30  C   UNL     1      -4.983   3.285  -3.083  0.00  0.00    +0.049 A 
ATOM     31  N   UNL     1      -3.671   3.085  -3.457  0.00  0.00    -0.322 N 
ATOM     32  H   UNL     1      -3.362   3.420  -4.313  0.00  0.00    +0.169 HD
ATOM     33  C   UNL     1      -2.813   2.437  -2.650  0.00  0.00    +0.251 A 
ATOM     34  O   UNL     1      -1.659   2.282  -3.011  0.00  0.00    -0.268 OA
ATOM     35  C   UNL     1      -9.049   3.884  -1.875  0.00  0.00    +0.044 C 
ENDBRANCH  22  23
ENDBRANCH   1  22
TORSDOF 11
