REMARK  Name = ZINC09671477
REMARK  10 active torsions:
REMARK  status: ('A' for Active; 'I' for Inactive)
REMARK    1  A    between atoms: C_1  and  C_2
REMARK    2  A    between atoms: C_4  and  C_23
REMARK    3  A    between atoms: C_5  and  C_22
REMARK    4  A    between atoms: N_6  and  C_7
REMARK    5  A    between atoms: C_11  and  S_13
REMARK    6  A    between atoms: S_13  and  N_16
REMARK    7  A    between atoms: C_23  and  N_65
REMARK    8  A    between atoms: C_24  and  C_26
REMARK    9  A    between atoms: C_24  and  C_27
REMARK   10  A    between atoms: C_24  and  N_65
REMARK                            x       y       z     vdW  Elec       q    Type
REMARK                         _______ _______ _______ _____ _____    ______ ____
ROOT
ATOM      1  C   UNL     1      -0.947  -1.796  -2.300  0.00  0.00    +0.064 C 
ATOM      2  C   UNL     1      -1.654  -1.529  -0.996  0.00  0.00    +0.021 A 
ATOM      3  C   UNL     1      -2.842  -2.044  -0.621  0.00  0.00    +0.024 A 
ATOM      4  C   UNL     1      -3.136  -1.539   0.662  0.00  0.00    -0.043 A 
ATOM      5  C   UNL     1      -2.114  -0.738   1.025  0.00  0.00    +0.022 A 
ATOM      6  N   UNL     1      -1.202  -0.723   0.009  0.00  0.00    -0.317 N 
ATOM      7  C   UNL     1      -1.999   0.012   2.327  0.00  0.00    +0.064 C 
ENDROOT
BRANCH   6   8
ATOM      8  C   UNL     1       0.002  -0.004   0.002  0.00  0.00    +0.048 A 
ATOM      9  C   UNL     1      -0.017   1.384   0.010  0.00  0.00    +0.026 A 
ATOM     10  C   UNL     1       1.171   2.090   0.002  0.00  0.00    +0.004 A 
ATOM     11  C   UNL     1       2.377   1.415  -0.013  0.00  0.00    +0.028 A 
ATOM     12  C   UNL     1       2.399   0.032  -0.021  0.00  0.00    +0.107 A 
ATOM     13  C   UNL     1       1.215  -0.679  -0.013  0.00  0.00    +0.054 A 
BRANCH  12  14
ATOM     14  S   UNL     1       3.939  -0.824  -0.041  0.00  0.00    +0.061 S 
ATOM     15  O   UNL     1       4.905   0.065   0.506  0.00  0.00    -0.153 OA
ATOM     16  O   UNL     1       3.695  -2.113   0.505  0.00  0.00    -0.153 OA
BRANCH  14  17
ATOM     17  N   UNL     1       4.352  -1.052  -1.628  0.00  0.00    -0.172 NA
ATOM     18  C   UNL     1       3.933  -2.263  -2.353  0.00  0.00    +0.137 C 
ATOM     19  C   UNL     1       3.277  -1.828  -3.673  0.00  0.00    +0.177 C 
ATOM     20  O   UNL     1       4.162  -0.946  -4.368  0.00  0.00    -0.377 OA
ATOM     21  C   UNL     1       4.442   0.271  -3.672  0.00  0.00    +0.177 C 
ATOM     22  C   UNL     1       5.154  -0.054  -2.354  0.00  0.00    +0.137 C 
ENDBRANCH  14  17
ENDBRANCH  12  14
ENDBRANCH   6   8
BRANCH   4  23
ATOM     23  C   UNL     1      -4.365  -1.844   1.480  0.00  0.00    -0.044 C 
BRANCH  23  24
ATOM     24  N   UNL     1      -5.320  -0.727   1.351  0.00  0.00    +0.388 N 
ATOM     25  H   UNL     1      -5.577  -0.614   0.363  0.00  0.00    -0.084 HD
ATOM     26  H   UNL     1      -4.880   0.136   1.690  0.00  0.00    -0.084 HD
BRANCH  24  27
ATOM     27  C   UNL     1      -6.535  -0.998   2.143  0.00  0.00    -0.007 C 
ATOM     28  C   UNL     1      -7.506  -1.842   1.315  0.00  0.00    -0.006 C 
BRANCH  27  29
ATOM     29  C   UNL     1      -7.190   0.309   2.507  0.00  0.00    +0.092 A 
ATOM     30  C   UNL     1      -7.751   0.582   3.692  0.00  0.00    +0.051 A 
ATOM     31  C   UNL     1      -8.257   1.956   3.599  0.00  0.00    +0.020 A 
ATOM     32  C   UNL     1      -8.928   2.810   4.474  0.00  0.00    +0.011 A 
ATOM     33  C   UNL     1      -9.266   4.070   4.065  0.00  0.00    +0.001 A 
ATOM     34  C   UNL     1      -8.948   4.503   2.786  0.00  0.00    +0.004 A 
ATOM     35  C   UNL     1      -8.285   3.673   1.907  0.00  0.00    +0.047 A 
ATOM     36  C   UNL     1      -7.931   2.389   2.303  0.00  0.00    +0.135 A 
ATOM     37  O   UNL     1      -7.291   1.373   1.691  0.00  0.00    -0.461 OA
ENDBRANCH  27  29
ENDBRANCH  24  27
ENDBRANCH  23  24
ENDBRANCH   4  23
TORSDOF 7
