REMARK  Name = ZINC39696050
REMARK  13 active torsions:
REMARK  status: ('A' for Active; 'I' for Inactive)
REMARK    1  A    between atoms: C_1  and  C_2
REMARK    2  A    between atoms: C_2  and  C_3
REMARK    3  A    between atoms: C_6  and  C_9
REMARK    4  A    between atoms: C_9  and  C_11
REMARK    5  A    between atoms: C_9  and  N_12
REMARK    6  A    between atoms: C_13  and  C_15
REMARK    7  A    between atoms: C_26  and  C_28
REMARK    8  A    between atoms: C_30  and  O_38
REMARK    9  A    between atoms: C_31  and  O_36
REMARK   10  A    between atoms: C_32  and  O_34
REMARK   11  A    between atoms: O_34  and  C_35
REMARK   12  A    between atoms: O_36  and  C_37
REMARK   13  A    between atoms: O_38  and  C_39
REMARK                            x       y       z     vdW  Elec       q    Type
REMARK                         _______ _______ _______ _____ _____    ______ ____
ROOT
ATOM      1  C   UNL     1       1.988  -4.387   7.176  0.00  0.00    +0.100 C 
ATOM      2  C   UNL     1       0.870  -3.978   8.161  0.00  0.00    +0.121 C 
ATOM      3  N   UNL     1       0.879  -5.037   9.198  0.00  0.00    -0.296 N 
ATOM      4  C   UNL     1       2.317  -5.331   9.411  0.00  0.00    +0.115 C 
ATOM      5  C   UNL     1       2.936  -5.274   8.000  0.00  0.00    -0.004 C 
ATOM      6  C   UNL     1       4.326  -4.648   8.060  0.00  0.00    -0.010 C 
ATOM      7  C   UNL     1       5.266  -5.577   8.835  0.00  0.00    -0.082 C 
ATOM      8  N   UNL     1       5.323  -6.884   8.170  0.00  0.00    +0.379 N 
ATOM      9  C   UNL     1       4.000  -7.519   8.199  0.00  0.00    -0.082 C 
ATOM     10  C   UNL     1       3.007  -6.673   7.397  0.00  0.00    -0.010 C 
ATOM     11  C   UNL     1      -0.180  -5.604   9.809  0.00  0.00    +0.247 C 
ATOM     12  O   UNL     1      -1.307  -5.347   9.434  0.00  0.00    -0.270 OA
ATOM     13  H   UNL     1       5.614  -6.760   7.212  0.00  0.00    -0.086 HD
ATOM     14  H   UNL     1       5.989  -7.474   8.647  0.00  0.00    -0.086 HD
ENDROOT
BRANCH  11  15
ATOM     15  C   UNL     1       0.030  -6.537  10.934  0.00  0.00    +0.044 A 
ATOM     16  C   UNL     1       1.229  -6.510  11.650  0.00  0.00    +0.062 A 
ATOM     17  C   UNL     1       1.422  -7.385  12.704  0.00  0.00    +0.166 A 
ATOM     18  C   UNL     1       0.424  -8.291  13.049  0.00  0.00    +0.204 A 
ATOM     19  C   UNL     1      -0.771  -8.320  12.336  0.00  0.00    +0.166 A 
ATOM     20  C   UNL     1      -0.972  -7.444  11.286  0.00  0.00    +0.062 A 
BRANCH  19  21
ATOM     21  O   UNL     1      -1.744  -9.207  12.676  0.00  0.00    -0.491 OA
ATOM     22  C   UNL     1      -2.945  -9.182  11.902  0.00  0.00    +0.277 C 
ENDBRANCH  19  21
BRANCH  18  23
ATOM     23  O   UNL     1       0.617  -9.150  14.085  0.00  0.00    -0.488 OA
ATOM     24  C   UNL     1       0.210  -8.706  15.381  0.00  0.00    +0.277 C 
ENDBRANCH  18  23
BRANCH  17  25
ATOM     25  O   UNL     1       2.589  -7.359  13.402  0.00  0.00    -0.491 OA
ATOM     26  C   UNL     1       3.570  -6.404  12.992  0.00  0.00    +0.277 C 
ENDBRANCH  17  25
ENDBRANCH  11  15
BRANCH   1  28
ATOM     27  N   UNL     1       3.264  -3.169   5.441  0.00  0.00    -0.308 N 
ATOM     28  C   UNL     1       2.716  -3.167   6.673  0.00  0.00    +0.219 C 
ATOM     29  O   UNL     1       2.808  -2.183   7.376  0.00  0.00    -0.275 OA
ATOM     30  H   UNL     1       3.191  -3.956   4.879  0.00  0.00    +0.149 HD
BRANCH  27  31
ATOM     31  C   UNL     1       3.972  -1.983   4.953  0.00  0.00    +0.100 C 
ATOM     32  C   UNL     1       2.966  -1.004   4.343  0.00  0.00    +0.033 C 
BRANCH  31  36
ATOM     33  C   UNL     1       6.812  -3.145   1.981  0.00  0.00    -0.048 A 
ATOM     34  C   UNL     1       7.140  -2.174   2.909  0.00  0.00    +0.004 A 
ATOM     35  C   UNL     1       6.221  -1.798   3.870  0.00  0.00    +0.006 A 
ATOM     36  C   UNL     1       4.973  -2.392   3.904  0.00  0.00    -0.027 A 
ATOM     37  C   UNL     1       4.645  -3.363   2.976  0.00  0.00    +0.006 A 
ATOM     38  C   UNL     1       5.563  -3.736   2.012  0.00  0.00    +0.004 A 
BRANCH  33  40
ATOM     39  C   UNL     1       7.649  -2.671  -0.304  0.00  0.00    +0.009 C 
ATOM     40  C   UNL     1       7.814  -3.555   0.933  0.00  0.00    +0.032 C 
ENDBRANCH  33  40
ENDBRANCH  31  36
ENDBRANCH  27  31
ENDBRANCH   1  28
TORSDOF 8
