REMARK  Name = ZINC41514922
REMARK  7 active torsions:
REMARK  status: ('A' for Active; 'I' for Inactive)
REMARK    1  A    between atoms: C_6  and  C_7
REMARK    2  A    between atoms: C_10  and  C_12
REMARK    3  A    between atoms: C_12  and  C_14
REMARK    4  A    between atoms: C_12  and  C_16
REMARK    5  A    between atoms: C_16  and  C_18
REMARK    6  A    between atoms: C_21  and  N_27
REMARK    7  A    between atoms: C_22  and  N_24
REMARK                            x       y       z     vdW  Elec       q    Type
REMARK                         _______ _______ _______ _____ _____    ______ ____
ROOT
ATOM      1  C   UNL     1      -4.876  -0.176   0.121  0.00  0.00    +0.217 C 
ENDROOT
BRANCH   1   5
ATOM      2  C   UNL     1      -1.250  -1.054   0.283  0.00  0.00    +0.078 A 
ATOM      3  C   UNL     1      -1.408  -2.384  -0.004  0.00  0.00    +0.075 A 
ATOM      4  S   UNL     1      -3.181  -2.473  -0.189  0.00  0.00    -0.078 S 
ATOM      5  C   UNL     1      -3.530  -0.854   0.109  0.00  0.00    +0.103 A 
ATOM      6  N   UNL     1      -2.355  -0.325   0.333  0.00  0.00    -0.242 NA
BRANCH   2  12
ATOM      7  C   UNL     1       0.209   0.894   0.825  0.00  0.00    +0.011 A 
ATOM      8  C   UNL     1       1.455   1.440   1.054  0.00  0.00    +0.020 A 
ATOM      9  C   UNL     1       2.585   0.642   0.993  0.00  0.00    +0.041 A 
ATOM     10  C   UNL     1       2.470  -0.707   0.701  0.00  0.00    +0.020 A 
ATOM     11  C   UNL     1       1.228  -1.262   0.470  0.00  0.00    +0.011 A 
ATOM     12  C   UNL     1       0.088  -0.463   0.530  0.00  0.00    +0.001 A 
ATOM     13 CL   UNL     1       4.150   1.335   1.282  0.00  0.00    -0.084 Cl
ENDBRANCH   2  12
ENDBRANCH   1   5
BRANCH   1  14
ATOM     14  C   UNL     1      -5.509  -0.320  -1.200  0.00  0.00    +0.081 C 
ATOM     15  N   UNL     1      -5.998  -0.432  -2.220  0.00  0.00    -0.195 NA
ENDBRANCH   1  14
BRANCH   1  16
ATOM     16  C   UNL     1      -5.750  -0.813   1.169  0.00  0.00    +0.186 C 
ATOM     17  O   UNL     1      -5.545  -1.957   1.517  0.00  0.00    -0.290 OA
BRANCH  16  18
ATOM     18  C   UNL     1      -6.851  -0.050   1.770  0.00  0.00    +0.021 A 
ATOM     19  C   UNL     1      -7.094   1.269   1.366  0.00  0.00    +0.013 A 
ATOM     20  C   UNL     1      -8.118   1.975   1.927  0.00  0.00    +0.026 A 
ATOM     21  C   UNL     1      -8.922   1.386   2.901  0.00  0.00    +0.055 A 
ATOM     22  C   UNL     1      -8.683   0.075   3.306  0.00  0.00    +0.147 A 
ATOM     23  C   UNL     1      -7.665  -0.641   2.745  0.00  0.00    +0.046 A 
BRANCH  22  24
ATOM     24  N   UNL     1      -9.540  -0.546   4.342  0.00  0.00    +0.058 N 
ATOM     25  O   UNL     1      -9.055  -1.294   5.158  0.00  0.00    -0.126 OA
ATOM     26  O   UNL     1     -10.724  -0.304   4.371  0.00  0.00    -0.126 OA
ENDBRANCH  22  24
BRANCH  21  27
ATOM     27  N   UNL     1      -9.963   2.108   3.470  0.00  0.00    -0.356 N 
ATOM     28  H   UNL     1     -10.203   2.977   3.112  0.00  0.00    +0.142 HD
ATOM     29  H   UNL     1     -10.450   1.744   4.225  0.00  0.00    +0.142 HD
ENDBRANCH  21  27
ENDBRANCH  16  18
ENDBRANCH   1  16
TORSDOF 7
