REMARK  Name = ZINC19314688
REMARK  9 active torsions:
REMARK  status: ('A' for Active; 'I' for Inactive)
REMARK    1  A    between atoms: C_1  and  C_2
REMARK    2  A    between atoms: C_2  and  O_3
REMARK    3  A    between atoms: O_3  and  C_4
REMARK    4  A    between atoms: C_4  and  C_6
REMARK    5  A    between atoms: C_7  and  C_29
REMARK    6  A    between atoms: C_11  and  C_13
REMARK    7  A    between atoms: C_18  and  N_19
REMARK    8  A    between atoms: C_25  and  C_27
REMARK    9  A    between atoms: C_25  and  C_28
REMARK                            x       y       z     vdW  Elec       q    Type
REMARK                         _______ _______ _______ _____ _____    ______ ____
ROOT
ATOM      1  C   UNL     1      -1.932   1.867  -1.534  0.00  0.00    +0.065 C 
ATOM      2  C   UNL     1      -2.938   0.993  -1.710  0.00  0.00    +0.016 C 
ATOM      3  N   UNL     1      -3.449   0.301  -0.647  0.00  0.00    -0.321 N 
ATOM      4  C   UNL     1      -3.250   0.744   0.633  0.00  0.00    +0.016 C 
ATOM      5  C   UNL     1      -2.251   1.607   0.912  0.00  0.00    +0.024 C 
ATOM      6  C   UNL     1      -1.333   2.101  -0.178  0.00  0.00    +0.094 C 
ATOM      7  C   UNL     1      -2.035   2.069   2.223  0.00  0.00    +0.162 C 
ATOM      8  O   UNL     1      -1.137   2.858   2.437  0.00  0.00    -0.292 OA
ATOM      9  C   UNL     1      -2.898   1.603   3.364  0.00  0.00    +0.086 C 
ATOM     10  C   UNL     1      -3.424   0.199   3.050  0.00  0.00    -0.023 C 
ATOM     11  C   UNL     1      -4.174   0.247   1.718  0.00  0.00    +0.058 C 
ATOM     12  C   UNL     1      -2.250  -0.777   2.944  0.00  0.00    +0.011 C 
ATOM     13  C   UNL     1      -4.371  -0.256   4.162  0.00  0.00    +0.011 C 
ATOM     14  C   UNL     1      -3.509   0.777  -3.088  0.00  0.00    +0.061 C 
ATOM     15  H   UNL     1      -4.025  -0.621  -0.817  0.00  0.00    +0.152 HD
ENDROOT
BRANCH   6  16
ATOM     16  C   UNL     1      -0.018   1.372  -0.085  0.00  0.00    -0.005 A 
ATOM     17  C   UNL     1       0.014  -0.008  -0.154  0.00  0.00    +0.007 A 
ATOM     18  C   UNL     1       1.221  -0.677  -0.074  0.00  0.00    +0.000 A 
ATOM     19  C   UNL     1       2.397   0.035   0.073  0.00  0.00    +0.002 A 
ATOM     20  C   UNL     1       2.366   1.415   0.141  0.00  0.00    +0.033 A 
ATOM     21  C   UNL     1       1.158   2.084   0.063  0.00  0.00    +0.130 A 
BRANCH  21  22
ATOM     22  N   UNL     1       1.124   3.562   0.136  0.00  0.00    +0.057 N 
ATOM     23  O   UNL     1       1.976   4.220  -0.434  0.00  0.00    -0.126 OA
ATOM     24  O   UNL     1       0.244   4.120   0.767  0.00  0.00    -0.126 OA
ENDBRANCH  21  22
ENDBRANCH   6  16
BRANCH   1  25
ATOM     25  C   UNL     1      -1.427   2.578  -2.647  0.00  0.00    +0.338 C 
ATOM     26  O   UNL     1      -1.904   2.396  -3.752  0.00  0.00    -0.245 OA
BRANCH  25  27
ATOM     27  O   UNL     1      -0.417   3.457  -2.485  0.00  0.00    -0.462 OA
BRANCH  27  29
ATOM     28  C   UNL     1       1.183   5.088  -3.274  0.00  0.00    +0.048 C 
ATOM     29  C   UNL     1       0.043   4.140  -3.653  0.00  0.00    +0.229 C 
ENDBRANCH  27  29
ENDBRANCH  25  27
ENDBRANCH   1  25
TORSDOF 5
