REMARK  Name = ZINC00937277
REMARK  8 active torsions:
REMARK  status: ('A' for Active; 'I' for Inactive)
REMARK    1  A    between atoms: C_1  and  C_2
REMARK    2  A    between atoms: C_5  and  C_8
REMARK    3  A    between atoms: C_8  and  S_9
REMARK    4  A    between atoms: S_9  and  C_10
REMARK    5  A    between atoms: C_21  and  C_23
REMARK    6  A    between atoms: C_26  and  C_29
REMARK    7  A    between atoms: C_34  and  C_36
REMARK    8  A    between atoms: C_34  and  C_37
REMARK                            x       y       z     vdW  Elec       q    Type
REMARK                         _______ _______ _______ _____ _____    ______ ____
ROOT
ATOM      1  C   UNL     1       0.002  -0.004   0.002  0.00  0.00    +0.171 A 
ATOM      2  N   UNL     1      -0.016   1.358   0.009  0.00  0.00    -0.302 N 
ATOM      3  H   UNL     1      -0.863   1.831   0.016  0.00  0.00    +0.171 HD
ATOM      4  C   UNL     1       1.142   2.051   0.002  0.00  0.00    +0.258 A 
ATOM      5  O   UNL     1       1.136   3.272   0.008  0.00  0.00    -0.267 OA
ATOM      6  C   UNL     1       2.350   1.344  -0.013  0.00  0.00    +0.069 A 
ATOM      7  C   UNL     1       2.313  -0.039  -0.017  0.00  0.00    +0.135 A 
ATOM      8  N   UNL     1       1.136  -0.674  -0.010  0.00  0.00    -0.208 NA
ATOM      9  N   UNL     1       3.495  -0.754  -0.023  0.00  0.00    -0.302 N 
ATOM     10  C   UNL     1       4.667  -0.165   0.364  0.00  0.00    +0.017 C 
ATOM     11  C   UNL     1       4.796   1.178   0.383  0.00  0.00    +0.024 C 
ATOM     12  C   UNL     1       3.657   2.078  -0.026  0.00  0.00    +0.092 C 
ATOM     13  C   UNL     1       6.000   1.784   0.781  0.00  0.00    +0.162 C 
ATOM     14  O   UNL     1       6.076   2.997   0.809  0.00  0.00    -0.292 OA
ATOM     15  C   UNL     1       7.197   0.962   1.174  0.00  0.00    +0.086 C 
ATOM     16  C   UNL     1       7.141  -0.381   0.439  0.00  0.00    -0.023 C 
ATOM     17  C   UNL     1       5.812  -1.061   0.774  0.00  0.00    +0.058 C 
ATOM     18  C   UNL     1       7.233  -0.146  -1.070  0.00  0.00    +0.011 C 
ATOM     19  C   UNL     1       8.303  -1.266   0.894  0.00  0.00    +0.011 C 
ATOM     20  H   UNL     1       3.493  -1.682  -0.306  0.00  0.00    +0.153 HD
ENDROOT
BRANCH  12  21
ATOM     21  C   UNL     1       3.915   2.598  -1.417  0.00  0.00    -0.035 A 
ATOM     22  C   UNL     1       4.051   1.710  -2.470  0.00  0.00    +0.006 A 
ATOM     23  C   UNL     1       4.282   2.179  -3.746  0.00  0.00    +0.019 A 
ATOM     24  C   UNL     1       4.390   3.553  -3.973  0.00  0.00    +0.052 A 
ATOM     25  C   UNL     1       4.257   4.442  -2.905  0.00  0.00    +0.019 A 
ATOM     26  C   UNL     1       4.020   3.960  -1.635  0.00  0.00    +0.006 A 
BRANCH  24  27
ATOM     27  C   UNL     1       4.636   4.046  -5.294  0.00  0.00    +0.099 C 
ATOM     28  N   UNL     1       4.832   4.438  -6.343  0.00  0.00    -0.191 NA
ENDBRANCH  24  27
ENDBRANCH  12  21
BRANCH   1  29
ATOM     29  S   UNL     1      -1.522  -0.888   0.009  0.00  0.00    -0.083 S 
BRANCH  29  30
ATOM     30  C   UNL     1      -0.900  -2.587  -0.005  0.00  0.00    +0.112 C 
BRANCH  30  35
ATOM     31  C   UNL     1      -5.355  -6.269   0.011  0.00  0.00    +0.044 C 
ATOM     32  C   UNL     1      -4.193  -5.309   0.007  0.00  0.00    -0.050 A 
ATOM     33  C   UNL     1      -3.670  -4.862  -1.192  0.00  0.00    +0.003 A 
ATOM     34  C   UNL     1      -2.604  -3.981  -1.196  0.00  0.00    +0.005 A 
ATOM     35  C   UNL     1      -2.062  -3.547  -0.001  0.00  0.00    -0.037 A 
ATOM     36  C   UNL     1      -2.582  -3.998   1.198  0.00  0.00    +0.005 A 
ATOM     37  C   UNL     1      -3.650  -4.876   1.202  0.00  0.00    +0.003 A 
ENDBRANCH  30  35
ENDBRANCH  29  30
ENDBRANCH   1  29
TORSDOF 5
