REMARK  Name = ZINC48374246
REMARK  6 active torsions:
REMARK  status: ('A' for Active; 'I' for Inactive)
REMARK    1  A    between atoms: C_1  and  C_2
REMARK    2  A    between atoms: C_5  and  N_9
REMARK    3  A    between atoms: C_6  and  C_8
REMARK    4  A    between atoms: C_10  and  C_24
REMARK    5  A    between atoms: C_13  and  S_14
REMARK    6  A    between atoms: S_14  and  C_15
REMARK                            x       y       z     vdW  Elec       q    Type
REMARK                         _______ _______ _______ _____ _____    ______ ____
ROOT
ATOM      1  N   UNL     1       0.059  -4.172  -0.021  0.00  0.00    -0.269 N 
ATOM      2  C   UNL     1      -1.028  -5.020  -0.025  0.00  0.00    +0.188 A 
ATOM      3  N   UNL     1      -0.560  -6.247  -0.033  0.00  0.00    -0.126 NA
ATOM      4  N   UNL     1       0.725  -6.226  -0.034  0.00  0.00    -0.122 NA
ATOM      5  C   UNL     1       1.158  -4.984  -0.032  0.00  0.00    +0.197 A 
ENDROOT
BRANCH   1  10
ATOM      6  C   UNL     1      -0.018   1.503   0.010  0.00  0.00    +0.044 C 
ATOM      7  C   UNL     1       0.002  -0.004   0.002  0.00  0.00    -0.050 A 
ATOM      8  C   UNL     1       0.006  -0.688  -1.200  0.00  0.00    +0.005 A 
ATOM      9  C   UNL     1       0.025  -2.068  -1.211  0.00  0.00    +0.027 A 
ATOM     10  C   UNL     1       0.040  -2.771  -0.013  0.00  0.00    +0.053 A 
ATOM     11  C   UNL     1       0.037  -2.082   1.192  0.00  0.00    -0.026 A 
ATOM     12  C   UNL     1       0.023  -0.700   1.196  0.00  0.00    +0.008 A 
ATOM     13  C   UNL     1       0.054  -2.840   2.494  0.00  0.00    +0.046 C 
ENDBRANCH   1  10
BRANCH   2  14
ATOM     14  C   UNL     1      -2.451  -4.623  -0.022  0.00  0.00    +0.108 A 
ATOM     15  C   UNL     1      -3.444  -5.605  -0.022  0.00  0.00    +0.031 A 
ATOM     16  C   UNL     1      -4.772  -5.218  -0.018  0.00  0.00    +0.004 A 
ATOM     17  C   UNL     1      -5.067  -3.861  -0.015  0.00  0.00    +0.020 A 
ATOM     18  C   UNL     1      -4.034  -2.941  -0.016  0.00  0.00    +0.111 A 
ATOM     19  N   UNL     1      -2.777  -3.335  -0.014  0.00  0.00    -0.252 NA
ENDBRANCH   2  14
BRANCH   5  20
ATOM     20  S   UNL     1       2.842  -4.464  -0.038  0.00  0.00    -0.073 S 
BRANCH  20  21
ATOM     21  C   UNL     1       3.781  -6.016  -0.052  0.00  0.00    +0.140 C 
ATOM     22  C   UNL     1       5.276  -5.711  -0.174  0.00  0.00    +0.024 C 
ATOM     23  C   UNL     1       6.016  -6.890  -0.780  0.00  0.00    +0.003 C 
ATOM     24  C   UNL     1       6.038  -8.121   0.106  0.00  0.00    +0.019 C 
ATOM     25  C   UNL     1       4.634  -8.708   0.259  0.00  0.00    +0.104 C 
ATOM     26  N   UNL     1       3.957  -8.026   1.374  0.00  0.00    -0.314 N 
ATOM     27  C   UNL     1       3.543  -6.766   1.242  0.00  0.00    +0.226 C 
ATOM     28  O   UNL     1       2.979  -6.216   2.164  0.00  0.00    -0.275 OA
ATOM     29  H   UNL     1       3.808  -8.498   2.208  0.00  0.00    +0.149 HD
ENDBRANCH  20  21
ENDBRANCH   5  20
TORSDOF 4
