REMARK  Name = ZINC65526851
REMARK  4 active torsions:
REMARK  status: ('A' for Active; 'I' for Inactive)
REMARK    1  A    between atoms: C_4  and  C_7
REMARK    2  A    between atoms: C_12  and  C_20
REMARK    3  A    between atoms: C_20  and  C_21
REMARK    4  A    between atoms: C_23  and  C_26
REMARK                            x       y       z     vdW  Elec       q    Type
REMARK                         _______ _______ _______ _____ _____    ______ ____
ROOT
ATOM      1  C   UNL     1       3.711  -0.707  -0.038  0.00  0.00    +0.042 C 
ATOM      2  C   UNL     1       3.817  -1.533   1.217  0.00  0.00    +0.065 C 
ATOM      3  C   UNL     1       5.205  -2.027   1.478  0.00  0.00    +0.049 A 
ATOM      4  N   UNL     1       5.740  -2.217   2.712  0.00  0.00    -0.345 N 
ATOM      5  C   UNL     1       7.000  -2.691   2.548  0.00  0.00    +0.117 A 
ATOM      6  N   UNL     1       7.252  -2.785   1.278  0.00  0.00    -0.227 NA
ATOM      7  C   UNL     1       6.158  -2.370   0.571  0.00  0.00    +0.146 A 
ATOM      8  H   UNL     1       5.300  -2.045   3.559  0.00  0.00    +0.167 HD
ATOM      9  C   UNL     1       6.107  -2.318  -0.888  0.00  0.00    +0.264 C 
ATOM     10  O   UNL     1       7.113  -2.688  -1.462  0.00  0.00    -0.268 OA
ATOM     11  N   UNL     1       5.123  -1.927  -1.664  0.00  0.00    -0.309 N 
ATOM     12  C   UNL     1       3.791  -1.519  -1.302  0.00  0.00    +0.113 C 
ATOM     13  H   UNL     1       5.321  -1.913  -2.614  0.00  0.00    +0.149 HD
ENDROOT
BRANCH   1  17
ATOM     14  C   UNL     1      -0.017   1.378   0.010  0.00  0.00    +0.000 A 
ATOM     15  C   UNL     1       1.171   2.086   0.002  0.00  0.00    +0.000 A 
ATOM     16  C   UNL     1       2.377   1.411  -0.013  0.00  0.00    +0.004 A 
ATOM     17  C   UNL     1       2.396   0.029  -0.020  0.00  0.00    -0.042 A 
ATOM     18  C   UNL     1       1.208  -0.679  -0.012  0.00  0.00    +0.004 A 
ATOM     19  C   UNL     1       0.002  -0.004   0.002  0.00  0.00    +0.000 A 
ENDBRANCH   1  17
BRANCH   5  20
ATOM     20  C   UNL     1       7.954  -3.048   3.659  0.00  0.00    +0.172 C 
BRANCH  20  21
ATOM     21  C   UNL     1       8.425  -4.468   3.479  0.00  0.00    +0.235 A 
ATOM     22  N   UNL     1       9.476  -4.842   2.808  0.00  0.00    -0.191 NA
ATOM     23  C   UNL     1       9.600  -6.181   2.854  0.00  0.00    +0.204 A 
ATOM     24  N   UNL     1       8.614  -6.668   3.565  0.00  0.00    -0.056 NA
ATOM     25  O   UNL     1       7.836  -5.559   3.988  0.00  0.00    -0.337 OA
BRANCH  23  26
ATOM     26  C   UNL     1      10.675  -6.974   2.206  0.00  0.00    +0.041 A 
ATOM     27  C   UNL     1      10.696  -8.366   2.320  0.00  0.00    +0.014 A 
ATOM     28  C   UNL     1      11.720  -9.060   1.697  0.00  0.00    +0.020 A 
ATOM     29  C   UNL     1      12.680  -8.359   0.990  0.00  0.00    +0.111 A 
ATOM     30  N   UNL     1      12.633  -7.044   0.901  0.00  0.00    -0.263 NA
ATOM     31  C   UNL     1      11.675  -6.342   1.471  0.00  0.00    +0.122 A 
ENDBRANCH  23  26
ENDBRANCH  20  21
ENDBRANCH   5  20
TORSDOF 4
