REMARK  Name = ZINC35310534
REMARK  7 active torsions:
REMARK  status: ('A' for Active; 'I' for Inactive)
REMARK    1  A    between atoms: C_1  and  C_2
REMARK    2  A    between atoms: C_7  and  C_8
REMARK    3  A    between atoms: C_8  and  N_9
REMARK    4  A    between atoms: C_21  and  C_24
REMARK    5  A    between atoms: N_26  and  C_27
REMARK    6  A    between atoms: C_32  and  C_37
REMARK    7  A    between atoms: C_34  and  C_36
REMARK                            x       y       z     vdW  Elec       q    Type
REMARK                         _______ _______ _______ _____ _____    ______ ____
ROOT
ATOM      1  N   UNL     1      -2.184   0.675   4.603  0.00  0.00    -0.309 N 
ATOM      2  C   UNL     1      -2.545   1.532   3.575  0.00  0.00    +0.068 A 
ATOM      3  C   UNL     1      -2.569   2.912   3.437  0.00  0.00    +0.028 A 
ATOM      4  C   UNL     1      -2.995   3.476   2.252  0.00  0.00    +0.002 A 
ATOM      5  C   UNL     1      -3.399   2.672   1.197  0.00  0.00    +0.002 A 
ATOM      6  C   UNL     1      -3.382   1.300   1.317  0.00  0.00    +0.028 A 
ATOM      7  C   UNL     1      -2.954   0.713   2.510  0.00  0.00    +0.065 A 
ATOM      8  N   UNL     1      -2.827  -0.575   2.924  0.00  0.00    -0.327 N 
ATOM      9  C   UNL     1      -2.369  -0.600   4.151  0.00  0.00    +0.177 A 
ATOM     10  N   UNL     1      -2.116  -1.743   4.879  0.00  0.00    -0.302 N 
ATOM     11  C   UNL     1      -0.893  -2.524   4.645  0.00  0.00    +0.108 C 
ATOM     12  C   UNL     1      -1.283  -3.980   4.373  0.00  0.00    +0.032 C 
ATOM     13  C   UNL     1      -2.148  -4.496   5.526  0.00  0.00    +0.078 C 
ATOM     14  C   UNL     1      -3.428  -3.663   5.618  0.00  0.00    +0.032 C 
ATOM     15  C   UNL     1      -3.060  -2.200   5.908  0.00  0.00    +0.108 C 
ATOM     16  H   UNL     1      -3.039  -1.357   2.390  0.00  0.00    +0.169 HD
ENDROOT
BRANCH  13  17
ATOM     17  C   UNL     1      -2.505  -5.939   5.278  0.00  0.00    +0.216 C 
ATOM     18  O   UNL     1      -2.107  -6.500   4.279  0.00  0.00    -0.276 OA
ATOM     19  N   UNL     1      -3.267  -6.607   6.167  0.00  0.00    -0.312 N 
ATOM     20  H   UNL     1      -3.585  -6.159   6.966  0.00  0.00    +0.149 HD
BRANCH  19  21
ATOM     21  C   UNL     1      -3.614  -8.010   5.926  0.00  0.00    +0.076 C 
ATOM     22  C   UNL     1      -4.853  -8.082   5.032  0.00  0.00    +0.022 C 
ATOM     23  C   UNL     1      -6.023  -7.379   5.723  0.00  0.00    +0.002 C 
ATOM     24  C   UNL     1      -6.316  -8.068   7.057  0.00  0.00    +0.003 C 
ATOM     25  C   UNL     1      -5.076  -7.996   7.952  0.00  0.00    -0.009 C 
ATOM     26  C   UNL     1      -3.907  -8.699   7.260  0.00  0.00    +0.009 C 
ATOM     27  C   UNL     1      -2.667  -8.627   8.155  0.00  0.00    +0.009 C 
ATOM     28  C   UNL     1      -5.369  -8.685   9.286  0.00  0.00    +0.008 C 
ENDBRANCH  19  21
ENDBRANCH  13  17
BRANCH   1  29
ATOM     29  C   UNL     1      -1.690   1.065   5.926  0.00  0.00    +0.160 C 
BRANCH  29  36
ATOM     30  C   UNL     1      -0.520   3.700   6.123  0.00  0.00    +0.044 C 
ATOM     31  C   UNL     1       0.367   2.491   5.968  0.00  0.00    -0.046 A 
ATOM     32  C   UNL     1       1.741   2.642   5.926  0.00  0.00    +0.004 A 
ATOM     33  C   UNL     1       2.554   1.534   5.784  0.00  0.00    +0.000 A 
ATOM     34  C   UNL     1       1.994   0.274   5.685  0.00  0.00    +0.000 A 
ATOM     35  C   UNL     1       0.621   0.122   5.727  0.00  0.00    +0.005 A 
ATOM     36  C   UNL     1      -0.193   1.231   5.874  0.00  0.00    -0.025 A 
ENDBRANCH  29  36
ENDBRANCH   1  29
TORSDOF 4
