REMARK  Name = ZINC65650254
REMARK  5 active torsions:
REMARK  status: ('A' for Active; 'I' for Inactive)
REMARK    1  A    between atoms: C_1  and  C_2
REMARK    2  A    between atoms: C_5  and  C_19
REMARK    3  A    between atoms: C_6  and  O_8
REMARK    4  A    between atoms: O_8  and  C_9
REMARK    5  A    between atoms: C_9  and  C_11
REMARK                            x       y       z     vdW  Elec       q    Type
REMARK                         _______ _______ _______ _____ _____    ______ ____
ROOT
ATOM      1  C   UNL     1       0.282   1.486  -0.010  0.00  0.00    +0.044 C 
ATOM      2  C   UNL     1       0.145  -0.015  -0.009  0.00  0.00    -0.047 A 
ATOM      3  C   UNL     1       0.004  -0.694  -1.208  0.00  0.00    +0.004 A 
ATOM      4  C   UNL     1      -0.122  -2.067  -1.219  0.00  0.00    +0.017 A 
ATOM      5  C   UNL     1      -0.107  -2.777  -0.017  0.00  0.00    +0.079 A 
ATOM      6  C   UNL     1       0.036  -2.086   1.194  0.00  0.00    +0.144 A 
ATOM      7  C   UNL     1       0.167  -0.706   1.186  0.00  0.00    +0.050 A 
ENDROOT
BRANCH   5   8
ATOM      8  C   UNL     1      -0.242  -4.247  -0.021  0.00  0.00    +0.245 C 
ATOM      9  O   UNL     1      -0.229  -4.861   1.027  0.00  0.00    -0.270 OA
ATOM     10  N   UNL     1      -0.380  -4.907  -1.188  0.00  0.00    -0.325 N 
ATOM     11  H   UNL     1      -0.391  -4.416  -2.025  0.00  0.00    +0.145 HD
ATOM     12  H   UNL     1      -0.469  -5.873  -1.191  0.00  0.00    +0.145 HD
ENDBRANCH   5   8
BRANCH   6  13
ATOM     13  O   UNL     1       0.052  -2.766   2.368  0.00  0.00    -0.422 OA
BRANCH  13  14
ATOM     14  C   UNL     1       1.232  -3.251   2.803  0.00  0.00    +0.345 C 
ATOM     15  O   UNL     1       2.254  -2.995   2.198  0.00  0.00    -0.245 OA
BRANCH  14  16
ATOM     16  C   UNL     1       1.283  -4.093   4.015  0.00  0.00    +0.062 A 
ATOM     17  C   UNL     1       0.108  -4.394   4.709  0.00  0.00    +0.016 A 
ATOM     18  C   UNL     1       0.161  -5.181   5.840  0.00  0.00    +0.019 A 
ATOM     19  C   UNL     1       1.375  -5.673   6.289  0.00  0.00    +0.053 A 
ATOM     20  C   UNL     1       2.545  -5.379   5.606  0.00  0.00    +0.138 A 
ATOM     21  C   UNL     1       2.504  -4.597   4.468  0.00  0.00    +0.054 A 
ATOM     22  F   UNL     1       3.725  -5.863   6.049  0.00  0.00    -0.204 F 
ATOM     23 BR   UNL     1       1.437  -6.752   7.841  0.00  0.00    -0.047 Br
ENDBRANCH  14  16
ENDBRANCH  13  14
ENDBRANCH   6  13
TORSDOF 4
