REMARK  Name = ZINC39596088
REMARK  8 active torsions:
REMARK  status: ('A' for Active; 'I' for Inactive)
REMARK    1  A    between atoms: C_1  and  C_2
REMARK    2  A    between atoms: C_4  and  C_9
REMARK    3  A    between atoms: C_13  and  C_22
REMARK    4  A    between atoms: N_24  and  C_25
REMARK    5  A    between atoms: C_25  and  C_26
REMARK    6  A    between atoms: C_26  and  C_28
REMARK    7  A    between atoms: C_26  and  O_29
REMARK    8  A    between atoms: O_29  and  C_30
REMARK                            x       y       z     vdW  Elec       q    Type
REMARK                         _______ _______ _______ _____ _____    ______ ____
ROOT
ATOM      1  C   UNL     1       0.015  -2.791  -2.454  0.00  0.00    +0.247 C 
ATOM      2  O   UNL     1      -0.107  -2.187  -3.502  0.00  0.00    -0.270 OA
ATOM      3  N   UNL     1       0.143  -4.133  -2.460  0.00  0.00    -0.296 N 
ATOM      4  C   UNL     1       0.172  -5.048  -1.295  0.00  0.00    +0.121 C 
ATOM      5  C   UNL     1      -0.642  -6.281  -1.747  0.00  0.00    +0.100 C 
ATOM      6  C   UNL     1      -0.562  -6.263  -3.282  0.00  0.00    -0.004 C 
ATOM      7  C   UNL     1       0.279  -5.027  -3.635  0.00  0.00    +0.115 C 
ATOM      8  C   UNL     1       0.119  -7.529  -3.791  0.00  0.00    -0.010 C 
ATOM      9  C   UNL     1       0.134  -7.515  -5.322  0.00  0.00    -0.082 C 
ATOM     10  N   UNL     1      -1.242  -7.439  -5.827  0.00  0.00    +0.379 N 
ATOM     11  C   UNL     1      -1.859  -6.175  -5.410  0.00  0.00    -0.082 C 
ATOM     12  C   UNL     1      -1.959  -6.132  -3.882  0.00  0.00    -0.010 C 
ATOM     13  H   UNL     1      -1.233  -7.492  -6.835  0.00  0.00    -0.086 HD
ATOM     14  H   UNL     1      -1.777  -8.211  -5.457  0.00  0.00    -0.086 HD
ENDROOT
BRANCH   1  18
ATOM     15  C   UNL     1      -1.250   1.225   0.221  0.00  0.00    +0.047 C 
ATOM     16  C   UNL     1      -0.583  -0.122   0.118  0.00  0.00    -0.015 A 
ATOM     17  C   UNL     1      -0.594  -0.805  -1.080  0.00  0.00    +0.019 A 
ATOM     18  C   UNL     1       0.024  -2.054  -1.174  0.00  0.00    +0.037 A 
ATOM     19  C   UNL     1       0.651  -2.604  -0.053  0.00  0.00    +0.016 A 
ATOM     20  C   UNL     1       0.656  -1.912   1.139  0.00  0.00    +0.039 A 
ATOM     21  C   UNL     1       0.045  -0.670   1.226  0.00  0.00    +0.126 A 
ATOM     22  F   UNL     1       0.057   0.006   2.395  0.00  0.00    -0.205 F 
ENDBRANCH   1  18
BRANCH   5  23
ATOM     23  C   UNL     1      -2.073  -6.160  -1.292  0.00  0.00    +0.218 C 
ATOM     24  O   UNL     1      -2.609  -5.073  -1.256  0.00  0.00    -0.275 OA
ATOM     25  N   UNL     1      -2.759  -7.261  -0.924  0.00  0.00    -0.312 N 
ATOM     26  H   UNL     1      -2.330  -8.131  -0.953  0.00  0.00    +0.149 HD
BRANCH  25  27
ATOM     27  C   UNL     1      -4.150  -7.144  -0.482  0.00  0.00    +0.148 C 
BRANCH  27  28
ATOM     28  C   UNL     1      -4.691  -8.530  -0.126  0.00  0.00    +0.187 C 
ATOM     29  C   UNL     1      -6.178  -8.425   0.217  0.00  0.00    +0.053 C 
BRANCH  28  30
ATOM     30  O   UNL     1      -3.978  -9.044   1.001  0.00  0.00    -0.488 OA
BRANCH  30  31
ATOM     31  C   UNL     1      -3.938 -10.396   1.143  0.00  0.00    +0.121 A 
ATOM     32  C   UNL     1      -4.479 -11.212   0.161  0.00  0.00    +0.048 A 
ATOM     33  C   UNL     1      -4.438 -12.586   0.306  0.00  0.00    +0.042 A 
ATOM     34  C   UNL     1      -3.856 -13.147   1.430  0.00  0.00    +0.124 A 
ATOM     35  C   UNL     1      -3.316 -12.333   2.411  0.00  0.00    +0.042 A 
ATOM     36  C   UNL     1      -3.350 -10.959   2.265  0.00  0.00    +0.048 A 
ATOM     37  F   UNL     1      -3.817 -14.490   1.571  0.00  0.00    -0.205 F 
ENDBRANCH  30  31
ENDBRANCH  28  30
ENDBRANCH  27  28
ENDBRANCH  25  27
ENDBRANCH   5  23
TORSDOF 6
