REMARK  Name = ZINC47879580
REMARK  5 active torsions:
REMARK  status: ('A' for Active; 'I' for Inactive)
REMARK    1  A    between atoms: C_1  and  C_2
REMARK    2  A    between atoms: C_5  and  C_7
REMARK    3  A    between atoms: C_12  and  N_13
REMARK    4  A    between atoms: N_19  and  C_22
REMARK    5  A    between atoms: C_27  and  O_28
REMARK                            x       y       z     vdW  Elec       q    Type
REMARK                         _______ _______ _______ _____ _____    ______ ____
ROOT
ATOM      1  N   UNL     1       0.062  -4.650  -0.583  0.00  0.00    -0.269 N 
ATOM      2  C   UNL     1       0.181  -5.853  -1.178  0.00  0.00    +0.307 C 
ATOM      3  O   UNL     1       0.200  -6.865  -0.505  0.00  0.00    -0.252 OA
ATOM      4  N   UNL     1       0.278  -5.934  -2.520  0.00  0.00    -0.282 N 
ATOM      5  C   UNL     1       0.374  -4.717  -3.338  0.00  0.00    +0.128 C 
ATOM      6  C   UNL     1       1.633  -4.809  -4.208  0.00  0.00    +0.124 C 
ATOM      7  N   UNL     1       1.645  -6.117  -4.880  0.00  0.00    -0.324 N 
ATOM      8  C   UNL     1       1.548  -7.334  -4.062  0.00  0.00    +0.124 C 
ATOM      9  C   UNL     1       0.295  -7.241  -3.191  0.00  0.00    +0.128 C 
ATOM     10  H   UNL     1      -0.020  -3.848  -1.122  0.00  0.00    +0.156 HD
ENDROOT
BRANCH   1  16
ATOM     11  C   UNL     1       0.591  -3.426   1.443  0.00  0.00    +0.060 A 
ATOM     12  C   UNL     1       0.575  -3.343   2.836  0.00  0.00    +0.015 A 
ATOM     13  C   UNL     1       0.042  -4.374   3.581  0.00  0.00    +0.001 A 
ATOM     14  C   UNL     1      -0.478  -5.493   2.953  0.00  0.00    +0.002 A 
ATOM     15  C   UNL     1      -0.469  -5.589   1.575  0.00  0.00    +0.024 A 
ATOM     16  C   UNL     1       0.058  -4.558   0.811  0.00  0.00    +0.047 A 
BRANCH  11  21
ATOM     17  C   UNL     1       2.754   0.877   0.063  0.00  0.00    +0.111 C 
ATOM     18  C   UNL     1       2.090  -0.475   0.042  0.00  0.00    +0.215 A 
ATOM     19  N   UNL     1       1.788  -1.168  -1.021  0.00  0.00    -0.112 NA
ATOM     20  N   UNL     1       1.232  -2.274  -0.670  0.00  0.00    -0.107 NA
ATOM     21  C   UNL     1       1.160  -2.326   0.640  0.00  0.00    +0.250 A 
ATOM     22  O   UNL     1       1.707  -1.189   1.115  0.00  0.00    -0.420 OA
ENDBRANCH  11  21
ENDBRANCH   1  16
BRANCH   7  23
ATOM     23  C   UNL     1       1.745  -6.201  -6.273  0.00  0.00    +0.072 A 
ATOM     24  C   UNL     1       2.992  -6.283  -6.877  0.00  0.00    +0.027 A 
ATOM     25  C   UNL     1       3.088  -6.367  -8.253  0.00  0.00    +0.002 A 
ATOM     26  C   UNL     1       1.945  -6.368  -9.031  0.00  0.00    +0.004 A 
ATOM     27  C   UNL     1       0.700  -6.286  -8.436  0.00  0.00    +0.047 A 
ATOM     28  C   UNL     1       0.594  -6.208  -7.057  0.00  0.00    +0.138 A 
BRANCH  28  29
ATOM     29  O   UNL     1      -0.631  -6.132  -6.471  0.00  0.00    -0.505 OA
ATOM     30  H   UNL     1      -0.955  -5.229  -6.353  0.00  0.00    +0.292 HD
ENDBRANCH  28  29
ENDBRANCH   7  23
TORSDOF 4
