REMARK  Name = ZINC20125514
REMARK  4 active torsions:
REMARK  status: ('A' for Active; 'I' for Inactive)
REMARK    1  A    between atoms: C_1  and  C_2
REMARK    2  A    between atoms: C_2  and  C_3
REMARK    3  A    between atoms: C_6  and  N_9
REMARK    4  A    between atoms: N_9  and  C_10
REMARK                            x       y       z     vdW  Elec       q    Type
REMARK                         _______ _______ _______ _____ _____    ______ ____
ROOT
ATOM      1  C   UNL     1       3.907   0.252  -2.709  0.00  0.00    +0.029 A 
ATOM      2  C   UNL     1       4.050   1.594  -2.380  0.00  0.00    +0.026 A 
ATOM      3  C   UNL     1       3.187   2.183  -1.473  0.00  0.00    +0.049 A 
ATOM      4  C   UNL     1       2.179   1.434  -0.892  0.00  0.00    +0.142 A 
ATOM      5  C   UNL     1       2.033   0.087  -1.220  0.00  0.00    +0.077 A 
ATOM      6  C   UNL     1       2.897  -0.503  -2.128  0.00  0.00    +0.050 A 
ATOM      7  N   UNL     1       1.007  -0.657  -0.621  0.00  0.00    -0.280 N 
ATOM      8  C   UNL     1       0.002  -0.004   0.002  0.00  0.00    +0.255 C 
ATOM      9  O   UNL     1      -0.881  -0.628   0.552  0.00  0.00    -0.272 OA
ATOM     10  C   UNL     1      -0.018   1.503   0.010  0.00  0.00    +0.325 C 
ATOM     11  O   UNL     1       1.322   2.002   0.000  0.00  0.00    -0.481 OA
ATOM     12  H   UNL     1       1.028  -1.756  -0.663  0.00  0.00    +0.155 HD
ENDROOT
BRANCH   1  13
ATOM     13  N   UNL     1       4.782  -0.340  -3.626  0.00  0.00    -0.341 N 
ATOM     14  H   UNL     1       4.670  -1.402  -3.887  0.00  0.00    +0.146 HD
BRANCH  13  18
ATOM     15  C   UNL     1       7.553   1.099  -6.534  0.00  0.00    -0.011 C 
ATOM     16  C   UNL     1       8.104   0.364  -5.311  0.00  0.00    +0.005 C 
ATOM     17  C   UNL     1       6.990  -0.467  -4.671  0.00  0.00    +0.022 C 
ATOM     18  C   UNL     1       5.849   0.456  -4.239  0.00  0.00    +0.070 C 
ATOM     19  C   UNL     1       5.297   1.191  -5.463  0.00  0.00    +0.022 C 
ATOM     20  C   UNL     1       6.411   2.022  -6.103  0.00  0.00    +0.005 C 
BRANCH  15  22
ATOM     21  C   UNL     1       8.149   2.566  -8.467  0.00  0.00    +0.004 C 
ATOM     22  C   UNL     1       8.666   1.931  -7.175  0.00  0.00    -0.000 C 
ENDBRANCH  15  22
ENDBRANCH  13  18
ENDBRANCH   1  13
TORSDOF 3
