REMARK  Name = ZINC40325287
REMARK  10 active torsions:
REMARK  status: ('A' for Active; 'I' for Inactive)
REMARK    1  A    between atoms: C_1  and  C_2
REMARK    2  A    between atoms: C_2  and  C_3
REMARK    3  A    between atoms: C_3  and  S_4
REMARK    4  A    between atoms: S_4  and  C_7
REMARK    5  A    between atoms: C_10  and  C_13
REMARK    6  A    between atoms: C_15  and  C_18
REMARK    7  A    between atoms: N_20  and  C_21
REMARK    8  A    between atoms: C_21  and  C_22
REMARK    9  A    between atoms: C_22  and  C_24
REMARK   10  A    between atoms: C_22  and  N_30
REMARK                            x       y       z     vdW  Elec       q    Type
REMARK                         _______ _______ _______ _____ _____    ______ ____
ROOT
ATOM      1  C   UNL     1       6.523  -4.571  -8.418  0.00  0.00    +0.266 C 
ATOM      2  O   UNL     1       7.478  -4.674  -7.674  0.00  0.00    -0.268 OA
ATOM      3  N   UNL     1       6.656  -4.851  -9.729  0.00  0.00    -0.311 N 
ATOM      4  H   UNL     1       5.893  -4.769 -10.323  0.00  0.00    +0.149 HD
ENDROOT
BRANCH   1   7
ATOM      5  C   UNL     1       3.616  -3.465  -6.457  0.00  0.00    +0.168 A 
ATOM      6  C   UNL     1       4.928  -3.813  -6.537  0.00  0.00    +0.086 A 
ATOM      7  C   UNL     1       5.209  -4.137  -7.882  0.00  0.00    +0.168 A 
ATOM      8  N   UNL     1       4.105  -3.986  -8.575  0.00  0.00    -0.073 NA
ATOM      9  O   UNL     1       3.084  -3.566  -7.689  0.00  0.00    -0.354 OA
BRANCH   5  13
ATOM     10  C   UNL     1       1.556  -2.284  -2.935  0.00  0.00    +0.088 A 
ATOM     11  C   UNL     1       0.880  -2.343  -4.141  0.00  0.00    +0.027 A 
ATOM     12  C   UNL     1       1.543  -2.726  -5.288  0.00  0.00    +0.013 A 
ATOM     13  C   UNL     1       2.899  -3.053  -5.231  0.00  0.00    +0.020 A 
ATOM     14  C   UNL     1       3.575  -2.991  -4.011  0.00  0.00    +0.013 A 
ATOM     15  C   UNL     1       2.901  -2.602  -2.872  0.00  0.00    +0.027 A 
BRANCH  10  16
ATOM     16  S   UNL     1       0.701  -1.794  -1.474  0.00  0.00    -0.003 S 
ATOM     17  O   UNL     1       1.424  -2.399  -0.411  0.00  0.00    -0.169 OA
ATOM     18  O   UNL     1      -0.656  -2.139  -1.715  0.00  0.00    -0.169 OA
BRANCH  16  19
ATOM     19  C   UNL     1       0.885   0.009  -1.408  0.00  0.00    +0.171 C 
BRANCH  19  21
ATOM     20  C   UNL     1       0.330   2.071  -0.111  0.00  0.00    +0.005 C 
ATOM     21  C   UNL     1       0.174   0.550  -0.166  0.00  0.00    +0.020 C 
ENDBRANCH  19  21
ENDBRANCH  16  19
ENDBRANCH  10  16
ENDBRANCH   5  13
ENDBRANCH   1   7
BRANCH   3  22
ATOM     22  C   UNL     1       7.953  -5.279 -10.259  0.00  0.00    +0.094 C 
BRANCH  22  23
ATOM     23  C   UNL     1       7.806  -5.641 -11.738  0.00  0.00    -0.020 C 
BRANCH  23  24
ATOM     24  N   UNL     1       9.083  -6.161 -12.244  0.00  0.00    +0.385 N 
ATOM     25  C   UNL     1       8.957  -6.455 -13.677  0.00  0.00    -0.078 C 
ATOM     26  C   UNL     1      10.307  -6.920 -14.227  0.00  0.00    -0.019 C 
ATOM     27  C   UNL     1      10.748  -8.184 -13.482  0.00  0.00    -0.004 C 
ATOM     28  C   UNL     1      10.804  -7.886 -11.981  0.00  0.00    -0.019 C 
ATOM     29  C   UNL     1       9.436  -7.385 -11.514  0.00  0.00    -0.078 C 
ATOM     30  H   UNL     1       9.805  -5.469 -12.107  0.00  0.00    -0.081 HD
ENDBRANCH  23  24
BRANCH  23  31
ATOM     31  C   UNL     1       7.419  -4.412 -12.520  0.00  0.00    -0.059 A 
ATOM     32  C   UNL     1       8.384  -3.491 -12.882  0.00  0.00    +0.002 A 
ATOM     33  C   UNL     1       8.029  -2.364 -13.599  0.00  0.00    +0.000 A 
ATOM     34  C   UNL     1       6.709  -2.158 -13.954  0.00  0.00    +0.000 A 
ATOM     35  C   UNL     1       5.744  -3.080 -13.592  0.00  0.00    +0.000 A 
ATOM     36  C   UNL     1       6.100  -4.209 -12.879  0.00  0.00    +0.002 A 
ENDBRANCH  23  31
ENDBRANCH  22  23
ENDBRANCH   3  22
TORSDOF 9
