REMARK  Name = ZINC36638203
REMARK  11 active torsions:
REMARK  status: ('A' for Active; 'I' for Inactive)
REMARK    1  A    between atoms: C_1  and  C_2
REMARK    2  A    between atoms: C_2  and  N_3
REMARK    3  A    between atoms: N_3  and  C_4
REMARK    4  A    between atoms: N_3  and  C_6
REMARK    5  A    between atoms: C_4  and  C_5
REMARK    6  A    between atoms: C_6  and  C_7
REMARK    7  A    between atoms: C_7  and  N_8
REMARK    8  A    between atoms: C_12  and  C_19
REMARK    9  A    between atoms: C_13  and  C_18
REMARK   10  A    between atoms: C_20  and  C_22
REMARK   11  A    between atoms: C_24  and  C_32
REMARK                            x       y       z     vdW  Elec       q    Type
REMARK                         _______ _______ _______ _____ _____    ______ ____
ROOT
ATOM      1  N   UNL     1      -2.633  -4.036   0.381  0.00  0.00    -0.248 N 
ATOM      2  C   UNL     1      -2.641  -4.661   1.616  0.00  0.00    +0.168 A 
ATOM      3  N   UNL     1      -2.635  -5.946   1.889  0.00  0.00    -0.224 NA
ATOM      4  C   UNL     1      -2.644  -6.419   3.153  0.00  0.00    +0.083 A 
ATOM      5  C   UNL     1      -2.639  -7.767   3.582  0.00  0.00    -0.021 A 
ATOM      6  C   UNL     1      -2.650  -8.078   4.916  0.00  0.00    -0.045 A 
ATOM      7  C   UNL     1      -2.667  -7.090   5.890  0.00  0.00    +0.005 A 
ATOM      8  C   UNL     1      -2.672  -5.761   5.508  0.00  0.00    +0.017 A 
ATOM      9  C   UNL     1      -2.661  -5.440   4.173  0.00  0.00    +0.041 A 
ATOM     10  S   UNL     1      -2.654  -3.926   3.244  0.00  0.00    -0.052 S 
ATOM     11  C   UNL     1      -2.645  -9.525   5.335  0.00  0.00    +0.044 C 
ATOM     12  C   UNL     1      -2.622  -8.873   2.559  0.00  0.00    +0.046 C 
ATOM     13  C   UNL     1      -2.623  -4.774  -0.748  0.00  0.00    +0.253 C 
ATOM     14  O   UNL     1      -2.710  -5.984  -0.683  0.00  0.00    -0.270 OA
ENDROOT
BRANCH  13  15
ATOM     15  C   UNL     1      -2.505  -4.109  -2.063  0.00  0.00    +0.048 A 
ATOM     16  C   UNL     1      -3.415  -3.142  -2.468  0.00  0.00    +0.042 A 
ATOM     17  C   UNL     1      -3.264  -2.538  -3.725  0.00  0.00    +0.072 A 
ATOM     18  N   UNL     1      -2.284  -2.855  -4.545  0.00  0.00    -0.247 NA
ATOM     19  C   UNL     1      -1.366  -3.772  -4.238  0.00  0.00    +0.072 A 
ATOM     20  C   UNL     1      -1.421  -4.441  -2.989  0.00  0.00    +0.013 A 
ATOM     21  C   UNL     1      -0.453  -5.399  -2.668  0.00  0.00    +0.011 A 
ATOM     22  C   UNL     1       0.539  -5.677  -3.561  0.00  0.00    +0.001 A 
ATOM     23  C   UNL     1       0.602  -5.019  -4.787  0.00  0.00    +0.002 A 
ATOM     24  C   UNL     1      -0.330  -4.091  -5.135  0.00  0.00    +0.028 A 
BRANCH  17  25
ATOM     25  C   UNL     1      -4.243  -1.507  -4.145  0.00  0.00    +0.000 A 
ATOM     26  C   UNL     1      -5.221  -1.067  -3.255  0.00  0.00    +0.010 A 
ATOM     27  C   UNL     1      -6.130  -0.107  -3.651  0.00  0.00    +0.001 A 
ATOM     28  C   UNL     1      -6.071   0.419  -4.929  0.00  0.00    +0.000 A 
ATOM     29  C   UNL     1      -5.103  -0.014  -5.817  0.00  0.00    +0.001 A 
ATOM     30  C   UNL     1      -4.185  -0.969  -5.430  0.00  0.00    +0.010 A 
ENDBRANCH  17  25
ENDBRANCH  13  15
BRANCH   1  31
ATOM     31  C   UNL     1      -2.636  -2.574   0.300  0.00  0.00    +0.097 C 
BRANCH  31  32
ATOM     32  C   UNL     1      -1.200  -2.069   0.141  0.00  0.00    -0.059 C 
BRANCH  32  33
ATOM     33  N   UNL     1      -1.212  -0.615  -0.066  0.00  0.00    +0.380 N 
ATOM     34  H   UNL     1      -1.796  -0.393  -0.859  0.00  0.00    -0.082 HD
BRANCH  33  36
ATOM     35  C   UNL     1      -1.873   1.549   0.873  0.00  0.00    -0.017 C 
ATOM     36  C   UNL     1      -1.743   0.047   1.133  0.00  0.00    -0.082 C 
ENDBRANCH  33  36
BRANCH  33  37
ATOM     37  C   UNL     1       0.156  -0.145  -0.320  0.00  0.00    -0.082 C 
ATOM     38  C   UNL     1       0.662  -0.735  -1.637  0.00  0.00    -0.017 C 
ENDBRANCH  33  37
ENDBRANCH  32  33
ENDBRANCH  31  32
ENDBRANCH   1  31
TORSDOF 7
