REMARK  Name = ZINC32535112
REMARK  7 active torsions:
REMARK  status: ('A' for Active; 'I' for Inactive)
REMARK    1  A    between atoms: C_1  and  C_2
REMARK    2  A    between atoms: C_2  and  C_3
REMARK    3  A    between atoms: C_9  and  C_11
REMARK    4  A    between atoms: C_11  and  C_13
REMARK    5  A    between atoms: C_11  and  S_15
REMARK    6  A    between atoms: C_13  and  C_14
REMARK    7  A    between atoms: S_15  and  C_16
REMARK                            x       y       z     vdW  Elec       q    Type
REMARK                         _______ _______ _______ _____ _____    ______ ____
ROOT
ATOM      1  C   UNL     1       3.412   7.557   0.059  0.00  0.00    +0.140 C 
ENDROOT
BRANCH   1   8
ATOM      2  C   UNL     1       9.379   9.111  -1.524  0.00  0.00    +0.103 A 
ATOM      3  N   UNL     1       8.953   7.937  -1.101  0.00  0.00    -0.145 NA
ATOM      4  N   UNL     1       7.736   7.758  -0.819  0.00  0.00    -0.126 NA
ATOM      5  C   UNL     1       6.843   8.726  -0.932  0.00  0.00    +0.188 A 
ATOM      6  S   UNL     1       7.843  10.028  -1.508  0.00  0.00    -0.035 S 
ATOM      7  N   UNL     1       5.477   8.708  -0.668  0.00  0.00    -0.262 N 
ATOM      8  C   UNL     1       4.891   7.577  -0.227  0.00  0.00    +0.232 C 
ATOM      9  O   UNL     1       5.554   6.575  -0.061  0.00  0.00    -0.274 OA
ATOM     10  H   UNL     1       4.876   9.617  -0.819  0.00  0.00    +0.157 HD
BRANCH   2  12
ATOM     11  C   UNL     1      10.977   9.306  -3.410  0.00  0.00    +0.011 C 
ATOM     12  C   UNL     1      10.765   9.553  -1.915  0.00  0.00    +0.061 C 
ENDBRANCH   2  12
ENDBRANCH   1   8
BRANCH   1  13
ATOM     13  C   UNL     1       3.149   8.182   1.430  0.00  0.00    +0.020 C 
ATOM     14  C   UNL     1       1.640   8.290   1.661  0.00  0.00    +0.005 C 
ENDBRANCH   1  13
BRANCH   1  15
ATOM     15  S   UNL     1       2.819   5.847   0.051  0.00  0.00    -0.073 S 
BRANCH  15  16
ATOM     16  C   UNL     1       3.021   5.460  -1.656  0.00  0.00    +0.197 A 
ATOM     17  N   UNL     1       3.396   6.290  -2.604  0.00  0.00    -0.122 NA
ATOM     18  N   UNL     1       3.442   5.681  -3.735  0.00  0.00    -0.129 NA
ATOM     19  C   UNL     1       3.097   4.416  -3.577  0.00  0.00    +0.162 A 
ATOM     20  N   UNL     1       2.818   4.244  -2.240  0.00  0.00    -0.270 N 
ATOM     21  C   UNL     1       2.424   3.012  -1.750  0.00  0.00    +0.058 A 
ATOM     22  C   UNL     1       2.143   2.837  -0.401  0.00  0.00    +0.027 A 
ATOM     23  C   UNL     1       1.751   1.599   0.066  0.00  0.00    +0.002 A 
ATOM     24  C   UNL     1       1.634   0.522  -0.800  0.00  0.00    +0.001 A 
ATOM     25  C   UNL     1       1.913   0.672  -2.140  0.00  0.00    +0.010 A 
ATOM     26  C   UNL     1       2.305   1.922  -2.630  0.00  0.00    -0.001 A 
ATOM     27  C   UNL     1       2.602   2.115  -4.053  0.00  0.00    +0.013 A 
ATOM     28  C   UNL     1       2.985   3.337  -4.486  0.00  0.00    +0.049 A 
ENDBRANCH  15  16
ENDBRANCH   1  15
TORSDOF 5
