REMARK  Name = ZINC63526654
REMARK  10 active torsions:
REMARK  status: ('A' for Active; 'I' for Inactive)
REMARK    1  A    between atoms: C_1  and  O_2
REMARK    2  A    between atoms: O_2  and  C_3
REMARK    3  A    between atoms: C_6  and  C_11
REMARK    4  A    between atoms: C_8  and  O_9
REMARK    5  A    between atoms: O_9  and  C_10
REMARK    6  A    between atoms: C_13  and  C_30
REMARK    7  A    between atoms: N_17  and  C_18
REMARK    8  A    between atoms: C_18  and  C_19
REMARK    9  A    between atoms: C_19  and  C_20
REMARK   10  A    between atoms: C_30  and  C_32
REMARK                            x       y       z     vdW  Elec       q    Type
REMARK                         _______ _______ _______ _____ _____    ______ ____
ROOT
ATOM      1  C   UNL     1      -5.302  -2.308  -0.018  0.00  0.00    +0.145 C 
ATOM      2  C   UNL     1      -6.187  -2.295   1.206  0.00  0.00    +0.076 C 
ATOM      3  C   UNL     1      -7.271  -1.546   0.896  0.00  0.00    +0.249 C 
ATOM      4  C   UNL     1      -7.142  -1.056  -0.493  0.00  0.00    +0.288 C 
ATOM      5  O   UNL     1      -7.954  -0.356  -1.063  0.00  0.00    -0.266 OA
ATOM      6  N   UNL     1      -5.990  -1.501  -1.032  0.00  0.00    -0.283 N 
ATOM      7  O   UNL     1      -8.307  -1.286   1.726  0.00  0.00    -0.282 OA
ENDROOT
BRANCH   1  11
ATOM      8  C   UNL     1      -1.501  -0.577   0.901  0.00  0.00    +0.162 A 
ATOM      9  C   UNL     1      -2.629   0.224   0.821  0.00  0.00    +0.050 A 
ATOM     10  C   UNL     1      -3.856  -0.339   0.524  0.00  0.00    +0.009 A 
ATOM     11  C   UNL     1      -3.961  -1.700   0.305  0.00  0.00    -0.019 A 
ATOM     12  C   UNL     1      -2.840  -2.505   0.384  0.00  0.00    +0.055 A 
ATOM     13  C   UNL     1      -1.606  -1.946   0.675  0.00  0.00    +0.162 A 
BRANCH   8  15
ATOM     14  C   UNL     1      -0.261   1.387   1.412  0.00  0.00    +0.277 C 
ATOM     15  O   UNL     1      -0.293  -0.025   1.193  0.00  0.00    -0.491 OA
ENDBRANCH   8  15
BRANCH  13  16
ATOM     16  O   UNL     1      -0.500  -2.735   0.747  0.00  0.00    -0.491 OA
ATOM     17  C   UNL     1      -0.663  -4.112   0.403  0.00  0.00    +0.277 C 
ENDBRANCH  13  16
ENDBRANCH   1  11
BRANCH   2  18
ATOM     18  C   UNL     1      -5.924  -2.965   2.483  0.00  0.00    +0.195 C 
ATOM     19  O   UNL     1      -5.770  -2.307   3.495  0.00  0.00    -0.287 OA
BRANCH  18  20
ATOM     20  C   UNL     1      -5.844  -4.439   2.542  0.00  0.00    +0.022 A 
ATOM     21  C   UNL     1      -6.131  -5.202   1.407  0.00  0.00    +0.014 A 
ATOM     22  C   UNL     1      -6.055  -6.577   1.467  0.00  0.00    +0.039 A 
ATOM     23  C   UNL     1      -5.696  -7.203   2.651  0.00  0.00    +0.123 A 
ATOM     24  C   UNL     1      -5.411  -6.451   3.781  0.00  0.00    +0.039 A 
ATOM     25  C   UNL     1      -5.477  -5.075   3.731  0.00  0.00    +0.014 A 
ATOM     26  F   UNL     1      -5.625  -8.551   2.705  0.00  0.00    -0.205 F 
ENDBRANCH  18  20
ENDBRANCH   2  18
BRANCH   6  27
ATOM     27  C   UNL     1      -5.511  -1.229  -2.389  0.00  0.00    +0.113 C 
BRANCH  27  28
ATOM     28  C   UNL     1      -6.023  -2.313  -3.339  0.00  0.00    +0.052 C 
BRANCH  28  29
ATOM     29  C   UNL     1      -5.529  -2.033  -4.734  0.00  0.00    -0.040 C 
ATOM     30  C   UNL     1      -4.428  -2.549  -5.327  0.00  0.00    -0.001 A 
ATOM     31  C   UNL     1      -3.400  -3.490  -4.866  0.00  0.00    +0.010 A 
ATOM     32  C   UNL     1      -2.394  -3.825  -5.706  0.00  0.00    +0.001 A 
ATOM     33  C   UNL     1      -2.310  -3.299  -7.002  0.00  0.00    +0.002 A 
ATOM     34  C   UNL     1      -3.217  -2.430  -7.497  0.00  0.00    +0.026 A 
ATOM     35  C   UNL     1      -4.317  -2.008  -6.700  0.00  0.00    +0.043 A 
ATOM     36  N   UNL     1      -5.310  -1.188  -6.947  0.00  0.00    -0.380 N 
ATOM     37  C   UNL     1      -6.168  -1.122  -5.759  0.00  0.00    +0.144 C 
ATOM     38  H   UNL     1      -5.455  -0.709  -7.778  0.00  0.00    +0.160 HD
ENDBRANCH  28  29
ENDBRANCH  27  28
ENDBRANCH   6  27
TORSDOF 8
