REMARK  Name = ZINC55872574
REMARK  13 active torsions:
REMARK  status: ('A' for Active; 'I' for Inactive)
REMARK    1  A    between atoms: C_1  and  C_2
REMARK    2  A    between atoms: C_2  and  C_3
REMARK    3  A    between atoms: C_2  and  C_4
REMARK    4  A    between atoms: C_2  and  C_5
REMARK    5  A    between atoms: C_10  and  N_11
REMARK    6  A    between atoms: C_12  and  C_14
REMARK    7  A    between atoms: C_14  and  N_15
REMARK    8  A    between atoms: N_15  and  C_16
REMARK    9  A    between atoms: C_20  and  C_22
REMARK   10  A    between atoms: N_24  and  C_25
REMARK   11  A    between atoms: C_25  and  C_26
REMARK   12  A    between atoms: C_25  and  C_27
REMARK   13  A    between atoms: C_25  and  C_28
REMARK                            x       y       z     vdW  Elec       q    Type
REMARK                         _______ _______ _______ _____ _____    ______ ____
ROOT
ATOM      1  N   UNL     1      -0.422  -6.358  -0.887  0.00  0.00    -0.335 N 
ATOM      2  H   UNL     1       0.059  -6.463  -1.723  0.00  0.00    +0.147 HD
ENDROOT
BRANCH   1   3
ATOM      3  C   UNL     1      -1.002  -7.470  -0.272  0.00  0.00    +0.028 A 
ATOM      4  C   UNL     1      -1.697  -7.319   0.923  0.00  0.00    +0.023 A 
ATOM      5  C   UNL     1      -2.273  -8.416   1.536  0.00  0.00    +0.003 A 
ATOM      6  C   UNL     1      -2.162  -9.668   0.966  0.00  0.00    +0.013 A 
ATOM      7  C   UNL     1      -1.466  -9.830  -0.233  0.00  0.00    +0.038 A 
ATOM      8  C   UNL     1      -0.889  -8.723  -0.855  0.00  0.00    +0.036 A 
BRANCH   7   9
ATOM      9  C   UNL     1      -1.345 -11.171  -0.845  0.00  0.00    +0.245 C 
ATOM     10  O   UNL     1      -0.738 -11.310  -1.889  0.00  0.00    -0.270 OA
ATOM     11  N   UNL     1      -1.907 -12.239  -0.245  0.00  0.00    -0.307 N 
ATOM     12  H   UNL     1      -2.391 -12.128   0.588  0.00  0.00    +0.150 HD
BRANCH  11  13
ATOM     13  C   UNL     1      -1.787 -13.567  -0.852  0.00  0.00    +0.026 C 
ATOM     14  C   UNL     1      -0.308 -13.944  -0.967  0.00  0.00    +0.031 C 
ATOM     15  C   UNL     1      -2.508 -14.594   0.024  0.00  0.00    +0.031 C 
ATOM     16  C   UNL     1      -2.419 -13.551  -2.245  0.00  0.00    +0.031 C 
ENDBRANCH  11  13
ENDBRANCH   7   9
ENDBRANCH   1   3
BRANCH   1  17
ATOM     17  C   UNL     1      -0.542  -5.034  -0.271  0.00  0.00    +0.198 C 
BRANCH  17  19
ATOM     18  N   UNL     1       0.187  -2.720  -0.756  0.00  0.00    -0.284 N 
ATOM     19  C   UNL     1       0.165  -4.016  -1.128  0.00  0.00    +0.234 C 
ATOM     20  O   UNL     1       0.714  -4.362  -2.153  0.00  0.00    -0.274 OA
ATOM     21  H   UNL     1      -0.218  -2.450   0.083  0.00  0.00    +0.155 HD
BRANCH  18  27
ATOM     22  C   UNL     1       0.408  -0.434  -1.501  0.00  0.00    -0.021 A 
ATOM     23  C   UNL     1       1.011   0.507  -2.312  0.00  0.00    +0.006 A 
ATOM     24  C   UNL     1       1.993   0.123  -3.207  0.00  0.00    +0.000 A 
ATOM     25  C   UNL     1       2.374  -1.204  -3.292  0.00  0.00    +0.002 A 
ATOM     26  C   UNL     1       1.775  -2.149  -2.484  0.00  0.00    +0.023 A 
ATOM     27  C   UNL     1       0.792  -1.766  -1.581  0.00  0.00    +0.037 A 
BRANCH  22  29
ATOM     28  C   UNL     1      -1.018   1.455  -0.760  0.00  0.00    +0.015 C 
ATOM     29  C   UNL     1      -0.662  -0.014  -0.526  0.00  0.00    -0.011 C 
ATOM     30  C   UNL     1      -0.148  -0.193   0.904  0.00  0.00    +0.015 C 
ATOM     31  C   UNL     1      -1.907  -0.879  -0.732  0.00  0.00    +0.015 C 
ENDBRANCH  22  29
ENDBRANCH  18  27
ENDBRANCH  17  19
ENDBRANCH   1  17
TORSDOF 7
