REMARK  Name = ZINC36371548
REMARK  14 active torsions:
REMARK  status: ('A' for Active; 'I' for Inactive)
REMARK    1  A    between atoms: C_1  and  C_2
REMARK    2  A    between atoms: C_2  and  C_4
REMARK    3  A    between atoms: C_2  and  C_10
REMARK    4  A    between atoms: C_4  and  C_5
REMARK    5  A    between atoms: C_5  and  C_6
REMARK    6  A    between atoms: C_6  and  C_7
REMARK    7  A    between atoms: C_7  and  C_8
REMARK    8  A    between atoms: C_7  and  C_9
REMARK    9  A    between atoms: C_16  and  C_40
REMARK   10  A    between atoms: C_23  and  O_39
REMARK   11  A    between atoms: C_28  and  C_38
REMARK   12  A    between atoms: C_31  and  O_34
REMARK   13  A    between atoms: O_34  and  C_35
REMARK   14  A    between atoms: C_35  and  C_37
REMARK                            x       y       z     vdW  Elec       q    Type
REMARK                         _______ _______ _______ _____ _____    ______ ____
ROOT
ATOM      1  C   UNL     1       0.671  -0.559   1.234  0.00  0.00    -0.002 C 
ATOM      2  C   UNL     1       2.185  -0.266   1.212  0.00  0.00    +0.004 C 
ATOM      3  C   UNL     1       2.895  -1.610   1.482  0.00  0.00    +0.005 C 
ATOM      4  C   UNL     1       1.857  -2.679   1.029  0.00  0.00    +0.001 C 
ATOM      5  C   UNL     1       0.536  -2.060   1.526  0.00  0.00    -0.026 C 
ATOM      6  C   UNL     1      -0.686  -2.671   0.881  0.00  0.00    +0.007 C 
ATOM      7  C   UNL     1      -0.583  -2.635  -0.643  0.00  0.00    +0.005 C 
ATOM      8  C   UNL     1       0.667  -3.417  -1.064  0.00  0.00    +0.001 C 
ATOM      9  C   UNL     1       1.912  -2.719  -0.500  0.00  0.00    +0.025 C 
ATOM     10  C   UNL     1       3.179  -3.458  -0.935  0.00  0.00    +0.118 C 
ATOM     11  C   UNL     1       3.267  -3.476  -2.462  0.00  0.00    +0.035 C 
ATOM     12  C   UNL     1       2.051  -2.759  -3.052  0.00  0.00    +0.001 C 
ATOM     13  C   UNL     1       0.736  -3.460  -2.593  0.00  0.00    -0.026 C 
ATOM     14  C   UNL     1      -0.493  -2.759  -3.175  0.00  0.00    +0.011 C 
ATOM     15  C   UNL     1      -0.428  -2.800  -4.703  0.00  0.00    +0.045 C 
ATOM     16  C   UNL     1       0.839  -2.083  -5.177  0.00  0.00    +0.177 C 
ATOM     17  C   UNL     1       2.136  -2.791  -4.580  0.00  0.00    +0.048 C 
ATOM     18  C   UNL     1       0.763  -4.916  -3.061  0.00  0.00    +0.012 C 
ATOM     19  C   UNL     1       0.431  -2.263   3.039  0.00  0.00    +0.012 C 
ENDROOT
BRANCH   1  21
ATOM     20  C   UNL     1       0.353   1.227  -0.483  0.00  0.00    +0.008 C 
ATOM     21  C   UNL     1       0.049  -0.229  -0.124  0.00  0.00    -0.010 C 
BRANCH  21  22
ATOM     22  C   UNL     1      -1.466  -0.432  -0.055  0.00  0.00    +0.003 C 
BRANCH  22  23
ATOM     23  C   UNL     1      -2.115   0.139  -1.317  0.00  0.00    +0.001 C 
BRANCH  23  24
ATOM     24  C   UNL     1      -3.611  -0.183  -1.312  0.00  0.00    +0.003 C 
BRANCH  24  25
ATOM     25  C   UNL     1      -4.260   0.388  -2.574  0.00  0.00    -0.017 C 
ATOM     26  C   UNL     1      -3.696  -0.325  -3.805  0.00  0.00    +0.007 C 
ATOM     27  C   UNL     1      -5.774   0.175  -2.510  0.00  0.00    +0.007 C 
ENDBRANCH  24  25
ENDBRANCH  23  24
ENDBRANCH  22  23
ENDBRANCH  21  22
ENDBRANCH   1  21
BRANCH  10  28
ATOM     28  O   UNL     1       4.325  -2.792  -0.402  0.00  0.00    -0.391 OA
ATOM     29  H   UNL     1       5.167  -3.206  -0.638  0.00  0.00    +0.210 HD
ENDBRANCH  10  28
BRANCH  16  30
ATOM     30  O   UNL     1       0.900  -2.118  -6.604  0.00  0.00    -0.462 OA
BRANCH  30  31
ATOM     31  C   UNL     1       0.324  -1.101  -7.264  0.00  0.00    +0.304 C 
ATOM     32  O   UNL     1      -0.215  -0.211  -6.650  0.00  0.00    -0.251 OA
ATOM     33  C   UNL     1       0.348  -1.070  -8.771  0.00  0.00    +0.136 C 
ENDBRANCH  30  31
ENDBRANCH  16  30
TORSDOF 8
