REMARK  Name = ZINC66354894
REMARK  9 active torsions:
REMARK  status: ('A' for Active; 'I' for Inactive)
REMARK    1  A    between atoms: C_4  and  N_27
REMARK    2  A    between atoms: C_5  and  N_7
REMARK    3  A    between atoms: N_10  and  C_11
REMARK    4  A    between atoms: C_11  and  C_12
REMARK    5  A    between atoms: C_12  and  C_14
REMARK    6  A    between atoms: C_12  and  O_26
REMARK    7  A    between atoms: C_14  and  O_15
REMARK    8  A    between atoms: O_15  and  C_16
REMARK    9  A    between atoms: C_19  and  C_22
REMARK                            x       y       z     vdW  Elec       q    Type
REMARK                         _______ _______ _______ _____ _____    ______ ____
ROOT
ATOM      1  C   UNL     1      -1.238  -4.763  -0.067  0.00  0.00    +0.140 C 
ENDROOT
BRANCH   1   5
ATOM      2  N   UNL     1       1.217  -2.026  -0.008  0.00  0.00    -0.267 N 
ATOM      3  C   UNL     1       0.048  -2.693  -0.084  0.00  0.00    +0.304 C 
ATOM      4  O   UNL     1      -0.992  -2.083  -0.240  0.00  0.00    -0.253 OA
ATOM      5  N   UNL     1       0.032  -4.037   0.015  0.00  0.00    -0.297 N 
ATOM      6  H   UNL     1       2.053  -2.516   0.040  0.00  0.00    +0.156 HD
ATOM      7  H   UNL     1       0.862  -4.524   0.140  0.00  0.00    +0.150 HD
BRANCH   2  12
ATOM      8  C   UNL     1       0.212   1.451   0.640  0.00  0.00    +0.002 A 
ATOM      9  C   UNL     1       1.237   2.140   0.019  0.00  0.00    +0.002 A 
ATOM     10  C   UNL     1       2.256   1.449  -0.611  0.00  0.00    +0.034 A 
ATOM     11  C   UNL     1       2.252   0.068  -0.621  0.00  0.00    +0.147 A 
ATOM     12  C   UNL     1       1.224  -0.627   0.002  0.00  0.00    +0.065 A 
ATOM     13  C   UNL     1       0.202   0.070   0.634  0.00  0.00    +0.025 A 
BRANCH  11  14
ATOM     14  N   UNL     1       3.342  -0.671  -1.297  0.00  0.00    +0.058 N 
ATOM     15  O   UNL     1       4.188  -0.068  -1.915  0.00  0.00    -0.126 OA
ATOM     16  O   UNL     1       3.387  -1.877  -1.230  0.00  0.00    -0.126 OA
ENDBRANCH  11  14
ENDBRANCH   2  12
ENDBRANCH   1   5
BRANCH   1  17
ATOM     17  C   UNL     1      -0.978  -6.264   0.072  0.00  0.00    +0.169 C 
BRANCH  17  18
ATOM     18  O   UNL     1      -0.113  -6.698  -0.979  0.00  0.00    -0.387 OA
ATOM     19  H   UNL     1      -0.469  -6.551  -1.866  0.00  0.00    +0.210 HD
ENDBRANCH  17  18
BRANCH  17  20
ATOM     20  C   UNL     1      -2.304  -7.022  -0.013  0.00  0.00    +0.261 C 
BRANCH  20  21
ATOM     21  O   UNL     1      -2.076  -8.411   0.233  0.00  0.00    -0.489 OA
BRANCH  21  22
ATOM     22  C   UNL     1      -3.160  -9.230   0.194  0.00  0.00    +0.121 A 
ATOM     23  C   UNL     1      -4.416  -8.709  -0.082  0.00  0.00    +0.046 A 
ATOM     24  C   UNL     1      -5.515  -9.544  -0.122  0.00  0.00    +0.016 A 
ATOM     25  C   UNL     1      -5.365 -10.899   0.113  0.00  0.00    +0.055 A 
ATOM     26  C   UNL     1      -4.115 -11.420   0.389  0.00  0.00    +0.016 A 
ATOM     27  C   UNL     1      -3.011 -10.590   0.424  0.00  0.00    +0.046 A 
BRANCH  25  28
ATOM     28  C   UNL     1      -6.567 -11.807   0.070  0.00  0.00    +0.417 C 
ATOM     29  F   UNL     1      -6.739 -12.290  -1.232  0.00  0.00    -0.166 F 
ATOM     30  F   UNL     1      -6.370 -12.882   0.943  0.00  0.00    -0.166 F 
ATOM     31  F   UNL     1      -7.706 -11.093   0.457  0.00  0.00    -0.166 F 
ENDBRANCH  25  28
ENDBRANCH  21  22
ENDBRANCH  20  21
ENDBRANCH  17  20
ENDBRANCH   1  17
TORSDOF 9
