REMARK  Name = ZINC06443886
REMARK  10 active torsions:
REMARK  status: ('A' for Active; 'I' for Inactive)
REMARK    1  A    between atoms: C_1  and  C_2
REMARK    2  A    between atoms: C_12  and  C_14
REMARK    3  A    between atoms: C_14  and  C_16
REMARK    4  A    between atoms: C_14  and  N_69
REMARK    5  A    between atoms: N_20  and  C_21
REMARK    6  A    between atoms: C_21  and  C_22
REMARK    7  A    between atoms: C_28  and  C_29
REMARK    8  A    between atoms: C_28  and  N_69
REMARK    9  A    between atoms: C_35  and  C_36
REMARK   10  A    between atoms: C_35  and  N_69
REMARK                            x       y       z     vdW  Elec       q    Type
REMARK                         _______ _______ _______ _____ _____    ______ ____
ROOT
ATOM      1  C   UNL     1      -2.048   4.478   0.512  0.00  0.00    +0.040 C 
ENDROOT
BRANCH   1  13
ATOM      2  C   UNL     1       4.131   2.346  -0.187  0.00  0.00    +0.046 C 
ATOM      3  C   UNL     1       2.824   1.600  -0.100  0.00  0.00    -0.026 A 
ATOM      4  C   UNL     1       2.808   0.224  -0.168  0.00  0.00    +0.005 A 
ATOM      5  C   UNL     1       1.611  -0.475  -0.089  0.00  0.00    +0.001 A 
ATOM      6  C   UNL     1       0.426   0.189   0.058  0.00  0.00    +0.010 A 
ATOM      7  C   UNL     1       0.419   1.586   0.129  0.00  0.00    -0.001 A 
ATOM      8  C   UNL     1       1.630   2.298   0.049  0.00  0.00    +0.052 A 
ATOM      9  N   UNL     1       1.617   3.675   0.120  0.00  0.00    -0.322 N 
ATOM     10  H   UNL     1       2.453   4.164   0.065  0.00  0.00    +0.169 HD
ATOM     11  C   UNL     1       0.463   4.349   0.264  0.00  0.00    +0.251 A 
ATOM     12  O   UNL     1       0.489   5.566   0.323  0.00  0.00    -0.268 OA
ATOM     13  C   UNL     1      -0.778   3.683   0.349  0.00  0.00    +0.011 A 
ATOM     14  C   UNL     1      -0.832   2.329   0.293  0.00  0.00    +0.017 A 
ENDBRANCH   1  13
BRANCH   1  15
ATOM     15  C   UNL     1      -2.252   5.352  -0.699  0.00  0.00    +0.143 A 
ATOM     16  N   UNL     1      -1.549   6.408  -1.029  0.00  0.00    -0.115 NA
ATOM     17  N   UNL     1      -2.030   6.878  -2.129  0.00  0.00    -0.023 NA
ATOM     18  N   UNL     1      -3.025   6.153  -2.504  0.00  0.00    -0.044 NA
ATOM     19  N   UNL     1      -3.194   5.202  -1.649  0.00  0.00    -0.226 N 
BRANCH  19  20
ATOM     20  C   UNL     1      -4.218   4.156  -1.701  0.00  0.00    +0.182 C 
BRANCH  20  21
ATOM     21  C   UNL     1      -5.499   4.677  -1.102  0.00  0.00    -0.026 A 
ATOM     22  C   UNL     1      -5.744   4.520   0.249  0.00  0.00    +0.005 A 
ATOM     23  C   UNL     1      -6.917   5.002   0.799  0.00  0.00    +0.000 A 
ATOM     24  C   UNL     1      -7.849   5.632  -0.004  0.00  0.00    +0.000 A 
ATOM     25  C   UNL     1      -7.606   5.785  -1.356  0.00  0.00    +0.000 A 
ATOM     26  C   UNL     1      -6.431   5.307  -1.905  0.00  0.00    +0.005 A 
ENDBRANCH  20  21
ENDBRANCH  19  20
ENDBRANCH   1  15
BRANCH   1  27
ATOM     27  N   UNL     1      -1.925   5.337   1.709  0.00  0.00    +0.395 N 
ATOM     28  H   UNL     1      -1.099   5.938   1.604  0.00  0.00    -0.079 HD
BRANCH  27  29
ATOM     29  C   UNL     1      -1.760   4.500   2.916  0.00  0.00    -0.041 C 
BRANCH  29  30
ATOM     30  C   UNL     1      -0.287   4.305   3.166  0.00  0.00    -0.064 A 
ATOM     31  C   UNL     1       0.334   3.140   2.758  0.00  0.00    +0.002 A 
ATOM     32  C   UNL     1       1.687   2.963   2.983  0.00  0.00    +0.000 A 
ATOM     33  C   UNL     1       2.415   3.946   3.626  0.00  0.00    +0.000 A 
ATOM     34  C   UNL     1       1.792   5.109   4.039  0.00  0.00    +0.000 A 
ATOM     35  C   UNL     1       0.441   5.288   3.809  0.00  0.00    +0.002 A 
ENDBRANCH  29  30
ENDBRANCH  27  29
BRANCH  27  36
ATOM     36  C   UNL     1      -3.125   6.189   1.844  0.00  0.00    -0.040 C 
BRANCH  36  37
ATOM     37  C   UNL     1      -2.979   7.376   0.927  0.00  0.00    -0.046 A 
ATOM     38  C   UNL     1      -2.034   8.356   1.192  0.00  0.00    +0.005 A 
ATOM     39  C   UNL     1      -1.933   9.428   0.319  0.00  0.00    +0.020 A 
ATOM     40  C   UNL     1      -2.777   9.489  -0.774  0.00  0.00    +0.111 A 
ATOM     41  N   UNL     1      -3.667   8.541  -0.992  0.00  0.00    -0.263 NA
ATOM     42  C   UNL     1      -3.789   7.505  -0.185  0.00  0.00    +0.112 A 
ENDBRANCH  36  37
ENDBRANCH  27  36
ENDBRANCH   1  27
TORSDOF 9
