REMARK  Name = ZINC08125008
REMARK  7 active torsions:
REMARK  status: ('A' for Active; 'I' for Inactive)
REMARK    1  A    between atoms: C_1  and  C_2
REMARK    2  A    between atoms: C_2  and  C_3
REMARK    3  A    between atoms: C_2  and  C_4
REMARK    4  A    between atoms: C_11  and  N_14
REMARK    5  A    between atoms: N_14  and  N_15
REMARK    6  A    between atoms: C_16  and  C_18
REMARK    7  A    between atoms: C_18  and  N_19
REMARK                            x       y       z     vdW  Elec       q    Type
REMARK                         _______ _______ _______ _____ _____    ______ ____
ROOT
ATOM      1  N   UNL     1      -3.494  -3.171  -3.041  0.00  0.00    -0.259 N 
ATOM      2  H   UNL     1      -4.068  -3.786  -3.523  0.00  0.00    +0.170 HD
ENDROOT
BRANCH   1  10
ATOM      3  C   UNL     1      -1.689   0.019  -0.353  0.00  0.00    -0.044 A 
ATOM      4  C   UNL     1      -2.505   0.282   0.736  0.00  0.00    +0.006 A 
ATOM      5  C   UNL     1      -3.704  -0.391   0.905  0.00  0.00    +0.024 A 
ATOM      6  C   UNL     1      -4.106  -1.347  -0.024  0.00  0.00    +0.043 A 
ATOM      7  N   UNL     1      -5.217  -2.135  -0.089  0.00  0.00    -0.280 N 
ATOM      8  C   UNL     1      -5.192  -2.909  -1.159  0.00  0.00    +0.264 C 
ATOM      9  O   UNL     1      -6.044  -3.717  -1.482  0.00  0.00    -0.268 OA
ATOM     10  C   UNL     1      -3.919  -2.613  -1.904  0.00  0.00    +0.116 C 
ATOM     11  C   UNL     1      -3.270  -1.614  -1.139  0.00  0.00    +0.024 A 
ATOM     12  C   UNL     1      -2.064  -0.919  -1.294  0.00  0.00    +0.015 A 
ATOM     13  H   UNL     1      -5.933  -2.128   0.566  0.00  0.00    +0.155 HD
BRANCH   3  15
ATOM     14  C   UNL     1      -0.670   2.265  -0.607  0.00  0.00    +0.012 C 
ATOM     15  C   UNL     1      -0.389   0.764  -0.514  0.00  0.00    +0.013 C 
ATOM     16  C   UNL     1       0.510   0.488   0.693  0.00  0.00    +0.012 C 
ENDBRANCH   3  15
ENDBRANCH   1  10
BRANCH   1  17
ATOM     17  N   UNL     1      -2.219  -2.867  -3.536  0.00  0.00    -0.235 N 
ATOM     18  C   UNL     1      -1.835  -3.334  -4.740  0.00  0.00    +0.246 C 
ATOM     19  O   UNL     1      -2.594  -4.018  -5.396  0.00  0.00    -0.273 OA
ATOM     20  H   UNL     1      -1.613  -2.320  -3.012  0.00  0.00    +0.173 HD
BRANCH  18  21
ATOM     21  C   UNL     1      -0.464  -3.007  -5.273  0.00  0.00    +0.202 C 
BRANCH  21  22
ATOM     22  N   UNL     1      -0.291  -3.627  -6.590  0.00  0.00    -0.321 N 
ATOM     23  C   UNL     1       0.254  -4.987  -6.709  0.00  0.00    +0.106 C 
ATOM     24  C   UNL     1       1.292  -4.978  -7.838  0.00  0.00    +0.024 C 
ATOM     25  C   UNL     1       0.590  -4.637  -9.152  0.00  0.00    +0.038 C 
ATOM     26  C   UNL     1      -0.235  -3.387  -8.999  0.00  0.00    -0.026 A 
ATOM     27  C   UNL     1      -0.648  -2.937  -7.753  0.00  0.00    +0.033 A 
ATOM     28  C   UNL     1      -1.418  -1.784  -7.647  0.00  0.00    +0.023 A 
ATOM     29  C   UNL     1      -1.778  -1.087  -8.783  0.00  0.00    +0.002 A 
ATOM     30  C   UNL     1      -1.370  -1.536 -10.026  0.00  0.00    +0.000 A 
ATOM     31  C   UNL     1      -0.594  -2.678 -10.134  0.00  0.00    +0.005 A 
ENDBRANCH  21  22
ENDBRANCH  18  21
ENDBRANCH   1  17
TORSDOF 5
