REMARK  Name = ZINC34930290
REMARK  13 active torsions:
REMARK  status: ('A' for Active; 'I' for Inactive)
REMARK    1  A    between atoms: C_1  and  C_2
REMARK    2  A    between atoms: C_2  and  O_3
REMARK    3  A    between atoms: O_3  and  C_4
REMARK    4  A    between atoms: C_7  and  C_10
REMARK    5  A    between atoms: C_12  and  C_32
REMARK    6  A    between atoms: C_13  and  C_31
REMARK    7  A    between atoms: C_20  and  C_21
REMARK    8  A    between atoms: C_24  and  N_27
REMARK    9  A    between atoms: C_32  and  O_34
REMARK   10  A    between atoms: O_34  and  C_35
REMARK   11  A    between atoms: C_35  and  C_36
REMARK   12  A    between atoms: C_36  and  C_37
REMARK   13  A    between atoms: C_36  and  C_38
REMARK                            x       y       z     vdW  Elec       q    Type
REMARK                         _______ _______ _______ _____ _____    ______ ____
ROOT
ATOM      1  C   UNL     1       0.551  -7.152  -1.889  0.00  0.00    +0.162 C 
ATOM      2  C   UNL     1       1.755  -7.900  -1.363  0.00  0.00    +0.085 C 
ATOM      3  C   UNL     1       2.601  -8.476  -2.269  0.00  0.00    +0.053 C 
ATOM      4  N   UNL     1       2.364  -8.377  -3.572  0.00  0.00    -0.228 NA
ATOM      5  C   UNL     1       1.345  -7.747  -4.100  0.00  0.00    +0.178 A 
ATOM      6  N   UNL     1       0.377  -7.100  -3.368  0.00  0.00    -0.275 N 
ATOM      7  C   UNL     1      -0.621  -6.489  -4.020  0.00  0.00    +0.268 A 
ATOM      8  O   UNL     1      -1.500  -5.903  -3.416  0.00  0.00    -0.266 OA
ATOM      9  C   UNL     1      -0.621  -6.548  -5.491  0.00  0.00    +0.081 A 
ATOM     10  C   UNL     1      -1.503  -6.019  -6.375  0.00  0.00    +0.028 C 
ATOM     11  S   UNL     1       0.856  -7.502  -5.796  0.00  0.00    -0.046 S 
ATOM     12  C   UNL     1       3.812  -9.230  -1.786  0.00  0.00    +0.066 C 
ENDROOT
BRANCH   1  16
ATOM     13  C   UNL     1       0.766  -3.135  -0.447  0.00  0.00    +0.121 A 
ATOM     14  C   UNL     1       0.000  -4.075   0.227  0.00  0.00    +0.046 A 
ATOM     15  C   UNL     1      -0.068  -5.373  -0.242  0.00  0.00    +0.009 A 
ATOM     16  C   UNL     1       0.627  -5.736  -1.381  0.00  0.00    -0.020 A 
ATOM     17  C   UNL     1       1.392  -4.801  -2.054  0.00  0.00    +0.009 A 
ATOM     18  C   UNL     1       1.458  -3.500  -1.593  0.00  0.00    +0.046 A 
BRANCH  13  19
ATOM     19  O   UNL     1       0.834  -1.858   0.011  0.00  0.00    -0.492 OA
BRANCH  19  21
ATOM     20  C   UNL     1       0.294  -0.080   1.556  0.00  0.00    +0.048 C 
ATOM     21  C   UNL     1       0.096  -1.554   1.196  0.00  0.00    +0.225 C 
ENDBRANCH  19  21
ENDBRANCH  13  19
ENDBRANCH   1  16
BRANCH  10  22
ATOM     22  C   UNL     1      -1.385  -6.330  -7.807  0.00  0.00    -0.024 A 
ATOM     23  C   UNL     1      -0.484  -7.308  -8.242  0.00  0.00    +0.010 A 
ATOM     24  C   UNL     1      -0.379  -7.594  -9.587  0.00  0.00    +0.033 A 
ATOM     25  C   UNL     1      -1.162  -6.916 -10.505  0.00  0.00    +0.126 A 
ATOM     26  C   UNL     1      -2.056  -5.947 -10.083  0.00  0.00    +0.033 A 
ATOM     27  C   UNL     1      -2.177  -5.654  -8.741  0.00  0.00    +0.010 A 
BRANCH  25  28
ATOM     28  N   UNL     1      -1.043  -7.229 -11.947  0.00  0.00    +0.056 N 
ATOM     29  O   UNL     1      -0.263  -8.075 -12.319  0.00  0.00    -0.126 OA
ATOM     30  O   UNL     1      -1.725  -6.640 -12.752  0.00  0.00    -0.126 OA
ENDBRANCH  25  28
ENDBRANCH  10  22
BRANCH   2  31
ATOM     31  C   UNL     1       1.999  -7.999   0.017  0.00  0.00    +0.339 C 
ATOM     32  O   UNL     1       2.893  -8.717   0.427  0.00  0.00    -0.245 OA
BRANCH  31  33
ATOM     33  O   UNL     1       1.241  -7.298   0.888  0.00  0.00    -0.461 OA
BRANCH  33  34
ATOM     34  C   UNL     1       1.544  -7.447   2.277  0.00  0.00    +0.235 C 
BRANCH  34  35
ATOM     35  C   UNL     1       0.588  -6.583   3.102  0.00  0.00    +0.020 C 
ATOM     36  C   UNL     1      -0.840  -7.107   2.942  0.00  0.00    +0.010 C 
ATOM     37  C   UNL     1       0.991  -6.644   4.577  0.00  0.00    +0.010 C 
ENDBRANCH  34  35
ENDBRANCH  33  34
ENDBRANCH  31  33
ENDBRANCH   2  31
TORSDOF 9
