REMARK  Name = ZINC48697119
REMARK  7 active torsions:
REMARK  status: ('A' for Active; 'I' for Inactive)
REMARK    1  A    between atoms: C_1  and  C_2
REMARK    2  A    between atoms: C_2  and  C_4
REMARK    3  A    between atoms: C_2  and  N_9
REMARK    4  A    between atoms: C_16  and  C_18
REMARK    5  A    between atoms: C_18  and  C_19
REMARK    6  A    between atoms: C_18  and  C_20
REMARK    7  A    between atoms: C_18  and  C_21
REMARK                            x       y       z     vdW  Elec       q    Type
REMARK                         _______ _______ _______ _____ _____    ______ ____
ROOT
ATOM      1  N   UNL     1       0.711  -0.489   1.189  0.00  0.00    -0.292 N 
ATOM      2  C   UNL     1       2.054  -0.600   1.174  0.00  0.00    +0.306 C 
ATOM      3  O   UNL     1       2.677  -0.297   0.175  0.00  0.00    -0.252 OA
ATOM      4  N   UNL     1       2.706  -1.046   2.266  0.00  0.00    -0.247 N 
ATOM      5  C   UNL     1       4.092  -1.160   2.250  0.00  0.00    +0.189 A 
ATOM      6  N   UNL     1       4.938  -0.880   1.279  0.00  0.00    -0.126 NA
ATOM      7  N   UNL     1       6.185  -1.036   1.414  0.00  0.00    -0.144 NA
ATOM      8  C   UNL     1       6.654  -1.492   2.558  0.00  0.00    +0.109 A 
ATOM      9  S   UNL     1       5.129  -1.686   3.470  0.00  0.00    -0.035 S 
ATOM     10  H   UNL     1       0.213  -0.731   1.986  0.00  0.00    +0.151 HD
ATOM     11  H   UNL     1       2.208  -1.288   3.062  0.00  0.00    +0.158 HD
ENDROOT
BRANCH   8  12
ATOM     12  C   UNL     1       8.074  -1.768   2.979  0.00  0.00    +0.013 C 
ATOM     13  C   UNL     1       8.890  -0.476   2.899  0.00  0.00    +0.018 C 
ATOM     14  C   UNL     1       8.087  -2.292   4.416  0.00  0.00    +0.018 C 
ATOM     15  C   UNL     1       8.688  -2.816   2.048  0.00  0.00    +0.018 C 
ENDBRANCH   8  12
BRANCH   1  17
ATOM     16  C   UNL     1      -0.019   1.526   0.010  0.00  0.00    +0.033 C 
ATOM     17  C   UNL     1       0.002  -0.004   0.002  0.00  0.00    +0.108 C 
BRANCH  17  18
ATOM     18  C   UNL     1      -1.412  -0.526   0.013  0.00  0.00    +0.010 A 
ATOM     19  C   UNL     1      -2.157  -0.992  -1.019  0.00  0.00    +0.013 A 
ATOM     20  C   UNL     1      -3.447  -1.425  -0.772  0.00  0.00    +0.008 A 
ATOM     21  C   UNL     1      -3.927  -1.370   0.494  0.00  0.00    +0.045 A 
ATOM     22  S   UNL     1      -2.537  -0.697   1.389  0.00  0.00    -0.100 S 
ENDBRANCH  17  18
ENDBRANCH   1  17
TORSDOF 3
