REMARK  Name = ZINC10039651
REMARK  8 active torsions:
REMARK  status: ('A' for Active; 'I' for Inactive)
REMARK    1  A    between atoms: C_1  and  C_2
REMARK    2  A    between atoms: C_2  and  C_3
REMARK    3  A    between atoms: C_2  and  C_4
REMARK    4  A    between atoms: C_4  and  C_6
REMARK    5  A    between atoms: C_4  and  N_18
REMARK    6  A    between atoms: N_8  and  N_9
REMARK    7  A    between atoms: C_10  and  C_11
REMARK    8  A    between atoms: C_19  and  C_21
REMARK                            x       y       z     vdW  Elec       q    Type
REMARK                         _______ _______ _______ _____ _____    ______ ____
ROOT
ATOM      1  C   UNL     1      -1.251  -0.467   0.221  0.00  0.00    +0.163 C 
ENDROOT
BRANCH   1   2
ATOM      2  C   UNL     1      -1.399  -1.966   0.247  0.00  0.00    +0.253 C 
ATOM      3  O   UNL     1      -0.492  -2.672  -0.140  0.00  0.00    -0.272 OA
ATOM      4  N   UNL     1      -2.541  -2.522   0.700  0.00  0.00    -0.205 N 
ATOM      5  H   UNL     1      -3.289  -1.959   0.949  0.00  0.00    +0.177 HD
BRANCH   4   6
ATOM      6  N   UNL     1      -2.645  -3.915   0.811  0.00  0.00    -0.185 NA
ATOM      7  C   UNL     1      -3.780  -4.458   1.143  0.00  0.00    +0.176 C 
BRANCH   7   8
ATOM      8  C   UNL     1      -4.986  -3.632   1.240  0.00  0.00    +0.150 A 
ATOM      9  C   UNL     1      -6.204  -4.043   1.702  0.00  0.00    +0.067 A 
ATOM     10  C   UNL     1      -7.063  -2.931   1.621  0.00  0.00    +0.071 A 
ATOM     11  C   UNL     1      -6.343  -1.909   1.112  0.00  0.00    +0.185 A 
ATOM     12  O   UNL     1      -5.090  -2.336   0.883  0.00  0.00    -0.446 OA
ATOM     13 BR   UNL     1      -6.990  -0.164   0.776  0.00  0.00    -0.007 Br
ATOM     14 BR   UNL     1      -8.885  -2.881   2.124  0.00  0.00    -0.046 Br
ENDBRANCH   7   8
ENDBRANCH   4   6
ENDBRANCH   1   2
BRANCH   1  15
ATOM     15  N   UNL     1       0.139  -0.109   0.517  0.00  0.00    -0.300 N 
ATOM     16  C   UNL     1       0.426   1.100   1.039  0.00  0.00    +0.245 C 
ATOM     17  O   UNL     1      -0.466   1.895   1.260  0.00  0.00    -0.270 OA
ATOM     18  H   UNL     1       0.851  -0.741   0.337  0.00  0.00    +0.150 HD
BRANCH  16  19
ATOM     19  C   UNL     1       1.828   1.461   1.337  0.00  0.00    +0.037 A 
ATOM     20  C   UNL     1       2.856   0.551   1.084  0.00  0.00    +0.014 A 
ATOM     21  C   UNL     1       4.162   0.896   1.359  0.00  0.00    +0.021 A 
ATOM     22  C   UNL     1       4.455   2.139   1.896  0.00  0.00    +0.041 A 
ATOM     23  C   UNL     1       3.439   3.044   2.154  0.00  0.00    +0.021 A 
ATOM     24  C   UNL     1       2.129   2.713   1.878  0.00  0.00    +0.014 A 
ATOM     25 CL   UNL     1       6.101   2.563   2.246  0.00  0.00    -0.084 Cl
ENDBRANCH  16  19
ENDBRANCH   1  15
BRANCH   1  27
ATOM     26  C   UNL     1      -3.076  -0.325  -1.479  0.00  0.00    +0.009 C 
ATOM     27  C   UNL     1      -1.629   0.059  -1.165  0.00  0.00    +0.012 C 
ATOM     28  C   UNL     1      -1.490   1.583  -1.188  0.00  0.00    +0.009 C 
ENDBRANCH   1  27
TORSDOF 6
