REMARK  Name = ZINC14429558
REMARK  5 active torsions:
REMARK  status: ('A' for Active; 'I' for Inactive)
REMARK    1  A    between atoms: C_1  and  C_2
REMARK    2  A    between atoms: C_2  and  C_3
REMARK    3  A    between atoms: N_11  and  C_15
REMARK    4  A    between atoms: C_15  and  C_16
REMARK    5  A    between atoms: N_18  and  C_19
REMARK                            x       y       z     vdW  Elec       q    Type
REMARK                         _______ _______ _______ _____ _____    ______ ____
ROOT
ATOM      1  C   UNL     1      -6.145  -4.221  -2.497  0.00  0.00    -0.011 C 
ATOM      2  C   UNL     1      -5.860  -2.760  -2.145  0.00  0.00    +0.006 C 
ATOM      3  C   UNL     1      -5.712  -2.622  -0.628  0.00  0.00    +0.035 C 
ATOM      4  C   UNL     1      -4.571  -3.510  -0.144  0.00  0.00    +0.113 C 
ATOM      5  C   UNL     1      -4.832  -4.968  -0.507  0.00  0.00    +0.035 C 
ATOM      6  C   UNL     1      -4.983  -5.098  -2.025  0.00  0.00    +0.006 C 
ATOM      7  C   UNL     1      -3.258  -3.048  -0.732  0.00  0.00    +0.247 C 
ATOM      8  O   UNL     1      -2.957  -2.995  -1.905  0.00  0.00    -0.273 OA
ATOM      9  N   UNL     1      -2.491  -2.706   0.324  0.00  0.00    -0.215 N 
ATOM     10  C   UNL     1      -3.135  -2.894   1.482  0.00  0.00    +0.310 C 
ATOM     11  O   UNL     1      -2.648  -2.662   2.571  0.00  0.00    -0.252 OA
ATOM     12  N   UNL     1      -4.384  -3.365   1.305  0.00  0.00    -0.285 N 
ATOM     13  H   UNL     1      -5.031  -3.572   1.998  0.00  0.00    +0.151 HD
ENDROOT
BRANCH   1  15
ATOM     14  C   UNL     1      -6.711  -5.793  -4.355  0.00  0.00    +0.004 C 
ATOM     15  C   UNL     1      -6.304  -4.359  -4.013  0.00  0.00    -0.000 C 
ENDBRANCH   1  15
BRANCH   9  16
ATOM     16  C   UNL     1      -1.121  -2.197   0.216  0.00  0.00    +0.214 C 
BRANCH  16  17
ATOM     17  C   UNL     1      -1.150  -0.694   0.111  0.00  0.00    +0.235 C 
ATOM     18  O   UNL     1      -2.211  -0.106   0.124  0.00  0.00    -0.274 OA
ATOM     19  N   UNL     1       0.002  -0.004   0.002  0.00  0.00    -0.283 N 
ATOM     20  H   UNL     1       0.844  -0.477  -0.089  0.00  0.00    +0.155 HD
BRANCH  19  21
ATOM     21  C   UNL     1      -0.016   1.395   0.021  0.00  0.00    +0.047 A 
ATOM     22  C   UNL     1      -1.058   2.070   0.642  0.00  0.00    +0.024 A 
ATOM     23  C   UNL     1      -1.071   3.450   0.664  0.00  0.00    +0.002 A 
ATOM     24  C   UNL     1      -0.051   4.162   0.058  0.00  0.00    +0.001 A 
ATOM     25  C   UNL     1       0.986   3.494  -0.567  0.00  0.00    +0.016 A 
ATOM     26  C   UNL     1       1.006   2.112  -0.588  0.00  0.00    +0.035 A 
ATOM     27  I   UNL     1       2.577   1.101  -1.536  0.00  0.00    -0.042 I 
ENDBRANCH  19  21
ENDBRANCH  16  17
ENDBRANCH   9  16
TORSDOF 4
