REMARK  Name = ZINC39324763
REMARK  12 active torsions:
REMARK  status: ('A' for Active; 'I' for Inactive)
REMARK    1  A    between atoms: C_1  and  C_2
REMARK    2  A    between atoms: C_4  and  C_37
REMARK    3  A    between atoms: C_7  and  C_14
REMARK    4  A    between atoms: C_14  and  N_15
REMARK    5  A    between atoms: N_15  and  C_16
REMARK    6  A    between atoms: N_15  and  S_24
REMARK    7  A    between atoms: C_16  and  C_17
REMARK    8  A    between atoms: C_17  and  C_18
REMARK    9  A    between atoms: S_24  and  C_27
REMARK   10  A    between atoms: C_32  and  C_33
REMARK   11  A    between atoms: C_33  and  O_35
REMARK   12  A    between atoms: O_35  and  C_36
REMARK                            x       y       z     vdW  Elec       q    Type
REMARK                         _______ _______ _______ _____ _____    ______ ____
ROOT
ATOM      1  N   UNL     1       0.311  -6.159   2.449  0.00  0.00    -0.175 NA
ENDROOT
BRANCH   1   2
ATOM      2  S   UNL     1       0.781  -5.813   3.999  0.00  0.00    +0.062 S 
ATOM      3  O   UNL     1       0.517  -4.432   4.205  0.00  0.00    -0.153 OA
ATOM      4  O   UNL     1       0.228  -6.827   4.827  0.00  0.00    -0.153 OA
BRANCH   2   5
ATOM      5  C   UNL     1       2.531  -6.007   4.067  0.00  0.00    +0.119 A 
ATOM      6  C   UNL     1       3.345  -4.900   4.196  0.00  0.00    +0.029 A 
ATOM      7  C   UNL     1       4.719  -5.050   4.250  0.00  0.00    +0.002 A 
ATOM      8  C   UNL     1       5.287  -6.310   4.176  0.00  0.00    +0.001 A 
ATOM      9  C   UNL     1       4.486  -7.425   4.047  0.00  0.00    +0.017 A 
ATOM     10  C   UNL     1       3.098  -7.281   3.997  0.00  0.00    +0.085 A 
BRANCH  10  11
ATOM     11  C   UNL     1       2.232  -8.471   3.865  0.00  0.00    +0.341 C 
ATOM     12  O   UNL     1       1.036  -8.337   3.702  0.00  0.00    -0.245 OA
BRANCH  11  13
ATOM     13  O   UNL     1       2.770  -9.705   3.924  0.00  0.00    -0.464 OA
ATOM     14  C   UNL     1       1.896 -10.807   3.674  0.00  0.00    +0.280 C 
ENDBRANCH  11  13
ENDBRANCH  10  11
ENDBRANCH   2   5
ENDBRANCH   1   2
BRANCH   1  15
ATOM     15  C   UNL     1       0.754  -5.308   1.342  0.00  0.00    +0.126 C 
BRANCH  15  22
ATOM     16  C   UNL     1      -1.235   1.734  -0.289  0.00  0.00    +0.044 C 
ATOM     17  C   UNL     1      -0.904   0.264  -0.319  0.00  0.00    -0.048 A 
ATOM     18  C   UNL     1      -0.157  -0.232  -1.388  0.00  0.00    +0.007 A 
ATOM     19  C   UNL     1       0.173  -1.547  -1.471  0.00  0.00    -0.042 A 
ATOM     20  C   UNL     1      -0.269  -2.453  -0.411  0.00  0.00    -0.004 A 
ATOM     21  C   UNL     1       0.039  -3.781  -0.452  0.00  0.00    -0.003 C 
ATOM     22  C   UNL     1      -0.460  -4.646   0.689  0.00  0.00    +0.114 C 
ATOM     23  C   UNL     1      -1.258  -3.966   1.779  0.00  0.00    +0.225 C 
ATOM     24  O   UNL     1      -1.683  -4.612   2.718  0.00  0.00    -0.275 OA
ATOM     25  N   UNL     1      -1.493  -2.666   1.707  0.00  0.00    -0.284 N 
ATOM     26  C   UNL     1      -1.056  -1.902   0.706  0.00  0.00    +0.041 A 
ATOM     27  C   UNL     1      -1.340  -0.524   0.698  0.00  0.00    +0.027 A 
ATOM     28  C   UNL     1       0.980  -2.063  -2.635  0.00  0.00    +0.044 C 
ATOM     29  H   UNL     1      -2.007  -2.249   2.416  0.00  0.00    +0.155 HD
ENDBRANCH  15  22
ENDBRANCH   1  15
BRANCH   1  30
ATOM     30  C   UNL     1      -0.550  -7.315   2.186  0.00  0.00    +0.114 C 
BRANCH  30  31
ATOM     31  C   UNL     1       0.229  -8.357   1.380  0.00  0.00    +0.052 C 
BRANCH  31  32
ATOM     32  C   UNL     1      -0.676  -9.516   1.050  0.00  0.00    -0.046 A 
ATOM     33  C   UNL     1      -0.771 -10.588   1.918  0.00  0.00    +0.003 A 
ATOM     34  C   UNL     1      -1.601 -11.651   1.615  0.00  0.00    +0.000 A 
ATOM     35  C   UNL     1      -2.337 -11.642   0.445  0.00  0.00    +0.000 A 
ATOM     36  C   UNL     1      -2.242 -10.569  -0.423  0.00  0.00    +0.000 A 
ATOM     37  C   UNL     1      -1.415  -9.504  -0.118  0.00  0.00    +0.003 A 
ENDBRANCH  31  32
ENDBRANCH  30  31
ENDBRANCH   1  30
TORSDOF 9
