REMARK  Name = ZINC64390246
REMARK  11 active torsions:
REMARK  status: ('A' for Active; 'I' for Inactive)
REMARK    1  A    between atoms: C_1  and  C_2
REMARK    2  A    between atoms: C_5  and  C_8
REMARK    3  A    between atoms: C_10  and  C_14
REMARK    4  A    between atoms: C_11  and  C_13
REMARK    5  A    between atoms: C_14  and  S_15
REMARK    6  A    between atoms: S_15  and  C_16
REMARK    7  A    between atoms: C_26  and  C_28
REMARK    8  A    between atoms: C_31  and  O_36
REMARK    9  A    between atoms: C_32  and  O_34
REMARK   10  A    between atoms: O_34  and  C_35
REMARK   11  A    between atoms: O_36  and  C_37
REMARK                            x       y       z     vdW  Elec       q    Type
REMARK                         _______ _______ _______ _____ _____    ______ ____
ROOT
ATOM      1  C   UNL     1      -1.305  -9.391   3.049  0.00  0.00    +0.272 C 
ATOM      2  N   UNL     1      -0.614  -8.894   4.252  0.00  0.00    -0.163 NA
ATOM      3  N   UNL     1       0.612  -8.909   4.386  0.00  0.00    -0.081 NA
ATOM      4  C   UNL     1       1.469  -9.349   3.430  0.00  0.00    +0.276 C 
ATOM      5  O   UNL     1       2.655  -9.454   3.635  0.00  0.00    -0.270 OA
ATOM      6  C   UNL     1       0.862  -9.699   2.106  0.00  0.00    +0.193 C 
ATOM      7  N   UNL     1      -0.437 -10.374   2.435  0.00  0.00    -0.178 NA
ATOM      8  N   UNL     1      -0.724 -10.966   1.253  0.00  0.00    -0.274 N 
ATOM      9  C   UNL     1       0.502 -11.529   0.825  0.00  0.00    +0.047 C 
ATOM     10  C   UNL     1       1.546 -10.784   1.318  0.00  0.00    +0.027 C 
ATOM     11  H   UNL     1      -1.580 -10.998   0.799  0.00  0.00    +0.167 HD
ENDROOT
BRANCH   9  12
ATOM     12  C   UNL     1       0.641 -12.727  -0.034  0.00  0.00    +0.000 A 
ATOM     13  C   UNL     1       1.907 -13.193  -0.385  0.00  0.00    +0.013 A 
ATOM     14  C   UNL     1       2.035 -14.310  -1.185  0.00  0.00    +0.050 A 
ATOM     15  C   UNL     1       0.905 -14.972  -1.642  0.00  0.00    +0.162 A 
ATOM     16  C   UNL     1      -0.363 -14.511  -1.295  0.00  0.00    +0.162 A 
ATOM     17  C   UNL     1      -0.496 -13.396  -0.488  0.00  0.00    +0.059 A 
BRANCH  16  18
ATOM     18  O   UNL     1      -1.469 -15.161  -1.745  0.00  0.00    -0.491 OA
ATOM     19  C   UNL     1      -2.737 -14.634  -1.350  0.00  0.00    +0.277 C 
ENDBRANCH  16  18
BRANCH  15  20
ATOM     20  O   UNL     1       1.036 -16.071  -2.430  0.00  0.00    -0.491 OA
ATOM     21  C   UNL     1       2.365 -16.488  -2.748  0.00  0.00    +0.277 C 
ENDBRANCH  15  20
ENDBRANCH   9  12
BRANCH   1  22
ATOM     22  S   UNL     1      -1.603  -8.023   1.896  0.00  0.00    -0.110 S 
BRANCH  22  23
ATOM     23  C   UNL     1      -3.026  -7.152   2.607  0.00  0.00    +0.131 C 
BRANCH  23  26
ATOM     24  C   UNL     1      -4.347  -4.845   0.156  0.00  0.00    +0.228 A 
ATOM     25  N   UNL     1      -4.276  -6.039   0.696  0.00  0.00    -0.213 NA
ATOM     26  C   UNL     1      -3.405  -5.997   1.716  0.00  0.00    +0.093 A 
ATOM     27  C   UNL     1      -2.930  -4.741   1.802  0.00  0.00    +0.127 A 
ATOM     28  O   UNL     1      -3.516  -4.024   0.822  0.00  0.00    -0.440 OA
ATOM     29  C   UNL     1      -1.926  -4.232   2.803  0.00  0.00    +0.088 C 
BRANCH  24  34
ATOM     30  C   UNL     1      -7.641  -3.374  -4.327  0.00  0.00    +0.044 C 
ATOM     31  C   UNL     1      -6.779  -3.759  -3.153  0.00  0.00    -0.050 A 
ATOM     32  C   UNL     1      -5.966  -2.812  -2.555  0.00  0.00    +0.004 A 
ATOM     33  C   UNL     1      -5.174  -3.158  -1.480  0.00  0.00    +0.013 A 
ATOM     34  C   UNL     1      -5.194  -4.467  -0.995  0.00  0.00    +0.037 A 
ATOM     35  C   UNL     1      -6.016  -5.417  -1.603  0.00  0.00    +0.013 A 
ATOM     36  C   UNL     1      -6.807  -5.057  -2.674  0.00  0.00    +0.004 A 
ENDBRANCH  24  34
ENDBRANCH  23  26
ENDBRANCH  22  23
ENDBRANCH   1  22
TORSDOF 7
