REMARK  Name = ZINC02617837
REMARK  6 active torsions:
REMARK  status: ('A' for Active; 'I' for Inactive)
REMARK    1  A    between atoms: C_4  and  C_7
REMARK    2  A    between atoms: C_7  and  N_8
REMARK    3  A    between atoms: C_17  and  C_19
REMARK    4  A    between atoms: N_21  and  N_22
REMARK    5  A    between atoms: C_23  and  C_25
REMARK    6  A    between atoms: C_25  and  C_26
REMARK                            x       y       z     vdW  Elec       q    Type
REMARK                         _______ _______ _______ _____ _____    ______ ____
ROOT
ATOM      1  N   UNL     1      -4.077   4.984  -6.811  0.00  0.00    -0.224 N 
ATOM      2  C   UNL     1      -5.087   5.781  -7.217  0.00  0.00    +0.275 A 
ATOM      3  O   UNL     1      -5.306   5.956  -8.401  0.00  0.00    -0.266 OA
ATOM      4  C   UNL     1      -5.917   6.435  -6.195  0.00  0.00    +0.050 A 
ATOM      5  C   UNL     1      -6.981   7.274  -6.508  0.00  0.00    +0.014 A 
ATOM      6  C   UNL     1      -7.712   7.848  -5.490  0.00  0.00    +0.001 A 
ATOM      7  C   UNL     1      -7.396   7.597  -4.161  0.00  0.00    +0.001 A 
ATOM      8  C   UNL     1      -6.345   6.769  -3.829  0.00  0.00    +0.011 A 
ATOM      9  C   UNL     1      -5.599   6.175  -4.841  0.00  0.00    +0.020 A 
ATOM     10  C   UNL     1      -4.459   5.283  -4.573  0.00  0.00    +0.155 A 
ATOM     11  N   UNL     1      -3.800   4.765  -5.582  0.00  0.00    -0.163 NA
ENDROOT
BRANCH  10  12
ATOM     12  C   UNL     1      -4.065   4.971  -3.185  0.00  0.00    +0.281 C 
ATOM     13  O   UNL     1      -4.680   5.456  -2.255  0.00  0.00    -0.267 OA
ATOM     14  N   UNL     1      -3.023   4.150  -2.948  0.00  0.00    -0.229 N 
ATOM     15  H   UNL     1      -2.532   3.763  -3.690  0.00  0.00    +0.173 HD
BRANCH  14  16
ATOM     16  N   UNL     1      -2.649   3.854  -1.631  0.00  0.00    -0.234 N 
ATOM     17  C   UNL     1      -1.607   3.032  -1.394  0.00  0.00    +0.234 C 
ATOM     18  O   UNL     1      -0.994   2.549  -2.322  0.00  0.00    -0.274 OA
ATOM     19  H   UNL     1      -3.140   4.240  -0.889  0.00  0.00    +0.173 HD
BRANCH  17  20
ATOM     20  C   UNL     1      -1.206   2.714   0.023  0.00  0.00    +0.139 C 
BRANCH  20  21
ATOM     21  C   UNL     1      -0.022   1.781   0.012  0.00  0.00    -0.001 A 
ATOM     22  C   UNL     1       1.300   2.079   0.001  0.00  0.00    +0.011 A 
ATOM     23  C   UNL     1       2.220   1.048  -0.013  0.00  0.00    +0.008 A 
ATOM     24  C   UNL     1       1.773  -0.232  -0.016  0.00  0.00    +0.045 A 
ATOM     25  S   UNL     1       0.002  -0.004   0.002  0.00  0.00    -0.101 S 
ENDBRANCH  20  21
ENDBRANCH  17  20
ENDBRANCH  14  16
ENDBRANCH  10  12
BRANCH   1  26
ATOM     26  C   UNL     1      -3.253   4.336  -7.834  0.00  0.00    +0.182 C 
BRANCH  26  30
ATOM     27  C   UNL     1       0.042   6.869  -8.825  0.00  0.00    +0.000 A 
ATOM     28  C   UNL     1       0.164   5.941  -7.807  0.00  0.00    +0.000 A 
ATOM     29  C   UNL     1      -0.902   5.122  -7.486  0.00  0.00    +0.005 A 
ATOM     30  C   UNL     1      -2.091   5.230  -8.183  0.00  0.00    -0.026 A 
ATOM     31  C   UNL     1      -2.212   6.153  -9.204  0.00  0.00    +0.005 A 
ATOM     32  C   UNL     1      -1.147   6.976  -9.522  0.00  0.00    +0.000 A 
ENDBRANCH  26  30
ENDBRANCH   1  26
TORSDOF 6
