REMARK  Name = ZINC09011769
REMARK  2 active torsions:
REMARK  status: ('A' for Active; 'I' for Inactive)
REMARK    1  A    between atoms: C_1  and  C_2
REMARK    2  A    between atoms: C_7  and  C_17
REMARK                            x       y       z     vdW  Elec       q    Type
REMARK                         _______ _______ _______ _____ _____    ______ ____
ROOT
ATOM      1  C   UNL     1      -4.801  -1.712  -3.019  0.00  0.00    +0.008 C 
ATOM      2  C   UNL     1      -3.310  -1.819  -2.695  0.00  0.00    -0.001 C 
ATOM      3  C   UNL     1      -3.075  -1.490  -1.222  0.00  0.00    +0.055 C 
ATOM      4  C   UNL     1      -1.597  -1.611  -0.892  0.00  0.00    +0.017 C 
ATOM      5  C   UNL     1      -0.829  -2.513  -1.527  0.00  0.00    +0.039 C 
ATOM      6  C   UNL     1       0.646  -2.740  -1.295  0.00  0.00    +0.172 C 
ATOM      7  N   UNL     1       1.177  -2.081  -0.121  0.00  0.00    -0.329 N 
ATOM      8  C   UNL     1       1.206  -0.691  -0.030  0.00  0.00    +0.049 A 
ATOM      9  C   UNL     1       2.403   0.007  -0.010  0.00  0.00    +0.025 A 
ATOM     10  C   UNL     1       2.383   1.391   0.002  0.00  0.00    +0.002 A 
ATOM     11  C   UNL     1       1.181   2.074   0.002  0.00  0.00    +0.002 A 
ATOM     12  C   UNL     1      -0.017   1.379   0.010  0.00  0.00    +0.025 A 
ATOM     13  C   UNL     1       0.002  -0.004   0.002  0.00  0.00    +0.052 A 
ATOM     14  N   UNL     1      -1.160  -0.765   0.075  0.00  0.00    -0.316 N 
ATOM     15  C   UNL     1      -1.387  -3.348  -2.523  0.00  0.00    +0.163 C 
ATOM     16  O   UNL     1      -0.675  -4.171  -3.064  0.00  0.00    -0.292 OA
ATOM     17  C   UNL     1      -2.825  -3.254  -2.936  0.00  0.00    +0.083 C 
ATOM     18  H   UNL     1       1.566  -2.679   0.716  0.00  0.00    +0.147 HD
ATOM     19  H   UNL     1      -1.739  -0.642   1.002  0.00  0.00    +0.152 HD
ENDROOT
BRANCH   6  20
ATOM     20  C   UNL     1       1.401  -2.247  -2.503  0.00  0.00    +0.130 A 
ATOM     21  C   UNL     1       1.878  -3.014  -3.499  0.00  0.00    +0.047 A 
ATOM     22  C   UNL     1       2.513  -2.146  -4.417  0.00  0.00    +0.041 A 
ATOM     23  C   UNL     1       2.385  -0.900  -3.926  0.00  0.00    +0.195 A 
ATOM     24  O   UNL     1       1.706  -0.967  -2.769  0.00  0.00    -0.466 OA
ENDBRANCH   6  20
TORSDOF 1
