REMARK  Name = ZINC24885836
REMARK  4 active torsions:
REMARK  status: ('A' for Active; 'I' for Inactive)
REMARK    1  A    between atoms: C_1  and  C_2
REMARK    2  A    between atoms: N_6  and  C_14
REMARK    3  A    between atoms: C_14  and  C_15
REMARK    4  A    between atoms: N_17  and  C_18
REMARK                            x       y       z     vdW  Elec       q    Type
REMARK                         _______ _______ _______ _____ _____    ______ ____
ROOT
ATOM      1  C   UNL     1      -2.481   5.745  -0.613  0.00  0.00    +0.231 C 
ATOM      2  O   UNL     1      -3.339   5.130  -1.210  0.00  0.00    -0.274 OA
ATOM      3  N   UNL     1      -1.510   5.081   0.044  0.00  0.00    -0.311 N 
ATOM      4  H   UNL     1      -0.732   5.638   0.586  0.00  0.00    +0.149 HD
ENDROOT
BRANCH   3   5
ATOM      5  C   UNL     1      -1.490   3.616   0.036  0.00  0.00    +0.079 C 
ATOM      6  C   UNL     1      -0.750   3.109   1.275  0.00  0.00    +0.010 C 
ATOM      7  C   UNL     1      -0.729   1.579   1.267  0.00  0.00    +0.009 C 
ATOM      8  C   UNL     1      -0.013   1.086   0.008  0.00  0.00    -0.010 C 
ATOM      9  C   UNL     1       1.423   1.615  -0.003  0.00  0.00    +0.007 C 
ATOM     10  C   UNL     1       1.402   3.145   0.006  0.00  0.00    -0.010 C 
ATOM     11  C   UNL     1       0.686   3.639   1.264  0.00  0.00    +0.009 C 
ATOM     12  C   UNL     1       0.662   3.652  -1.234  0.00  0.00    +0.009 C 
ATOM     13  C   UNL     1      -0.773   3.123  -1.223  0.00  0.00    +0.010 C 
ATOM     14  C   UNL     1      -0.753   1.593  -1.232  0.00  0.00    +0.009 C 
ENDBRANCH   3   5
BRANCH   1  15
ATOM     15  C   UNL     1      -2.501   7.252  -0.605  0.00  0.00    +0.209 C 
BRANCH  15  20
ATOM     16  C   UNL     1      -6.968   9.213  -0.738  0.00  0.00    +0.062 C 
ATOM     17  C   UNL     1      -6.019   8.393  -1.613  0.00  0.00    +0.256 C 
ATOM     18  C   UNL     1      -4.841   7.938  -0.788  0.00  0.00    +0.261 C 
ATOM     19  O   UNL     1      -4.966   7.761   0.405  0.00  0.00    -0.271 OA
ATOM     20  N   UNL     1      -3.647   7.729  -1.383  0.00  0.00    -0.256 N 
ATOM     21  C   UNL     1      -3.518   7.981  -2.757  0.00  0.00    +0.079 A 
ATOM     22  C   UNL     1      -2.436   7.487  -3.468  0.00  0.00    +0.027 A 
ATOM     23  C   UNL     1      -2.330   7.742  -4.823  0.00  0.00    +0.002 A 
ATOM     24  C   UNL     1      -3.302   8.482  -5.470  0.00  0.00    +0.004 A 
ATOM     25  C   UNL     1      -4.387   8.973  -4.766  0.00  0.00    +0.047 A 
ATOM     26  C   UNL     1      -4.500   8.723  -3.410  0.00  0.00    +0.143 A 
ATOM     27  O   UNL     1      -5.560   9.197  -2.703  0.00  0.00    -0.478 OA
ENDBRANCH  15  20
ENDBRANCH   1  15
TORSDOF 3
