REMARK  Name = ZINC22609223
REMARK  12 active torsions:
REMARK  status: ('A' for Active; 'I' for Inactive)
REMARK    1  A    between atoms: C_1  and  O_2
REMARK    2  A    between atoms: O_2  and  C_3
REMARK    3  A    between atoms: C_8  and  O_9
REMARK    4  A    between atoms: O_9  and  C_10
REMARK    5  A    between atoms: N_12  and  C_15
REMARK    6  A    between atoms: N_20  and  C_23
REMARK    7  A    between atoms: C_25  and  C_33
REMARK    8  A    between atoms: C_27  and  C_29
REMARK    9  A    between atoms: C_29  and  O_31
REMARK   10  A    between atoms: O_31  and  C_32
REMARK   11  A    between atoms: C_33  and  O_35
REMARK   12  A    between atoms: O_35  and  C_36
REMARK                            x       y       z     vdW  Elec       q    Type
REMARK                         _______ _______ _______ _____ _____    ______ ____
ROOT
ATOM      1  C   UNL     1       3.411  -2.279  -6.566  0.00  0.00    +0.153 C 
ATOM      2  C   UNL     1       2.638  -3.463  -7.184  0.00  0.00    +0.125 C 
ATOM      3  C   UNL     1       3.545  -4.648  -6.933  0.00  0.00    +0.228 C 
ATOM      4  O   UNL     1       3.314  -5.791  -7.263  0.00  0.00    -0.275 OA
ATOM      5  N   UNL     1       4.644  -4.233  -6.289  0.00  0.00    -0.209 N 
ATOM      6  C   UNL     1       4.675  -2.916  -6.032  0.00  0.00    +0.244 C 
ATOM      7  O   UNL     1       5.571  -2.329  -5.464  0.00  0.00    -0.273 OA
ENDROOT
BRANCH   1  15
ATOM      8  C   UNL     1       0.438  -0.807  -1.055  0.00  0.00    +0.162 A 
ATOM      9  C   UNL     1       1.021  -0.008  -2.023  0.00  0.00    +0.053 A 
ATOM     10  C   UNL     1       1.672  -0.580  -3.105  0.00  0.00    -0.038 A 
ATOM     11  C   UNL     1       1.744  -1.952  -3.220  0.00  0.00    -0.026 A 
ATOM     12  C   UNL     1       1.159  -2.757  -2.253  0.00  0.00    +0.054 A 
ATOM     13  C   UNL     1       0.512  -2.192  -1.169  0.00  0.00    +0.162 A 
ATOM     14  C   UNL     1       2.451  -2.617  -4.372  0.00  0.00    +0.120 C 
ATOM     15  N   UNL     1       2.638  -1.670  -5.475  0.00  0.00    -0.287 NA
ATOM     16  C   UNL     1       3.289  -0.443  -4.989  0.00  0.00    +0.090 C 
ATOM     17  C   UNL     1       2.286   0.333  -4.136  0.00  0.00    +0.051 C 
BRANCH   8  19
ATOM     18  C   UNL     1      -0.234   1.186   0.055  0.00  0.00    +0.277 C 
ATOM     19  O   UNL     1      -0.199  -0.241   0.006  0.00  0.00    -0.491 OA
ENDBRANCH   8  19
BRANCH  13  20
ATOM     20  O   UNL     1      -0.054  -2.986  -0.221  0.00  0.00    -0.491 OA
ATOM     21  C   UNL     1       0.062  -4.398  -0.405  0.00  0.00    +0.277 C 
ENDBRANCH  13  20
ENDBRANCH   1  15
BRANCH   5  22
ATOM     22  C   UNL     1       5.678  -5.103  -5.915  0.00  0.00    +0.045 A 
ATOM     23  C   UNL     1       6.924  -4.994  -6.513  0.00  0.00    +0.039 A 
ATOM     24  C   UNL     1       7.957  -5.858  -6.143  0.00  0.00    +0.062 A 
ATOM     25  C   UNL     1       7.733  -6.832  -5.171  0.00  0.00    +0.030 A 
ATOM     26  C   UNL     1       6.479  -6.939  -4.572  0.00  0.00    +0.062 A 
ATOM     27  C   UNL     1       5.453  -6.067  -4.944  0.00  0.00    +0.039 A 
BRANCH  26  28
ATOM     28  C   UNL     1       6.237  -7.970  -3.542  0.00  0.00    +0.339 C 
ATOM     29  O   UNL     1       5.143  -8.063  -3.021  0.00  0.00    -0.245 OA
BRANCH  28  30
ATOM     30  O   UNL     1       7.228  -8.807  -3.180  0.00  0.00    -0.464 OA
ATOM     31  C   UNL     1       6.924  -9.779  -2.178  0.00  0.00    +0.280 C 
ENDBRANCH  28  30
ENDBRANCH  26  28
BRANCH  24  32
ATOM     32  C   UNL     1       9.284  -5.741  -6.781  0.00  0.00    +0.339 C 
ATOM     33  O   UNL     1       9.478  -4.892  -7.628  0.00  0.00    -0.245 OA
BRANCH  32  34
ATOM     34  O   UNL     1      10.279  -6.576  -6.423  0.00  0.00    -0.464 OA
ATOM     35  C   UNL     1      11.536  -6.405  -7.081  0.00  0.00    +0.280 C 
ENDBRANCH  32  34
ENDBRANCH  24  32
ENDBRANCH   5  22
TORSDOF 8
