REMARK  Name = ZINC09859427
REMARK  4 active torsions:
REMARK  status: ('A' for Active; 'I' for Inactive)
REMARK    1  A    between atoms: C_4  and  C_7
REMARK    2  A    between atoms: C_11  and  S_13
REMARK    3  A    between atoms: S_13  and  C_14
REMARK    4  A    between atoms: C_14  and  C_15
REMARK                            x       y       z     vdW  Elec       q    Type
REMARK                         _______ _______ _______ _____ _____    ______ ____
ROOT
ATOM      1  C   UNL     1      -5.719   1.414  -1.079  0.00  0.00    +0.165 A 
ATOM      2  N   UNL     1      -4.572   0.863  -0.706  0.00  0.00    -0.193 NA
ATOM      3  C   UNL     1      -3.539   1.620  -0.343  0.00  0.00    +0.228 A 
ATOM      4  C   UNL     1      -3.677   2.998  -0.358  0.00  0.00    +0.051 A 
ATOM      5  C   UNL     1      -4.896   3.546  -0.755  0.00  0.00    +0.108 A 
ATOM      6  N   UNL     1      -5.886   2.728  -1.106  0.00  0.00    -0.221 NA
ATOM      7  C   UNL     1      -2.542   3.896   0.045  0.00  0.00    +0.082 C 
ATOM      8  C   UNL     1      -1.241   3.138   0.029  0.00  0.00    +0.001 A 
ATOM      9  C   UNL     1      -0.049   3.840   0.021  0.00  0.00    +0.022 A 
ATOM     10  C   UNL     1       1.157   3.164   0.007  0.00  0.00    +0.018 A 
ATOM     11  C   UNL     1       1.174   1.780   0.000  0.00  0.00    +0.019 A 
ATOM     12  C   UNL     1      -0.013   1.076   0.008  0.00  0.00    +0.048 A 
ATOM     13  C   UNL     1      -1.227   1.753   0.017  0.00  0.00    +0.134 A 
ATOM     14  O   UNL     1      -2.380   1.040   0.033  0.00  0.00    -0.437 OA
ATOM     15 BR   UNL     1       2.783   4.130  -0.003  0.00  0.00    -0.050 Br
ENDROOT
BRANCH   1  19
ATOM     16  C   UNL     1      -8.948  -1.105  -2.220  0.00  0.00    +0.000 A 
ATOM     17  C   UNL     1      -7.745  -1.663  -1.827  0.00  0.00    +0.001 A 
ATOM     18  C   UNL     1      -6.693  -0.850  -1.456  0.00  0.00    +0.011 A 
ATOM     19  C   UNL     1      -6.845   0.535  -1.477  0.00  0.00    +0.019 A 
ATOM     20  C   UNL     1      -8.062   1.092  -1.867  0.00  0.00    +0.011 A 
ATOM     21  C   UNL     1      -9.105   0.269  -2.242  0.00  0.00    +0.001 A 
ENDBRANCH   1  19
BRANCH   5  22
ATOM     22  S   UNL     1      -5.122   5.293  -0.792  0.00  0.00    -0.096 S 
BRANCH  22  23
ATOM     23  C   UNL     1      -6.836   5.376  -1.366  0.00  0.00    +0.171 C 
BRANCH  23  24
ATOM     24  C   UNL     1      -7.260   6.818  -1.476  0.00  0.00    +0.221 C 
ATOM     25  O   UNL     1      -6.480   7.702  -1.194  0.00  0.00    -0.275 OA
ATOM     26  N   UNL     1      -8.507   7.124  -1.888  0.00  0.00    -0.329 N 
ATOM     27  H   UNL     1      -8.816   8.177  -1.969  0.00  0.00    +0.145 HD
ATOM     28  H   UNL     1      -9.214   6.322  -2.144  0.00  0.00    +0.145 HD
ENDBRANCH  23  24
ENDBRANCH  22  23
ENDBRANCH   5  22
TORSDOF 4
