REMARK  Name = ZINC17135596
REMARK  7 active torsions:
REMARK  status: ('A' for Active; 'I' for Inactive)
REMARK    1  A    between atoms: C_1  and  C_2
REMARK    2  A    between atoms: C_6  and  N_8
REMARK    3  A    between atoms: C_9  and  C_22
REMARK    4  A    between atoms: C_12  and  S_13
REMARK    5  A    between atoms: S_13  and  C_14
REMARK    6  A    between atoms: C_14  and  C_15
REMARK    7  A    between atoms: C_22  and  C_23
REMARK                            x       y       z     vdW  Elec       q    Type
REMARK                         _______ _______ _______ _____ _____    ______ ____
ROOT
ATOM      1  N   UNL     1       1.245  -5.499  -2.405  0.00  0.00    -0.274 N 
ATOM      2  C   UNL     1       1.272  -6.684  -1.719  0.00  0.00    +0.144 A 
ATOM      3  N   UNL     1       1.280  -6.397  -0.448  0.00  0.00    -0.133 NA
ATOM      4  N   UNL     1       1.264  -5.122  -0.283  0.00  0.00    -0.122 NA
ATOM      5  C   UNL     1       1.246  -4.520  -1.449  0.00  0.00    +0.196 A 
ENDROOT
BRANCH   1  11
ATOM      6  C   UNL     1      -1.101  -3.952  -6.442  0.00  0.00    +0.044 C 
ATOM      7  C   UNL     1       0.099  -4.577  -5.778  0.00  0.00    -0.048 A 
ATOM      8  C   UNL     1       1.179  -4.981  -6.541  0.00  0.00    +0.003 A 
ATOM      9  C   UNL     1       2.281  -5.556  -5.935  0.00  0.00    +0.002 A 
ATOM     10  C   UNL     1       2.305  -5.729  -4.565  0.00  0.00    +0.026 A 
ATOM     11  C   UNL     1       1.223  -5.324  -3.796  0.00  0.00    +0.050 A 
ATOM     12  C   UNL     1       0.115  -4.753  -4.408  0.00  0.00    +0.029 A 
ENDBRANCH   1  11
BRANCH   5  13
ATOM     13  S   UNL     1       1.220  -2.781  -1.730  0.00  0.00    -0.081 S 
BRANCH  13  14
ATOM     14  C   UNL     1       1.228  -2.186  -0.020  0.00  0.00    +0.112 C 
BRANCH  14  15
ATOM     15  C   UNL     1       1.208  -0.679  -0.013  0.00  0.00    -0.037 A 
ATOM     16  C   UNL     1       0.002  -0.004   0.002  0.00  0.00    +0.005 A 
ATOM     17  C   UNL     1      -0.017   1.378   0.010  0.00  0.00    +0.015 A 
ATOM     18  C   UNL     1       1.172   2.086   0.002  0.00  0.00    +0.018 A 
ATOM     19  C   UNL     1       2.379   1.410  -0.013  0.00  0.00    +0.015 A 
ATOM     20  C   UNL     1       2.396   0.028  -0.020  0.00  0.00    +0.005 A 
ATOM     21 BR   UNL     1       1.147   3.976   0.013  0.00  0.00    -0.050 Br
ENDBRANCH  14  15
ENDBRANCH  13  14
ENDBRANCH   5  13
BRANCH   2  22
ATOM     22  C   UNL     1       1.286  -8.065  -2.323  0.00  0.00    +0.130 C 
BRANCH  22  23
ATOM     23  C   UNL     1      -0.130  -8.544  -2.512  0.00  0.00    +0.033 A 
ATOM     24  C   UNL     1      -0.748  -8.382  -3.701  0.00  0.00    +0.091 A 
ATOM     25  C   UNL     1      -2.079  -8.841  -3.854  0.00  0.00    +0.254 A 
ATOM     26  O   UNL     1      -2.657  -8.706  -4.918  0.00  0.00    -0.268 OA
ATOM     27  N   UNL     1      -2.700  -9.429  -2.812  0.00  0.00    -0.275 N 
ATOM     28  H   UNL     1      -3.640  -9.756  -2.912  0.00  0.00    +0.173 HD
ATOM     29  C   UNL     1      -2.060  -9.578  -1.637  0.00  0.00    +0.327 A 
ATOM     30  O   UNL     1      -2.633 -10.110  -0.706  0.00  0.00    -0.247 OA
ATOM     31  N   UNL     1      -0.794  -9.152  -1.481  0.00  0.00    -0.311 N 
ATOM     32  H   UNL     1      -0.333  -9.280  -0.602  0.00  0.00    +0.170 HD
ENDBRANCH  22  23
ENDBRANCH   2  22
TORSDOF 6
