REMARK  Name = ZINC01026416
REMARK  6 active torsions:
REMARK  status: ('A' for Active; 'I' for Inactive)
REMARK    1  A    between atoms: C_5  and  N_36
REMARK    2  A    between atoms: N_13  and  C_16
REMARK    3  A    between atoms: C_19  and  S_22
REMARK    4  A    between atoms: S_22  and  N_25
REMARK    5  A    between atoms: N_25  and  C_26
REMARK    6  A    between atoms: C_29  and  C_32
REMARK                            x       y       z     vdW  Elec       q    Type
REMARK                         _______ _______ _______ _____ _____    ______ ____
ROOT
ATOM      1  C   UNL     1       1.250   3.474   0.354  0.00  0.00    +0.045 A 
ATOM      2  C   UNL     1       2.374   4.260   0.141  0.00  0.00    +0.026 A 
ATOM      3  C   UNL     1       2.248   5.633   0.051  0.00  0.00    +0.030 A 
ATOM      4  C   UNL     1       1.005   6.224   0.184  0.00  0.00    +0.109 A 
ATOM      5  C   UNL     1      -0.115   5.444   0.403  0.00  0.00    +0.030 A 
ATOM      6  C   UNL     1       0.003   4.071   0.488  0.00  0.00    +0.026 A 
ENDROOT
BRANCH   1  19
ATOM      7  C   UNL     1       2.136  -1.929   3.063  0.00  0.00    +0.001 A 
ATOM      8  C   UNL     1       2.008  -2.718   1.955  0.00  0.00    +0.008 A 
ATOM      9  C   UNL     1       1.748  -2.135   0.703  0.00  0.00    -0.014 A 
ATOM     10  C   UNL     1       1.609  -2.904  -0.467  0.00  0.00    +0.041 A 
ATOM     11  C   UNL     1       1.357  -2.292  -1.661  0.00  0.00    +0.128 A 
ATOM     12  C   UNL     1       1.232  -0.911  -1.759  0.00  0.00    +0.046 A 
ATOM     13  C   UNL     1       1.362  -0.117  -0.630  0.00  0.00    +0.048 A 
ATOM     14  C   UNL     1       1.623  -0.733   0.616  0.00  0.00    +0.007 A 
ATOM     15  C   UNL     1       1.758   0.067   1.773  0.00  0.00    +0.046 A 
ATOM     16  C   UNL     1       2.014  -0.547   2.990  0.00  0.00    +0.014 A 
ATOM     17  C   UNL     1       1.622   1.525   1.642  0.00  0.00    +0.258 C 
ATOM     18  O   UNL     1       1.729   2.233   2.625  0.00  0.00    -0.269 OA
ATOM     19  N   UNL     1       1.373   2.081   0.441  0.00  0.00    -0.202 N 
ATOM     20  C   UNL     1       1.238   1.347  -0.680  0.00  0.00    +0.258 C 
ATOM     21  O   UNL     1       1.014   1.899  -1.741  0.00  0.00    -0.269 OA
BRANCH  11  22
ATOM     22  N   UNL     1       1.213  -3.119  -2.880  0.00  0.00    +0.056 N 
ATOM     23  O   UNL     1       1.319  -4.330  -2.810  0.00  0.00    -0.126 OA
ATOM     24  O   UNL     1       0.988  -2.588  -3.953  0.00  0.00    -0.126 OA
ENDBRANCH  11  22
ENDBRANCH   1  19
BRANCH   4  25
ATOM     25  S   UNL     1       0.850   7.976   0.076  0.00  0.00    +0.072 S 
ATOM     26  O   UNL     1       2.026   8.449  -0.567  0.00  0.00    -0.150 OA
ATOM     27  O   UNL     1      -0.452   8.238  -0.430  0.00  0.00    -0.150 OA
BRANCH  25  28
ATOM     28  N   UNL     1       0.885   8.568   1.622  0.00  0.00    -0.216 N 
ATOM     29  H   UNL     1       0.106   9.015   1.988  0.00  0.00    +0.174 HD
BRANCH  28  30
ATOM     30  C   UNL     1       2.036   8.422   2.400  0.00  0.00    +0.048 A 
ATOM     31  C   UNL     1       2.069   7.485   3.425  0.00  0.00    +0.025 A 
ATOM     32  C   UNL     1       3.210   7.340   4.189  0.00  0.00    +0.014 A 
ATOM     33  C   UNL     1       4.315   8.134   3.941  0.00  0.00    +0.055 A 
ATOM     34  C   UNL     1       4.284   9.071   2.925  0.00  0.00    +0.014 A 
ATOM     35  C   UNL     1       3.147   9.217   2.154  0.00  0.00    +0.025 A 
BRANCH  33  36
ATOM     36  C   UNL     1       5.557   7.976   4.780  0.00  0.00    +0.417 C 
ATOM     37  F   UNL     1       5.484   8.830   5.887  0.00  0.00    -0.166 F 
ATOM     38  F   UNL     1       5.659   6.652   5.219  0.00  0.00    -0.166 F 
ATOM     39  F   UNL     1       6.682   8.301   4.014  0.00  0.00    -0.166 F 
ENDBRANCH  33  36
ENDBRANCH  28  30
ENDBRANCH  25  28
ENDBRANCH   4  25
TORSDOF 6
