REMARK  Name = ZINC63908384
REMARK  5 active torsions:
REMARK  status: ('A' for Active; 'I' for Inactive)
REMARK    1  A    between atoms: C_1  and  S_2
REMARK    2  A    between atoms: S_2  and  C_5
REMARK    3  A    between atoms: C_5  and  C_6
REMARK    4  A    between atoms: C_9  and  C_12
REMARK    5  A    between atoms: C_17  and  C_20
REMARK                            x       y       z     vdW  Elec       q    Type
REMARK                         _______ _______ _______ _____ _____    ______ ____
ROOT
ATOM      1  C   UNL     1       1.286  -6.091  -2.158  0.00  0.00    +0.250 C 
ATOM      2  O   UNL     1       2.243  -6.685  -1.701  0.00  0.00    -0.270 OA
ATOM      3  N   UNL     1       0.320  -6.769  -2.809  0.00  0.00    -0.261 N 
ATOM      4  C   UNL     1       0.418  -8.144  -2.958  0.00  0.00    +0.165 A 
ATOM      5  N   UNL     1      -0.410  -8.970  -3.559  0.00  0.00    -0.225 NA
ATOM      6  C   UNL     1      -0.108 -10.275  -3.581  0.00  0.00    +0.079 A 
ATOM      7  C   UNL     1       1.066 -10.688  -2.966  0.00  0.00    +0.076 A 
ATOM      8  S   UNL     1       1.704  -9.241  -2.390  0.00  0.00    -0.060 S 
ATOM      9  H   UNL     1      -0.444  -6.295  -3.173  0.00  0.00    +0.157 HD
ENDROOT
BRANCH   6  10
ATOM     10  C   UNL     1      -0.962 -11.205  -4.212  0.00  0.00    +0.007 C 
ATOM     11  C   UNL     1      -2.160 -10.937  -4.868  0.00  0.00    +0.005 A 
ATOM     12  C   UNL     1      -2.870  -9.739  -5.106  0.00  0.00    +0.010 A 
ATOM     13  C   UNL     1      -4.041  -9.776  -5.792  0.00  0.00    +0.001 A 
ATOM     14  C   UNL     1      -4.570 -10.975  -6.273  0.00  0.00    +0.002 A 
ATOM     15  C   UNL     1      -3.943 -12.162  -6.082  0.00  0.00    +0.026 A 
ATOM     16  C   UNL     1      -2.713 -12.204  -5.374  0.00  0.00    +0.043 A 
ATOM     17  N   UNL     1      -1.921 -13.210  -5.061  0.00  0.00    -0.380 N 
ATOM     18  C   UNL     1      -0.763 -12.701  -4.321  0.00  0.00    +0.151 C 
ATOM     19  H   UNL     1      -2.078 -14.140  -5.288  0.00  0.00    +0.160 HD
ENDBRANCH   6  10
BRANCH   1  23
ATOM     20  C   UNL     1       0.984  -1.879  -1.702  0.00  0.00    -0.027 A 
ATOM     21  C   UNL     1       2.075  -2.552  -1.181  0.00  0.00    +0.006 A 
ATOM     22  C   UNL     1       2.179  -3.920  -1.325  0.00  0.00    +0.013 A 
ATOM     23  C   UNL     1       1.181  -4.625  -1.999  0.00  0.00    +0.037 A 
ATOM     24  C   UNL     1       0.083  -3.940  -2.522  0.00  0.00    +0.013 A 
ATOM     25  C   UNL     1      -0.012  -2.573  -2.366  0.00  0.00    +0.006 A 
BRANCH  20  26
ATOM     26  C   UNL     1       0.877  -0.385  -1.541  0.00  0.00    +0.200 C 
BRANCH  26  28
ATOM     27  C   UNL     1      -0.022   1.810   0.012  0.00  0.00    +0.194 C 
ATOM     28  S   UNL     1       0.002  -0.004   0.002  0.00  0.00    -0.030 S 
ATOM     29  O   UNL     1       0.798  -0.449   1.092  0.00  0.00    -0.174 OA
ATOM     30  O   UNL     1      -1.335  -0.471  -0.113  0.00  0.00    -0.174 OA
ENDBRANCH  26  28
ENDBRANCH  20  26
ENDBRANCH   1  23
TORSDOF 4
