REMARK  Name = ZINC20479187
REMARK  11 active torsions:
REMARK  status: ('A' for Active; 'I' for Inactive)
REMARK    1  A    between atoms: C_1  and  C_2
REMARK    2  A    between atoms: C_5  and  C_9
REMARK    3  A    between atoms: C_6  and  C_8
REMARK    4  A    between atoms: C_9  and  N_10
REMARK    5  A    between atoms: N_13  and  C_16
REMARK    6  A    between atoms: C_16  and  C_17
REMARK    7  A    between atoms: C_17  and  C_19
REMARK    8  A    between atoms: C_17  and  O_37
REMARK    9  A    between atoms: C_19  and  N_20
REMARK   10  A    between atoms: C_29  and  C_35
REMARK   11  A    between atoms: C_30  and  C_34
REMARK                            x       y       z     vdW  Elec       q    Type
REMARK                         _______ _______ _______ _____ _____    ______ ____
ROOT
ATOM      1  C   UNL     1       4.684   4.619  -0.964  0.00  0.00    +0.148 C 
ENDROOT
BRANCH   1   2
ATOM      2  O   UNL     1       3.773   3.637  -1.460  0.00  0.00    -0.389 OA
ATOM      3  H   UNL     1       2.690   3.825  -1.430  0.00  0.00    +0.210 HD
ENDBRANCH   1   2
BRANCH   1   4
ATOM      4  C   UNL     1       6.118   4.111  -1.122  0.00  0.00    +0.117 C 
BRANCH   4   8
ATOM      5  N   UNL     1       8.005   4.035  -4.901  0.00  0.00    +0.384 N 
ATOM      6  C   UNL     1       6.854   4.931  -4.724  0.00  0.00    -0.063 C 
ATOM      7  C   UNL     1       6.633   5.184  -3.231  0.00  0.00    +0.066 C 
ATOM      8  N   UNL     1       6.409   3.903  -2.547  0.00  0.00    -0.303 NA
ATOM      9  C   UNL     1       7.561   3.007  -2.724  0.00  0.00    +0.066 C 
ATOM     10  C   UNL     1       7.782   2.753  -4.217  0.00  0.00    -0.063 C 
ATOM     11  H   UNL     1       8.883   4.515  -4.445  0.00  0.00    -0.081 HD
BRANCH   5  12
ATOM     12  C   UNL     1       8.296   3.827  -6.326  0.00  0.00    -0.043 C 
BRANCH  12  17
ATOM     13  C   UNL     1      12.609   0.020  -6.877  0.00  0.00    +0.044 C 
ATOM     14  C   UNL     1      11.484   1.013  -6.732  0.00  0.00    -0.050 A 
ATOM     15  C   UNL     1      10.193   0.647  -7.064  0.00  0.00    +0.003 A 
ATOM     16  C   UNL     1       9.161   1.558  -6.932  0.00  0.00    +0.002 A 
ATOM     17  C   UNL     1       9.421   2.834  -6.469  0.00  0.00    -0.061 A 
ATOM     18  C   UNL     1      10.713   3.201  -6.143  0.00  0.00    -0.049 A 
ATOM     19  C   UNL     1      11.743   2.289  -6.269  0.00  0.00    +0.007 A 
ATOM     20  C   UNL     1      10.996   4.595  -5.644  0.00  0.00    +0.044 C 
ENDBRANCH  12  17
ENDBRANCH   5  12
ENDBRANCH   4   8
ENDBRANCH   1   4
BRANCH   1  21
ATOM     21  C   UNL     1       4.396   4.880   0.516  0.00  0.00    +0.156 C 
BRANCH  21  22
ATOM     22  N   UNL     1       3.022   5.366   0.668  0.00  0.00    -0.322 N 
ATOM     23  C   UNL     1       1.897   4.576   0.868  0.00  0.00    +0.068 A 
ATOM     24  C   UNL     1       1.710   3.205   0.980  0.00  0.00    +0.028 A 
ATOM     25  C   UNL     1       0.443   2.698   1.180  0.00  0.00    +0.002 A 
ATOM     26  C   UNL     1      -0.646   3.551   1.264  0.00  0.00    +0.002 A 
ATOM     27  C   UNL     1      -0.470   4.916   1.160  0.00  0.00    +0.028 A 
ATOM     28  C   UNL     1       0.801   5.436   0.958  0.00  0.00    +0.075 A 
ATOM     29  N   UNL     1       1.282   6.736   0.811  0.00  0.00    -0.260 N 
ATOM     30  C   UNL     1       2.628   6.673   0.637  0.00  0.00    +0.140 A 
ATOM     31  C   UNL     1       3.368   7.852   0.464  0.00  0.00    +0.096 A 
ATOM     32  C   UNL     1       2.704   9.093   0.473  0.00  0.00    -0.024 A 
ATOM     33  C   UNL     1       1.351   9.121   0.650  0.00  0.00    +0.075 A 
ATOM     34  C   UNL     1       0.645   7.924   0.820  0.00  0.00    +0.258 A 
ATOM     35  O   UNL     1      -0.565   7.957   0.979  0.00  0.00    -0.267 OA
ATOM     36  C   UNL     1       3.476  10.374   0.290  0.00  0.00    +0.045 C 
BRANCH  31  37
ATOM     37  C   UNL     1       4.787   7.794   0.280  0.00  0.00    +0.103 C 
ATOM     38  N   UNL     1       5.913   7.748   0.134  0.00  0.00    -0.191 NA
ENDBRANCH  31  37
ENDBRANCH  21  22
ENDBRANCH   1  21
TORSDOF 8
