REMARK  Name = ZINC39295573
REMARK  3 active torsions:
REMARK  status: ('A' for Active; 'I' for Inactive)
REMARK    1  A    between atoms: C_1  and  C_2
REMARK    2  A    between atoms: C_14  and  C_23
REMARK    3  A    between atoms: N_16  and  C_17
REMARK                            x       y       z     vdW  Elec       q    Type
REMARK                         _______ _______ _______ _____ _____    ______ ____
ROOT
ATOM      1  C   UNL     1      -0.240   1.690   0.177  0.00  0.00    +0.041 C 
ATOM      2  C   UNL     1      -0.114   0.187  -0.078  0.00  0.00    +0.109 C 
ATOM      3  C   UNL     1       0.481   0.080  -1.407  0.00  0.00    +0.005 A 
ATOM      4  C   UNL     1      -0.008  -0.431  -2.608  0.00  0.00    +0.008 A 
ATOM      5  C   UNL     1       0.717  -0.344  -3.773  0.00  0.00    +0.000 A 
ATOM      6  C   UNL     1       1.965   0.252  -3.789  0.00  0.00    +0.002 A 
ATOM      7  C   UNL     1       2.495   0.726  -2.600  0.00  0.00    +0.027 A 
ATOM      8  C   UNL     1       1.790   0.608  -1.437  0.00  0.00    +0.094 A 
ATOM      9  S   UNL     1       2.229   0.923   0.274  0.00  0.00    +0.008 S 
ATOM     10  O   UNL     1       3.544   0.414   0.448  0.00  0.00    -0.169 OA
ATOM     11  O   UNL     1       1.917   2.288   0.520  0.00  0.00    -0.169 OA
ATOM     12  C   UNL     1       0.978  -0.192   1.013  0.00  0.00    +0.216 C 
ATOM     13  C   UNL     1       0.200   0.303   2.193  0.00  0.00    +0.093 C 
ATOM     14  N   UNL     1      -1.079   0.133   1.898  0.00  0.00    -0.181 NA
ATOM     15  N   UNL     1      -1.250  -0.381   0.570  0.00  0.00    -0.212 N 
ENDROOT
BRANCH  15  16
ATOM     16  C   UNL     1      -2.251  -1.207   0.055  0.00  0.00    +0.053 A 
ATOM     17  C   UNL     1      -1.913  -2.315  -0.713  0.00  0.00    +0.025 A 
ATOM     18  C   UNL     1      -2.906  -3.129  -1.221  0.00  0.00    +0.002 A 
ATOM     19  C   UNL     1      -4.235  -2.844  -0.966  0.00  0.00    +0.000 A 
ATOM     20  C   UNL     1      -4.575  -1.742  -0.202  0.00  0.00    +0.002 A 
ATOM     21  C   UNL     1      -3.587  -0.927   0.315  0.00  0.00    +0.025 A 
ENDBRANCH  15  16
BRANCH  13  22
ATOM     22  C   UNL     1       0.750   0.869   3.439  0.00  0.00    -0.000 A 
ATOM     23  C   UNL     1       2.132   0.991   3.604  0.00  0.00    +0.010 A 
ATOM     24  C   UNL     1       2.640   1.520   4.771  0.00  0.00    +0.001 A 
ATOM     25  C   UNL     1       1.784   1.930   5.779  0.00  0.00    +0.000 A 
ATOM     26  C   UNL     1       0.414   1.812   5.622  0.00  0.00    +0.001 A 
ATOM     27  C   UNL     1      -0.108   1.290   4.458  0.00  0.00    +0.010 A 
ENDBRANCH  13  22
TORSDOF 2
