REMARK  Name = ZINC36556734
REMARK  16 active torsions:
REMARK  status: ('A' for Active; 'I' for Inactive)
REMARK    1  A    between atoms: C_1  and  C_2
REMARK    2  A    between atoms: C_2  and  O_3
REMARK    3  A    between atoms: O_3  and  C_4
REMARK    4  A    between atoms: C_4  and  C_6
REMARK    5  A    between atoms: C_8  and  C_34
REMARK    6  A    between atoms: C_10  and  C_29
REMARK    7  A    between atoms: C_12  and  C_27
REMARK    8  A    between atoms: C_12  and  O_28
REMARK    9  A    between atoms: N_15  and  N_16
REMARK   10  A    between atoms: N_16  and  S_17
REMARK   11  A    between atoms: S_17  and  C_20
REMARK   12  A    between atoms: C_23  and  C_26
REMARK   13  A    between atoms: C_29  and  O_31
REMARK   14  A    between atoms: O_31  and  C_32
REMARK   15  A    between atoms: C_32  and  C_33
REMARK   16  A    between atoms: C_37  and  C_40
REMARK                            x       y       z     vdW  Elec       q    Type
REMARK                         _______ _______ _______ _____ _____    ______ ____
ROOT
ATOM      1  C   UNL     1      -2.237  -4.218  -0.898  0.00  0.00    +0.152 C 
ATOM      2  C   UNL     1      -3.409  -4.854  -0.142  0.00  0.00    +0.055 C 
ATOM      3  C   UNL     1      -4.253  -3.754   0.503  0.00  0.00    +0.138 C 
ATOM      4  C   UNL     1      -3.422  -3.006   1.547  0.00  0.00    +0.082 C 
ATOM      5  C   UNL     1      -2.251  -2.301   0.854  0.00  0.00    +0.088 C 
ATOM      6  C   UNL     1      -1.474  -3.324   0.054  0.00  0.00    +0.055 C 
ATOM      7  N   UNL     1      -0.205  -3.433   0.182  0.00  0.00    -0.174 NA
ATOM      8  C   UNL     1      -4.298  -1.968   2.250  0.00  0.00    +0.042 C 
ENDROOT
BRANCH   2   9
ATOM      9  C   UNL     1      -4.259  -5.642  -1.104  0.00  0.00    -0.042 A 
ATOM     10  C   UNL     1      -4.703  -5.056  -2.275  0.00  0.00    +0.004 A 
ATOM     11  C   UNL     1      -5.484  -5.779  -3.157  0.00  0.00    +0.003 A 
ATOM     12  C   UNL     1      -5.819  -7.088  -2.870  0.00  0.00    -0.050 A 
ATOM     13  C   UNL     1      -5.375  -7.675  -1.700  0.00  0.00    +0.003 A 
ATOM     14  C   UNL     1      -4.591  -6.954  -0.819  0.00  0.00    +0.004 A 
ATOM     15  C   UNL     1      -6.671  -7.876  -3.832  0.00  0.00    +0.044 C 
ENDBRANCH   2   9
BRANCH   1  16
ATOM     16  C   UNL     1      -1.325  -5.299  -1.419  0.00  0.00    +0.316 C 
ATOM     17  O   UNL     1      -0.966  -6.191  -0.687  0.00  0.00    -0.250 OA
BRANCH  16  18
ATOM     18  O   UNL     1      -0.910  -5.270  -2.695  0.00  0.00    -0.464 OA
BRANCH  18  20
ATOM     19  C   UNL     1       0.149  -6.236  -4.641  0.00  0.00    +0.048 C 
ATOM     20  C   UNL     1      -0.083  -6.350  -3.133  0.00  0.00    +0.229 C 
ENDBRANCH  18  20
ENDBRANCH  16  18
ENDBRANCH   1  16
BRANCH   7  21
ATOM     21  N   UNL     1       0.471  -2.666   1.140  0.00  0.00    -0.137 N 
ATOM     22  H   UNL     1       0.010  -1.946   1.598  0.00  0.00    +0.197 HD
BRANCH  21  23
ATOM     23  S   UNL     1       2.057  -2.989   1.491  0.00  0.00    +0.086 S 
ATOM     24  O   UNL     1       2.523  -1.913   2.293  0.00  0.00    -0.149 OA
ATOM     25  O   UNL     1       2.110  -4.341   1.924  0.00  0.00    -0.149 OA
BRANCH  23  26
ATOM     26  C   UNL     1       2.952  -2.910  -0.025  0.00  0.00    +0.110 A 
ATOM     27  C   UNL     1       3.189  -4.064  -0.749  0.00  0.00    +0.029 A 
ATOM     28  C   UNL     1       3.891  -4.003  -1.938  0.00  0.00    +0.005 A 
ATOM     29  C   UNL     1       4.355  -2.787  -2.404  0.00  0.00    -0.050 A 
ATOM     30  C   UNL     1       4.118  -1.633  -1.681  0.00  0.00    +0.005 A 
ATOM     31  C   UNL     1       3.412  -1.694  -0.494  0.00  0.00    +0.029 A 
ATOM     32  C   UNL     1       5.122  -2.720  -3.700  0.00  0.00    +0.044 C 
ENDBRANCH  23  26
ENDBRANCH  21  23
ENDBRANCH   7  21
BRANCH   4  33
ATOM     33  O   UNL     1      -2.917  -3.935   2.509  0.00  0.00    -0.388 OA
ATOM     34  H   UNL     1      -2.379  -3.529   3.203  0.00  0.00    +0.210 HD
ENDBRANCH   4  33
BRANCH   3  35
ATOM     35  C   UNL     1      -4.711  -2.787  -0.557  0.00  0.00    +0.314 C 
ATOM     36  O   UNL     1      -3.910  -2.311  -1.327  0.00  0.00    -0.250 OA
BRANCH  35  37
ATOM     37  O   UNL     1      -6.008  -2.453  -0.647  0.00  0.00    -0.465 OA
BRANCH  37  38
ATOM     38  C   UNL     1      -6.371  -1.531  -1.676  0.00  0.00    +0.229 C 
ATOM     39  C   UNL     1      -7.879  -1.274  -1.622  0.00  0.00    +0.048 C 
ENDBRANCH  37  38
ENDBRANCH  35  37
ENDBRANCH   3  35
TORSDOF 11
