REMARK  Name = ZINC35836689
REMARK  6 active torsions:
REMARK  status: ('A' for Active; 'I' for Inactive)
REMARK    1  A    between atoms: C_1  and  C_2
REMARK    2  A    between atoms: C_2  and  C_3
REMARK    3  A    between atoms: C_2  and  N_4
REMARK    4  A    between atoms: N_4  and  C_5
REMARK    5  A    between atoms: N_15  and  C_18
REMARK    6  A    between atoms: C_28  and  C_30
REMARK                            x       y       z     vdW  Elec       q    Type
REMARK                         _______ _______ _______ _____ _____    ______ ____
ROOT
ATOM      1  N   UNL     1       0.635  -0.488   1.250  0.00  0.00    -0.315 N 
ATOM      2  C   UNL     1       0.578   0.967   1.410  0.00  0.00    +0.131 C 
ATOM      3  C   UNL     1       0.010  -1.311   2.173  0.00  0.00    +0.131 A 
ATOM      4  C   UNL     1       0.667  -1.679   3.354  0.00  0.00    +0.029 A 
ATOM      5  C   UNL     1       0.014  -2.491   4.247  0.00  0.00    +0.028 A 
ATOM      6  N   UNL     1      -1.216  -2.911   3.953  0.00  0.00    -0.331 N 
ATOM      7  C   UNL     1      -1.814  -2.551   2.830  0.00  0.00    +0.198 A 
ATOM      8  N   UNL     1      -1.221  -1.756   1.951  0.00  0.00    -0.201 NA
ATOM      9  N   UNL     1      -3.092  -3.011   2.568  0.00  0.00    -0.298 N 
ATOM     10  C   UNL     1      -3.831  -3.781   3.579  0.00  0.00    +0.127 C 
ATOM     11  C   UNL     1      -5.175  -3.088   3.837  0.00  0.00    +0.124 C 
ATOM     12  N   UNL     1      -5.819  -2.815   2.545  0.00  0.00    -0.327 N 
ATOM     13  C   UNL     1      -5.080  -2.045   1.534  0.00  0.00    +0.124 C 
ATOM     14  C   UNL     1      -3.738  -2.733   1.278  0.00  0.00    +0.127 C 
ATOM     15  C   UNL     1       0.618  -2.918   5.557  0.00  0.00    +0.072 C 
ATOM     16  C   UNL     1       2.139  -2.772   5.526  0.00  0.00    +0.114 C 
ATOM     17  N   UNL     1       2.457  -1.443   4.978  0.00  0.00    -0.293 N 
ATOM     18  C   UNL     1       2.066  -1.173   3.590  0.00  0.00    +0.148 C 
ATOM     19  C   UNL     1       3.083  -0.510   5.723  0.00  0.00    +0.248 C 
ATOM     20  O   UNL     1       3.463  -0.782   6.845  0.00  0.00    -0.270 OA
ATOM     21  H   UNL     1      -1.681  -3.492   4.575  0.00  0.00    +0.168 HD
ENDROOT
BRANCH  19  22
ATOM     22  C   UNL     1       3.309   0.844   5.175  0.00  0.00    +0.055 A 
ATOM     23  C   UNL     1       3.961   1.006   3.951  0.00  0.00    +0.014 A 
ATOM     24  C   UNL     1       4.167   2.272   3.446  0.00  0.00    +0.001 A 
ATOM     25  C   UNL     1       3.730   3.382   4.148  0.00  0.00    +0.001 A 
ATOM     26  C   UNL     1       3.084   3.230   5.361  0.00  0.00    +0.021 A 
ATOM     27  C   UNL     1       2.865   1.967   5.877  0.00  0.00    +0.053 A 
ATOM     28 CL   UNL     1       2.047   1.778   7.396  0.00  0.00    -0.083 Cl
ENDBRANCH  19  22
BRANCH  12  29
ATOM     29  C   UNL     1      -7.109  -3.280   2.281  0.00  0.00    +0.030 A 
ATOM     30  C   UNL     1      -7.754  -4.102   3.196  0.00  0.00    +0.023 A 
ATOM     31  C   UNL     1      -9.030  -4.559   2.933  0.00  0.00    +0.002 A 
ATOM     32  C   UNL     1      -9.666  -4.199   1.759  0.00  0.00    +0.000 A 
ATOM     33  C   UNL     1      -9.027  -3.381   0.845  0.00  0.00    +0.002 A 
ATOM     34  C   UNL     1      -7.753  -2.915   1.105  0.00  0.00    +0.023 A 
ENDBRANCH  12  29
BRANCH   1  36
ATOM     35  C   UNL     1       0.726  -0.582  -1.192  0.00  0.00    +0.028 C 
ATOM     36  C   UNL     1       1.352  -1.073   0.115  0.00  0.00    +0.068 C 
ATOM     37  C   UNL     1       2.822  -0.649   0.167  0.00  0.00    +0.028 C 
ENDBRANCH   1  36
TORSDOF 3
