REMARK  Name = ZINC09680072
REMARK  8 active torsions:
REMARK  status: ('A' for Active; 'I' for Inactive)
REMARK    1  A    between atoms: C_1  and  C_2
REMARK    2  A    between atoms: C_2  and  C_3
REMARK    3  A    between atoms: C_6  and  N_9
REMARK    4  A    between atoms: N_9  and  S_10
REMARK    5  A    between atoms: S_10  and  C_13
REMARK    6  A    between atoms: C_21  and  C_25
REMARK    7  A    between atoms: N_27  and  C_28
REMARK    8  A    between atoms: C_34  and  C_36
REMARK                            x       y       z     vdW  Elec       q    Type
REMARK                         _______ _______ _______ _____ _____    ______ ____
ROOT
ATOM      1  C   UNL     1       0.690   2.181   1.337  0.00  0.00    +0.109 A 
ATOM      2  C   UNL     1       1.255   0.917   1.435  0.00  0.00    +0.031 A 
ATOM      3  C   UNL     1       2.447   0.729   2.100  0.00  0.00    +0.028 A 
ATOM      4  C   UNL     1       3.097   1.814   2.683  0.00  0.00    +0.050 A 
ATOM      5  C   UNL     1       2.522   3.092   2.583  0.00  0.00    +0.048 A 
ATOM      6  C   UNL     1       1.315   3.268   1.906  0.00  0.00    +0.042 A 
ATOM      7  C   UNL     1       3.221   4.232   3.205  0.00  0.00    +0.202 A 
ATOM      8  O   UNL     1       2.768   5.362   3.150  0.00  0.00    -0.286 OA
ATOM      9  C   UNL     1       4.488   3.947   3.897  0.00  0.00    +0.100 A 
ATOM     10  C   UNL     1       4.953   2.649   3.929  0.00  0.00    +0.100 A 
ATOM     11  N   UNL     1       4.289   1.639   3.352  0.00  0.00    -0.360 N 
ATOM     12  H   UNL     1       4.664   0.746   3.406  0.00  0.00    +0.165 HD
ENDROOT
BRANCH   9  13
ATOM     13  C   UNL     1       5.247   5.029   4.543  0.00  0.00    +0.249 C 
ATOM     14  O   UNL     1       4.828   6.171   4.509  0.00  0.00    -0.270 OA
ATOM     15  N   UNL     1       6.406   4.756   5.174  0.00  0.00    -0.308 N 
ATOM     16  H   UNL     1       6.740   3.846   5.201  0.00  0.00    +0.149 HD
BRANCH  15  17
ATOM     17  C   UNL     1       7.162   5.834   5.817  0.00  0.00    +0.076 C 
ATOM     18  C   UNL     1       8.056   6.519   4.782  0.00  0.00    +0.022 C 
ATOM     19  C   UNL     1       8.845   7.644   5.454  0.00  0.00    +0.002 C 
ATOM     20  C   UNL     1       9.713   7.061   6.572  0.00  0.00    +0.000 C 
ATOM     21  C   UNL     1       8.818   6.377   7.607  0.00  0.00    +0.005 C 
ATOM     22  C   UNL     1       8.029   5.251   6.935  0.00  0.00    +0.006 C 
ATOM     23  C   UNL     1       7.135   4.566   7.971  0.00  0.00    +0.009 C 
ENDBRANCH  15  17
ENDBRANCH   9  13
BRANCH   1  24
ATOM     24  S   UNL     1      -0.831   2.396   0.474  0.00  0.00    +0.072 S 
ATOM     25  O   UNL     1      -0.817   3.717  -0.051  0.00  0.00    -0.150 OA
ATOM     26  O   UNL     1      -0.997   1.250  -0.350  0.00  0.00    -0.150 OA
BRANCH  24  27
ATOM     27  N   UNL     1      -2.044   2.349   1.600  0.00  0.00    -0.216 N 
ATOM     28  H   UNL     1      -2.605   3.127   1.742  0.00  0.00    +0.174 HD
BRANCH  27  32
ATOM     29  C   UNL     1      -2.686  -1.112   3.825  0.00  0.00    -0.048 A 
ATOM     30  C   UNL     1      -2.074  -0.019   4.411  0.00  0.00    +0.005 A 
ATOM     31  C   UNL     1      -1.859   1.130   3.676  0.00  0.00    +0.025 A 
ATOM     32  C   UNL     1      -2.259   1.188   2.347  0.00  0.00    +0.048 A 
ATOM     33  C   UNL     1      -2.879   0.090   1.763  0.00  0.00    +0.025 A 
ATOM     34  C   UNL     1      -3.085  -1.058   2.502  0.00  0.00    +0.005 A 
BRANCH  29  36
ATOM     35  C   UNL     1      -4.285  -2.286   5.313  0.00  0.00    +0.009 C 
ATOM     36  C   UNL     1      -2.918  -2.365   4.630  0.00  0.00    +0.032 C 
ENDBRANCH  29  36
ENDBRANCH  27  32
ENDBRANCH  24  27
ENDBRANCH   1  24
TORSDOF 6
