REMARK  Name = ZINC35685168
REMARK  6 active torsions:
REMARK  status: ('A' for Active; 'I' for Inactive)
REMARK    1  A    between atoms: C_1  and  C_2
REMARK    2  A    between atoms: C_5  and  C_8
REMARK    3  A    between atoms: C_17  and  C_19
REMARK    4  A    between atoms: N_21  and  C_22
REMARK    5  A    between atoms: C_26  and  C_29
REMARK    6  A    between atoms: C_27  and  C_28
REMARK                            x       y       z     vdW  Elec       q    Type
REMARK                         _______ _______ _______ _____ _____    ______ ____
ROOT
ATOM      1  C   UNL     1       0.040  -4.261  -0.008  0.00  0.00    +0.042 A 
ATOM      2  C   UNL     1      -0.811  -5.107  -0.751  0.00  0.00    +0.144 A 
ATOM      3  N   UNL     1      -0.479  -6.349  -0.500  0.00  0.00    -0.177 NA
ATOM      4  N   UNL     1       0.582  -6.358   0.399  0.00  0.00    -0.237 N 
ATOM      5  C   UNL     1       0.899  -5.068   0.693  0.00  0.00    +0.132 A 
ATOM      6  N   UNL     1       1.929  -4.740   1.569  0.00  0.00    -0.270 N 
ATOM      7  C   UNL     1       2.802  -5.717   1.903  0.00  0.00    +0.221 C 
ATOM      8  O   UNL     1       3.647  -5.496   2.744  0.00  0.00    -0.275 OA
ATOM      9  C   UNL     1       2.748  -7.072   1.254  0.00  0.00    +0.132 C 
ATOM     10  C   UNL     1       1.300  -7.497   0.977  0.00  0.00    +0.204 C 
ATOM     11  H   UNL     1       2.018  -3.842   1.927  0.00  0.00    +0.156 HD
ENDROOT
BRANCH   1  16
ATOM     12  C   UNL     1      -0.061   1.496   0.048  0.00  0.00    +0.044 C 
ATOM     13  C   UNL     1      -0.034  -0.010   0.033  0.00  0.00    -0.050 A 
ATOM     14  C   UNL     1      -0.021  -0.688  -1.173  0.00  0.00    +0.004 A 
ATOM     15  C   UNL     1       0.003  -2.067  -1.192  0.00  0.00    +0.009 A 
ATOM     16  C   UNL     1       0.015  -2.778   0.006  0.00  0.00    -0.013 A 
ATOM     17  C   UNL     1       0.002  -2.091   1.219  0.00  0.00    +0.009 A 
ATOM     18  C   UNL     1      -0.018  -0.711   1.226  0.00  0.00    +0.004 A 
ENDBRANCH   1  16
BRANCH  10  19
ATOM     19  C   UNL     1       1.298  -8.643  -0.001  0.00  0.00    +0.242 C 
ATOM     20  O   UNL     1       0.751  -8.523  -1.076  0.00  0.00    -0.273 OA
ATOM     21  N   UNL     1       1.905  -9.803   0.320  0.00  0.00    -0.283 N 
ATOM     22  H   UNL     1       2.411  -9.874   1.145  0.00  0.00    +0.155 HD
BRANCH  21  23
ATOM     23  C   UNL     1       1.806 -10.905  -0.536  0.00  0.00    +0.037 A 
ATOM     24  C   UNL     1       0.728 -11.016  -1.405  0.00  0.00    +0.023 A 
ATOM     25  C   UNL     1       0.633 -12.105  -2.249  0.00  0.00    +0.002 A 
ATOM     26  C   UNL     1       1.609 -13.085  -2.230  0.00  0.00    +0.004 A 
ATOM     27  C   UNL     1       2.683 -12.977  -1.366  0.00  0.00    -0.046 A 
ATOM     28  C   UNL     1       2.788 -11.887  -0.523  0.00  0.00    -0.026 A 
ATOM     29  C   UNL     1       3.962 -11.767   0.413  0.00  0.00    +0.046 C 
ATOM     30  C   UNL     1       3.745 -14.047  -1.347  0.00  0.00    +0.044 C 
ENDBRANCH  21  23
ENDBRANCH  10  19
TORSDOF 3
