REMARK  Name = ZINC20805721
REMARK  7 active torsions:
REMARK  status: ('A' for Active; 'I' for Inactive)
REMARK    1  A    between atoms: C_10  and  C_11
REMARK    2  A    between atoms: N_12  and  N_13
REMARK    3  A    between atoms: C_17  and  S_20
REMARK    4  A    between atoms: N_18  and  N_19
REMARK    5  A    between atoms: S_20  and  C_21
REMARK    6  A    between atoms: C_21  and  C_22
REMARK    7  A    between atoms: N_24  and  C_25
REMARK                            x       y       z     vdW  Elec       q    Type
REMARK                         _______ _______ _______ _____ _____    ______ ____
ROOT
ATOM      1  N   UNL     1       8.829  -7.601   0.592  0.00  0.00    -0.204 N 
ATOM      2  C   UNL     1       8.050  -6.459   0.480  0.00  0.00    +0.254 A 
ATOM      3  N   UNL     1       8.494  -5.228   0.400  0.00  0.00    -0.109 NA
ATOM      4  N   UNL     1       7.388  -4.375   0.294  0.00  0.00    -0.119 NA
ATOM      5  C   UNL     1       6.303  -5.113   0.321  0.00  0.00    +0.210 A 
ATOM      6  N   UNL     1       6.684  -6.420   0.433  0.00  0.00    -0.211 N 
ATOM      7  H   UNL     1       8.351  -8.590   0.652  0.00  0.00    +0.177 HD
ENDROOT
BRANCH   6   8
ATOM      8  N   UNL     1       5.847  -7.498   0.489  0.00  0.00    -0.294 N 
ATOM      9  H   UNL     1       4.758  -7.351   0.443  0.00  0.00    +0.163 HD
ATOM     10  H   UNL     1       6.263  -8.512   0.581  0.00  0.00    +0.163 HD
ENDBRANCH   6   8
BRANCH   1  12
ATOM     11  C   UNL     1      10.956  -8.566   0.734  0.00  0.00    +0.139 C 
ATOM     12  N   UNL     1      10.226  -7.496   0.629  0.00  0.00    -0.187 NA
BRANCH  11  22
ATOM     13  C   UNL     1      14.362  -4.697   0.907  0.00  0.00    +0.001 A 
ATOM     14  C   UNL     1      12.971  -4.761   0.871  0.00  0.00    +0.001 A 
ATOM     15  C   UNL     1      12.326  -5.961   0.827  0.00  0.00    +0.009 A 
ATOM     16  C   UNL     1      13.071  -7.146   0.819  0.00  0.00    -0.009 A 
ATOM     17  C   UNL     1      14.485  -7.085   0.856  0.00  0.00    -0.017 A 
ATOM     18  C   UNL     1      15.117  -5.830   0.900  0.00  0.00    +0.008 A 
ATOM     19  C   UNL     1      15.229  -8.277   0.846  0.00  0.00    +0.008 A 
ATOM     20  C   UNL     1      14.604  -9.486   0.801  0.00  0.00    +0.001 A 
ATOM     21  C   UNL     1      13.220  -9.594   0.772  0.00  0.00    +0.010 A 
ATOM     22  C   UNL     1      12.422  -8.456   0.773  0.00  0.00    +0.002 A 
ENDBRANCH  11  22
ENDBRANCH   1  12
BRANCH   5  23
ATOM     23  S   UNL     1       4.646  -4.522   0.222  0.00  0.00    -0.075 S 
BRANCH  23  24
ATOM     24  C   UNL     1       4.954  -2.743   0.096  0.00  0.00    +0.173 C 
BRANCH  24  25
ATOM     25  C   UNL     1       3.640  -2.011  -0.003  0.00  0.00    +0.227 C 
ATOM     26  O   UNL     1       2.598  -2.632   0.011  0.00  0.00    -0.275 OA
ATOM     27  N   UNL     1       3.623  -0.667  -0.106  0.00  0.00    -0.285 N 
ATOM     28  H   UNL     1       4.567  -0.111  -0.206  0.00  0.00    +0.155 HD
BRANCH  27  29
ATOM     29  C   UNL     1       2.403   0.021  -0.086  0.00  0.00    +0.037 A 
ATOM     30  C   UNL     1       1.346  -0.460   0.674  0.00  0.00    +0.027 A 
ATOM     31  C   UNL     1       0.143   0.217   0.693  0.00  0.00    +0.051 A 
ATOM     32  C   UNL     1      -0.014   1.381  -0.047  0.00  0.00    +0.162 A 
ATOM     33  C   UNL     1       1.044   1.867  -0.806  0.00  0.00    +0.164 A 
ATOM     34  C   UNL     1       2.251   1.185  -0.827  0.00  0.00    +0.072 A 
ATOM     35  O   UNL     1       0.912   3.011  -1.532  0.00  0.00    -0.485 OA
ATOM     36  C   UNL     1      -0.423   3.463  -1.785  0.00  0.00    +0.270 C 
ATOM     37  C   UNL     1      -1.212   3.391  -0.471  0.00  0.00    +0.270 C 
ATOM     38  O   UNL     1      -1.210   2.031  -0.022  0.00  0.00    -0.485 OA
ENDBRANCH  27  29
ENDBRANCH  24  25
ENDBRANCH  23  24
ENDBRANCH   5  23
TORSDOF 7
