REMARK  Name = ZINC33012034
REMARK  11 active torsions:
REMARK  status: ('A' for Active; 'I' for Inactive)
REMARK    1  A    between atoms: C_1  and  C_2
REMARK    2  A    between atoms: C_5  and  N_14
REMARK    3  A    between atoms: N_6  and  C_8
REMARK    4  A    between atoms: N_21  and  C_23
REMARK    5  A    between atoms: C_23  and  C_24
REMARK    6  A    between atoms: C_24  and  C_25
REMARK    7  A    between atoms: C_25  and  C_26
REMARK    8  A    between atoms: N_28  and  C_29
REMARK    9  A    between atoms: C_29  and  C_30
REMARK   10  A    between atoms: C_33  and  S_36
REMARK   11  A    between atoms: S_36  and  C_37
REMARK                            x       y       z     vdW  Elec       q    Type
REMARK                         _______ _______ _______ _____ _____    ______ ____
ROOT
ATOM      1  C   UNL     1       3.075   3.765  -0.007  0.00  0.00    +0.070 C 
ATOM      2  C   UNL     1       1.656   3.258   0.004  0.00  0.00    +0.086 A 
ATOM      3  C   UNL     1       1.391   1.815  -0.002  0.00  0.00    +0.123 A 
ATOM      4  C   UNL     1      -0.017   1.378   0.010  0.00  0.00    +0.112 A 
ATOM      5  C   UNL     1       0.002  -0.004   0.002  0.00  0.00    +0.154 A 
ATOM      6  N   UNL     1       1.294  -0.394  -0.012  0.00  0.00    -0.215 N 
ATOM      7  N   UNL     1       2.128   0.731  -0.014  0.00  0.00    -0.162 NA
ATOM      8  C   UNL     1      -1.050   2.412   0.030  0.00  0.00    +0.280 A 
ATOM      9  O   UNL     1      -2.230   2.110   0.046  0.00  0.00    -0.265 OA
ATOM     10  N   UNL     1      -0.672   3.707   0.029  0.00  0.00    -0.229 N 
ATOM     11  N   UNL     1       0.665   4.096   0.018  0.00  0.00    -0.171 NA
ENDROOT
BRANCH   6  12
ATOM     12  C   UNL     1       1.735  -1.723  -0.024  0.00  0.00    +0.068 A 
ATOM     13  C   UNL     1       1.029  -2.696   0.671  0.00  0.00    +0.028 A 
ATOM     14  C   UNL     1       1.463  -4.007   0.653  0.00  0.00    +0.002 A 
ATOM     15  C   UNL     1       2.606  -4.349  -0.047  0.00  0.00    +0.000 A 
ATOM     16  C   UNL     1       3.314  -3.381  -0.736  0.00  0.00    +0.002 A 
ATOM     17  C   UNL     1       2.882  -2.070  -0.726  0.00  0.00    +0.028 A 
ENDBRANCH   6  12
BRANCH   5  18
ATOM     18  N   UNL     1      -1.108  -0.841   0.008  0.00  0.00    -0.307 N 
ATOM     19  C   UNL     1      -2.208  -0.702   0.808  0.00  0.00    +0.092 A 
ATOM     20  C   UNL     1      -3.067  -1.699   0.520  0.00  0.00    +0.019 A 
ATOM     21  C   UNL     1      -2.477  -2.490  -0.487  0.00  0.00    +0.019 A 
ATOM     22  C   UNL     1      -1.280  -1.944  -0.782  0.00  0.00    +0.092 A 
ENDBRANCH   5  18
BRANCH  10  23
ATOM     23  C   UNL     1      -1.707   4.743   0.045  0.00  0.00    +0.148 C 
BRANCH  23  24
ATOM     24  C   UNL     1      -2.054   5.095   1.493  0.00  0.00    +0.033 C 
BRANCH  24  25
ATOM     25  C   UNL     1      -3.135   6.177   1.510  0.00  0.00    +0.097 C 
BRANCH  25  26
ATOM     26  C   UNL     1      -3.477   6.525   2.936  0.00  0.00    +0.213 C 
ATOM     27  O   UNL     1      -2.911   5.962   3.849  0.00  0.00    -0.276 OA
ATOM     28  N   UNL     1      -4.411   7.460   3.196  0.00  0.00    -0.311 N 
ATOM     29  H   UNL     1      -4.925   7.971   2.368  0.00  0.00    +0.149 HD
BRANCH  28  30
ATOM     30  C   UNL     1      -4.743   7.798   4.583  0.00  0.00    +0.139 C 
BRANCH  30  31
ATOM     31  C   UNL     1      -5.808   8.864   4.599  0.00  0.00    -0.030 A 
ATOM     32  C   UNL     1      -5.448  10.199   4.609  0.00  0.00    +0.006 A 
ATOM     33  C   UNL     1      -6.421  11.178   4.618  0.00  0.00    +0.015 A 
ATOM     34  C   UNL     1      -7.764  10.821   4.629  0.00  0.00    +0.008 A 
ATOM     35  C   UNL     1      -8.122   9.478   4.625  0.00  0.00    +0.015 A 
ATOM     36  C   UNL     1      -7.144   8.504   4.610  0.00  0.00    +0.006 A 
BRANCH  34  37
ATOM     37  S   UNL     1      -9.010  12.067   4.648  0.00  0.00    -0.129 S 
ATOM     38  C   UNL     1      -8.075  13.622   4.648  0.00  0.00    +0.090 C 
ENDBRANCH  34  37
ENDBRANCH  30  31
ENDBRANCH  28  30
ENDBRANCH  25  26
ENDBRANCH  24  25
ENDBRANCH  23  24
ENDBRANCH  10  23
TORSDOF 9
