REMARK  Name = ZINC57340691
REMARK  1 active torsions:
REMARK  status: ('A' for Active; 'I' for Inactive)
REMARK    1  A    between atoms: C_1  and  C_2
REMARK                            x       y       z     vdW  Elec       q    Type
REMARK                         _______ _______ _______ _____ _____    ______ ____
ROOT
ATOM      1  C   UNL     1      -0.019   1.526   0.010  0.00  0.00    +0.008 C 
ATOM      2  C   UNL     1       0.002  -0.004   0.002  0.00  0.00    -0.009 C 
ATOM      3  C   UNL     1      -1.434  -0.537   0.019  0.00  0.00    +0.008 C 
ATOM      4  C   UNL     1      -1.432  -2.046  -0.236  0.00  0.00    +0.037 C 
ATOM      5  C   UNL     1      -0.465  -2.704   0.738  0.00  0.00    -0.023 A 
ATOM      6  C   UNL     1       0.482  -1.986   1.377  0.00  0.00    -0.004 A 
ATOM      7  S   UNL     1       1.341  -3.164   2.381  0.00  0.00    -0.077 S 
ATOM      8  C   UNL     1       0.491  -4.536   1.985  0.00  0.00    +0.091 A 
ATOM      9  C   UNL     1      -0.475  -4.127   1.060  0.00  0.00    +0.070 A 
ATOM     10  C   UNL     1      -1.405  -5.116   0.476  0.00  0.00    +0.259 C 
ATOM     11  O   UNL     1      -2.082  -4.816  -0.490  0.00  0.00    -0.269 OA
ATOM     12  N   UNL     1      -1.505  -6.345   1.008  0.00  0.00    -0.215 N 
ATOM     13  S   UNL     1      -0.737  -6.781   2.405  0.00  0.00    +0.207 S 
ATOM     14  O   UNL     1      -1.554  -6.234   3.431  0.00  0.00    -0.216 OA
ATOM     15  N   UNL     1       0.631  -5.831   2.429  0.00  0.00    -0.242 N 
ATOM     16  C   UNL     1       0.739  -0.515   1.248  0.00  0.00    +0.046 C 
ATOM     17  H   UNL     1      -2.052  -7.005   0.553  0.00  0.00    +0.167 HD
ATOM     18  H   UNL     1       1.483  -6.173   2.741  0.00  0.00    +0.164 HD
ENDROOT
TORSDOF 0
