REMARK  Name = ZINC00531097
REMARK  7 active torsions:
REMARK  status: ('A' for Active; 'I' for Inactive)
REMARK    1  A    between atoms: C_1  and  C_2
REMARK    2  A    between atoms: C_5  and  C_9
REMARK    3  A    between atoms: C_7  and  C_8
REMARK    4  A    between atoms: C_9  and  S_10
REMARK    5  A    between atoms: S_10  and  C_11
REMARK    6  A    between atoms: C_14  and  C_17
REMARK    7  A    between atoms: N_15  and  C_16
REMARK                            x       y       z     vdW  Elec       q    Type
REMARK                         _______ _______ _______ _____ _____    ______ ____
ROOT
ATOM      1  C   UNL     1       0.607  -4.233  -0.028  0.00  0.00    +0.192 A 
ATOM      2  N   UNL     1       1.919  -4.128  -0.039  0.00  0.00    -0.122 NA
ATOM      3  N   UNL     1       2.262  -2.890  -0.035  0.00  0.00    -0.127 NA
ATOM      4  C   UNL     1       1.192  -2.128  -0.021  0.00  0.00    +0.184 A 
ATOM      5  N   UNL     1       0.100  -2.967  -0.010  0.00  0.00    -0.304 N 
ATOM      6  C   UNL     1      -1.312  -2.579   0.013  0.00  0.00    +0.153 C 
ENDROOT
BRANCH   4   7
ATOM      7  C   UNL     1       1.165  -0.651  -0.013  0.00  0.00    +0.126 A 
ATOM      8  C   UNL     1       2.361   0.072  -0.020  0.00  0.00    +0.142 A 
ATOM      9  N   UNL     1       2.330   1.391  -0.013  0.00  0.00    -0.260 NA
ATOM     10  C   UNL     1       1.171   2.028   0.002  0.00  0.00    +0.130 A 
ATOM     11  C   UNL     1      -0.016   1.316   0.009  0.00  0.00    +0.131 A 
ATOM     12  N   UNL     1       0.002  -0.004   0.002  0.00  0.00    -0.249 NA
ENDBRANCH   4   7
BRANCH   1  13
ATOM     13  S   UNL     1      -0.321  -5.731  -0.028  0.00  0.00    -0.081 S 
BRANCH  13  14
ATOM     14  C   UNL     1       1.028  -6.937  -0.046  0.00  0.00    +0.112 C 
BRANCH  14  19
ATOM     15  C   UNL     1      -1.166 -12.283  -0.055  0.00  0.00    +0.044 C 
ATOM     16  C   UNL     1      -0.594 -10.889  -0.052  0.00  0.00    -0.048 A 
ATOM     17  C   UNL     1      -0.320 -10.256   1.146  0.00  0.00    +0.004 A 
ATOM     18  C   UNL     1       0.210  -8.979   1.148  0.00  0.00    +0.005 A 
ATOM     19  C   UNL     1       0.456  -8.331  -0.049  0.00  0.00    -0.037 A 
ATOM     20  C   UNL     1       0.182  -8.964  -1.246  0.00  0.00    +0.008 A 
ATOM     21  C   UNL     1      -0.342 -10.243  -1.248  0.00  0.00    -0.047 A 
ATOM     22  C   UNL     1      -0.641 -10.933  -2.554  0.00  0.00    +0.044 C 
ENDBRANCH  14  19
ENDBRANCH  13  14
ENDBRANCH   1  13
TORSDOF 4
