REMARK  Name = ZINC45726401
REMARK  17 active torsions:
REMARK  status: ('A' for Active; 'I' for Inactive)
REMARK    1  A    between atoms: C_1  and  C_2
REMARK    2  A    between atoms: C_2  and  N_3
REMARK    3  A    between atoms: N_3  and  C_4
REMARK    4  A    between atoms: N_3  and  C_6
REMARK    5  A    between atoms: C_4  and  C_5
REMARK    6  A    between atoms: C_9  and  S_27
REMARK    7  A    between atoms: C_11  and  N_12
REMARK    8  A    between atoms: C_13  and  C_15
REMARK    9  A    between atoms: C_15  and  C_16
REMARK   10  A    between atoms: C_16  and  C_18
REMARK   11  A    between atoms: C_16  and  N_23
REMARK   12  A    between atoms: C_24  and  C_26
REMARK   13  A    between atoms: S_27  and  N_30
REMARK   14  A    between atoms: N_30  and  C_31
REMARK   15  A    between atoms: N_30  and  C_33
REMARK   16  A    between atoms: C_31  and  C_32
REMARK   17  A    between atoms: C_33  and  C_34
REMARK                            x       y       z     vdW  Elec       q    Type
REMARK                         _______ _______ _______ _____ _____    ______ ____
ROOT
ATOM      1  C   UNL     1      -2.010  -0.757   1.243  0.00  0.00    +0.051 A 
ATOM      2  C   UNL     1      -2.743   0.243   1.863  0.00  0.00    +0.027 A 
ATOM      3  C   UNL     1      -3.372  -0.007   3.068  0.00  0.00    +0.030 A 
ATOM      4  C   UNL     1      -3.274  -1.254   3.658  0.00  0.00    +0.107 A 
ATOM      5  C   UNL     1      -2.545  -2.257   3.047  0.00  0.00    +0.053 A 
ATOM      6  C   UNL     1      -1.914  -2.016   1.835  0.00  0.00    +0.057 A 
ENDROOT
BRANCH   6   7
ATOM      7  N   UNL     1      -1.180  -3.033   1.211  0.00  0.00    -0.284 N 
ATOM      8  C   UNL     1      -1.464  -4.325   1.469  0.00  0.00    +0.219 C 
ATOM      9  O   UNL     1      -2.418  -4.610   2.161  0.00  0.00    -0.275 OA
ATOM     10  H   UNL     1      -0.467  -2.807   0.594  0.00  0.00    +0.155 HD
BRANCH   8  11
ATOM     11  C   UNL     1      -0.596  -5.416   0.896  0.00  0.00    +0.123 C 
BRANCH  11  12
ATOM     12  C   UNL     1      -1.134  -6.779   1.337  0.00  0.00    +0.118 C 
BRANCH  12  13
ATOM     13  C   UNL     1      -0.198  -7.864   0.869  0.00  0.00    +0.010 A 
ATOM     14  C   UNL     1       0.753  -8.531   1.567  0.00  0.00    +0.013 A 
ATOM     15  C   UNL     1       1.501  -9.499   0.923  0.00  0.00    +0.008 A 
ATOM     16  C   UNL     1       1.262  -9.752  -0.387  0.00  0.00    +0.045 A 
ATOM     17  S   UNL     1      -0.060  -8.608  -0.748  0.00  0.00    -0.100 S 
ENDBRANCH  12  13
BRANCH  12  18
ATOM     18  N   UNL     1      -2.461  -6.993   0.754  0.00  0.00    -0.308 N 
ATOM     19  C   UNL     1      -2.615  -7.000  -0.585  0.00  0.00    +0.210 C 
ATOM     20  O   UNL     1      -1.656  -6.829  -1.307  0.00  0.00    -0.276 OA
ATOM     21  C   UNL     1      -3.980  -7.220  -1.185  0.00  0.00    +0.109 C 
ATOM     22  H   UNL     1      -3.228  -7.130   1.332  0.00  0.00    +0.149 HD
ENDBRANCH  12  18
ENDBRANCH  11  12
ENDBRANCH   8  11
ENDBRANCH   6   7
BRANCH   4  23
ATOM     23  S   UNL     1      -4.079  -1.564   5.194  0.00  0.00    +0.061 S 
ATOM     24  O   UNL     1      -3.383  -2.641   5.807  0.00  0.00    -0.153 OA
ATOM     25  O   UNL     1      -4.242  -0.304   5.829  0.00  0.00    -0.153 OA
BRANCH  23  26
ATOM     26  N   UNL     1      -5.599  -2.120   4.847  0.00  0.00    -0.177 NA
BRANCH  26  27
ATOM     27  C   UNL     1      -5.834  -3.557   4.681  0.00  0.00    +0.106 C 
ATOM     28  C   UNL     1      -6.316  -4.151   6.006  0.00  0.00    +0.022 C 
ENDBRANCH  26  27
BRANCH  26  29
ATOM     29  C   UNL     1      -6.710  -1.175   4.704  0.00  0.00    +0.106 C 
ATOM     30  C   UNL     1      -6.896  -0.826   3.226  0.00  0.00    +0.022 C 
ENDBRANCH  26  29
ENDBRANCH  23  26
ENDBRANCH   4  23
BRANCH   1  31
ATOM     31  N   UNL     1      -1.372  -0.506   0.023  0.00  0.00    -0.329 N 
BRANCH  31  33
ATOM     32  C   UNL     1      -0.012   1.526   0.020  0.00  0.00    +0.024 C 
ATOM     33  C   UNL     1       0.004  -0.003   0.005  0.00  0.00    +0.102 C 
ENDBRANCH  31  33
BRANCH  31  34
ATOM     34  C   UNL     1      -2.080  -0.746  -1.237  0.00  0.00    +0.102 C 
ATOM     35  C   UNL     1      -1.832  -2.184  -1.696  0.00  0.00    +0.024 C 
ENDBRANCH  31  34
ENDBRANCH   1  31
TORSDOF 12
