REMARK  Name = ZINC45724536
REMARK  8 active torsions:
REMARK  status: ('A' for Active; 'I' for Inactive)
REMARK    1  A    between atoms: C_1  and  C_2
REMARK    2  A    between atoms: C_2  and  C_3
REMARK    3  A    between atoms: C_2  and  C_4
REMARK    4  A    between atoms: C_4  and  C_6
REMARK    5  A    between atoms: C_4  and  N_13
REMARK    6  A    between atoms: N_16  and  C_17
REMARK    7  A    between atoms: C_22  and  C_23
REMARK    8  A    between atoms: C_23  and  C_24
REMARK                            x       y       z     vdW  Elec       q    Type
REMARK                         _______ _______ _______ _____ _____    ______ ____
ROOT
ATOM      1  N   UNL     1       0.770  -1.976   1.248  0.00  0.00    -0.292 N 
ATOM      2  C   UNL     1      -0.280  -2.667   1.736  0.00  0.00    +0.304 C 
ATOM      3  O   UNL     1      -1.241  -2.074   2.187  0.00  0.00    -0.252 OA
ATOM      4  N   UNL     1      -0.264  -4.014   1.726  0.00  0.00    -0.269 N 
ATOM      5  H   UNL     1       1.537  -2.449   0.889  0.00  0.00    +0.151 HD
ATOM      6  H   UNL     1       0.465  -4.487   1.294  0.00  0.00    +0.156 HD
ENDROOT
BRANCH   4   7
ATOM      7  C   UNL     1      -1.298  -4.731   2.338  0.00  0.00    +0.038 A 
ATOM      8  C   UNL     1      -2.036  -4.152   3.361  0.00  0.00    +0.023 A 
ATOM      9  C   UNL     1      -3.056  -4.862   3.963  0.00  0.00    +0.002 A 
ATOM     10  C   UNL     1      -3.343  -6.149   3.547  0.00  0.00    +0.000 A 
ATOM     11  C   UNL     1      -2.610  -6.729   2.529  0.00  0.00    +0.006 A 
ATOM     12  C   UNL     1      -1.592  -6.022   1.919  0.00  0.00    -0.017 A 
BRANCH  12  13
ATOM     13  C   UNL     1      -0.798  -6.653   0.804  0.00  0.00    +0.132 C 
BRANCH  13  14
ATOM     14  C   UNL     1       0.453  -7.277   1.369  0.00  0.00    +0.215 C 
ATOM     15  O   UNL     1       0.676  -7.215   2.560  0.00  0.00    -0.276 OA
ATOM     16  N   UNL     1       1.322  -7.903   0.552  0.00  0.00    -0.329 N 
ATOM     17  H   UNL     1       1.143  -7.952  -0.400  0.00  0.00    +0.145 HD
ATOM     18  H   UNL     1       2.127  -8.304   0.915  0.00  0.00    +0.145 HD
ENDBRANCH  13  14
ENDBRANCH  12  13
ENDBRANCH   4   7
BRANCH   1  19
ATOM     19  C   UNL     1       0.752  -0.511   1.260  0.00  0.00    +0.107 C 
BRANCH  19  20
ATOM     20  C   UNL     1       2.167   0.008   1.264  0.00  0.00    -0.027 A 
ATOM     21  C   UNL     1       3.130  -0.605   0.484  0.00  0.00    +0.007 A 
ATOM     22  C   UNL     1       4.427  -0.129   0.487  0.00  0.00    +0.020 A 
ATOM     23  C   UNL     1       4.762   0.961   1.270  0.00  0.00    +0.041 A 
ATOM     24  C   UNL     1       3.798   1.575   2.050  0.00  0.00    +0.020 A 
ATOM     25  C   UNL     1       2.499   1.101   2.042  0.00  0.00    +0.007 A 
ATOM     26 CL   UNL     1       6.392   1.559   1.275  0.00  0.00    -0.084 Cl
ENDBRANCH  19  20
BRANCH  19  28
ATOM     27  C   UNL     1       0.006   1.530   0.027  0.00  0.00    +0.009 C 
ATOM     28  C   UNL     1       0.024   0.000   0.015  0.00  0.00    +0.008 C 
ATOM     29  C   UNL     1       0.751  -0.491  -1.238  0.00  0.00    +0.009 C 
ENDBRANCH  19  28
ENDBRANCH   1  19
TORSDOF 6
