REMARK  Name = ZINC04257123
REMARK  13 active torsions:
REMARK  status: ('A' for Active; 'I' for Inactive)
REMARK    1  A    between atoms: C_1  and  C_2
REMARK    2  A    between atoms: C_2  and  N_3
REMARK    3  A    between atoms: N_3  and  C_4
REMARK    4  A    between atoms: N_3  and  C_6
REMARK    5  A    between atoms: C_4  and  C_5
REMARK    6  A    between atoms: C_9  and  N_12
REMARK    7  A    between atoms: N_12  and  C_13
REMARK    8  A    between atoms: C_13  and  C_14
REMARK    9  A    between atoms: C_13  and  C_15
REMARK   10  A    between atoms: C_13  and  C_16
REMARK   11  A    between atoms: N_20  and  C_21
REMARK   12  A    between atoms: C_22  and  C_28
REMARK   13  A    between atoms: C_26  and  C_27
REMARK                            x       y       z     vdW  Elec       q    Type
REMARK                         _______ _______ _______ _____ _____    ______ ____
ROOT
ATOM      1  C   UNL     1       2.877  -6.461  -0.515  0.00  0.00    +0.088 C 
ATOM      2  C   UNL     1       4.183  -7.181  -0.170  0.00  0.00    +0.039 C 
ATOM      3  C   UNL     1       3.132  -4.955  -0.598  0.00  0.00    +0.039 C 
ENDROOT
BRANCH   1   4
ATOM      4  C   UNL     1       1.853  -6.738   0.556  0.00  0.00    +0.179 A 
ATOM      5  N   UNL     1       0.554  -6.723   0.408  0.00  0.00    -0.111 NA
ATOM      6  N   UNL     1      -0.031  -7.003   1.517  0.00  0.00    -0.023 NA
ATOM      7  N   UNL     1       0.844  -7.215   2.441  0.00  0.00    -0.039 NA
ATOM      8  N   UNL     1       2.107  -7.054   1.844  0.00  0.00    -0.194 N 
BRANCH   8   9
ATOM      9  C   UNL     1       3.361  -7.191   2.457  0.00  0.00    +0.075 A 
ATOM     10  C   UNL     1       3.520  -8.054   3.532  0.00  0.00    -0.025 A 
ATOM     11  C   UNL     1       4.757  -8.186   4.133  0.00  0.00    +0.005 A 
ATOM     12  C   UNL     1       5.836  -7.459   3.665  0.00  0.00    +0.001 A 
ATOM     13  C   UNL     1       5.681  -6.598   2.594  0.00  0.00    +0.005 A 
ATOM     14  C   UNL     1       4.448  -6.467   1.985  0.00  0.00    -0.025 A 
ATOM     15  C   UNL     1       4.281  -5.534   0.813  0.00  0.00    +0.046 C 
ATOM     16  C   UNL     1       2.344  -8.845   4.044  0.00  0.00    +0.046 C 
ENDBRANCH   8   9
ENDBRANCH   1   4
BRANCH   1  17
ATOM     17  N   UNL     1       2.379  -6.944  -1.804  0.00  0.00    -0.332 N 
ATOM     18  H   UNL     1       1.481  -7.305  -1.873  0.00  0.00    +0.147 HD
BRANCH  17  22
ATOM     19  C   UNL     1       4.815  -6.769  -5.176  0.00  0.00    +0.014 A 
ATOM     20  C   UNL     1       3.579  -7.385  -5.250  0.00  0.00    +0.023 A 
ATOM     21  C   UNL     1       2.768  -7.445  -4.133  0.00  0.00    +0.025 A 
ATOM     22  C   UNL     1       3.196  -6.886  -2.936  0.00  0.00    +0.028 A 
ATOM     23  C   UNL     1       4.438  -6.268  -2.866  0.00  0.00    +0.025 A 
ATOM     24  C   UNL     1       5.246  -6.217  -3.985  0.00  0.00    +0.023 A 
BRANCH  19  25
ATOM     25  N   UNL     1       5.633  -6.710  -6.309  0.00  0.00    -0.394 NA
ATOM     26  H   UNL     1       6.492  -6.234  -6.078  0.00  0.00    +0.126 HD
BRANCH  25  28
ATOM     27  C   UNL     1       6.929  -8.013  -7.927  0.00  0.00    +0.022 C 
ATOM     28  C   UNL     1       5.935  -8.073  -6.766  0.00  0.00    +0.081 C 
ENDBRANCH  25  28
BRANCH  25  29
ATOM     29  C   UNL     1       4.939  -5.979  -7.377  0.00  0.00    +0.081 C 
ATOM     30  C   UNL     1       4.735  -4.524  -6.949  0.00  0.00    +0.022 C 
ENDBRANCH  25  29
ENDBRANCH  19  25
ENDBRANCH  17  22
ENDBRANCH   1  17
TORSDOF 7
