REMARK  Name = ZINC05316294
REMARK  10 active torsions:
REMARK  status: ('A' for Active; 'I' for Inactive)
REMARK    1  A    between atoms: C_1  and  C_2
REMARK    2  A    between atoms: C_5  and  S_8
REMARK    3  A    between atoms: S_8  and  N_11
REMARK    4  A    between atoms: N_11  and  N_12
REMARK    5  A    between atoms: C_13  and  C_14
REMARK    6  A    between atoms: C_13  and  C_28
REMARK    7  A    between atoms: C_19  and  N_24
REMARK    8  A    between atoms: C_28  and  C_30
REMARK    9  A    between atoms: C_28  and  O_38
REMARK   10  A    between atoms: C_31  and  C_32
REMARK                            x       y       z     vdW  Elec       q    Type
REMARK                         _______ _______ _______ _____ _____    ______ ____
ROOT
ATOM      1  N   UNL     1       2.345   6.544   2.307  0.00  0.00    -0.166 NA
ATOM      2  C   UNL     1       3.018   6.247   1.236  0.00  0.00    +0.123 C 
ENDROOT
BRANCH   2   3
ATOM      3  C   UNL     1       4.481   6.400   1.221  0.00  0.00    +0.156 A 
ATOM      4  C   UNL     1       5.181   6.887   2.409  0.00  0.00    +0.298 A 
ATOM      5  N   UNL     1       6.489   7.020   2.387  0.00  0.00    -0.206 NA
ATOM      6  C   UNL     1       7.176   6.711   1.277  0.00  0.00    +0.095 A 
ATOM      7  C   UNL     1       8.574   6.850   1.245  0.00  0.00    +0.062 A 
ATOM      8  C   UNL     1       9.261   6.532   0.113  0.00  0.00    +0.128 A 
ATOM      9  C   UNL     1       8.597   6.068  -1.020  0.00  0.00    +0.035 A 
ATOM     10  C   UNL     1       7.244   5.920  -1.026  0.00  0.00    +0.032 A 
ATOM     11  C   UNL     1       6.501   6.239   0.125  0.00  0.00    +0.090 A 
ATOM     12  N   UNL     1       5.171   6.092   0.134  0.00  0.00    -0.238 NA
ATOM     13  O   UNL     1       4.484   7.198   3.529  0.00  0.00    -0.263 OA
BRANCH   8  14
ATOM     14  N   UNL     1      10.733   6.682   0.087  0.00  0.00    +0.056 N 
ATOM     15  O   UNL     1      11.356   6.400  -0.921  0.00  0.00    -0.126 OA
ATOM     16  O   UNL     1      11.322   7.087   1.073  0.00  0.00    -0.126 OA
ENDBRANCH   8  14
ENDBRANCH   2   3
BRANCH   1  17
ATOM     17  N   UNL     1       0.951   6.398   2.321  0.00  0.00    -0.136 N 
ATOM     18  H   UNL     1       0.489   6.075   1.532  0.00  0.00    +0.197 HD
BRANCH  17  19
ATOM     19  S   UNL     1       0.093   6.778   3.685  0.00  0.00    +0.086 S 
ATOM     20  O   UNL     1      -1.282   6.666   3.344  0.00  0.00    -0.149 OA
ATOM     21  O   UNL     1       0.676   6.040   4.751  0.00  0.00    -0.149 OA
BRANCH  19  26
ATOM     22  C   UNL     1       1.107  12.607   4.868  0.00  0.00    +0.044 C 
ATOM     23  C   UNL     1       0.853  11.151   4.573  0.00  0.00    -0.050 A 
ATOM     24  C   UNL     1      -0.203  10.784   3.761  0.00  0.00    +0.005 A 
ATOM     25  C   UNL     1      -0.436   9.449   3.490  0.00  0.00    +0.029 A 
ATOM     26  C   UNL     1       0.389   8.480   4.031  0.00  0.00    +0.110 A 
ATOM     27  C   UNL     1       1.443   8.847   4.847  0.00  0.00    +0.029 A 
ATOM     28  C   UNL     1       1.678  10.182   5.114  0.00  0.00    +0.005 A 
ENDBRANCH  19  26
ENDBRANCH  17  19
ENDBRANCH   1  17
BRANCH   2  29
ATOM     29  C   UNL     1       2.301   5.744   0.010  0.00  0.00    +0.190 C 
BRANCH  29  30
ATOM     30  C   UNL     1       2.313   4.237   0.002  0.00  0.00    +0.011 C 
ATOM     31  C   UNL     1       1.171   3.565   0.009  0.00  0.00    +0.006 C 
BRANCH  31  32
ATOM     32  C   UNL     1       1.184   2.087   0.002  0.00  0.00    -0.025 A 
ATOM     33  C   UNL     1      -0.017   1.375   0.010  0.00  0.00    +0.008 A 
ATOM     34  C   UNL     1       0.002  -0.004   0.002  0.00  0.00    +0.001 A 
ATOM     35  C   UNL     1       1.208  -0.682  -0.014  0.00  0.00    +0.000 A 
ATOM     36  C   UNL     1       2.401   0.017  -0.021  0.00  0.00    +0.001 A 
ATOM     37  C   UNL     1       2.397   1.396  -0.012  0.00  0.00    +0.008 A 
ENDBRANCH  31  32
ENDBRANCH  29  30
BRANCH  29  38
ATOM     38  O   UNL     1       2.959   6.232  -1.161  0.00  0.00    -0.381 OA
ATOM     39  H   UNL     1       2.576   5.968  -2.158  0.00  0.00    +0.211 HD
ENDBRANCH  29  38
ENDBRANCH   2  29
TORSDOF 9
