REMARK  Name = ZINC63384059
REMARK  12 active torsions:
REMARK  status: ('A' for Active; 'I' for Inactive)
REMARK    1  A    between atoms: C_1  and  C_2
REMARK    2  A    between atoms: C_2  and  C_3
REMARK    3  A    between atoms: C_2  and  C_4
REMARK    4  A    between atoms: C_4  and  C_5
REMARK    5  A    between atoms: C_5  and  N_6
REMARK    6  A    between atoms: C_7  and  C_9
REMARK    7  A    between atoms: C_9  and  C_11
REMARK    8  A    between atoms: C_9  and  N_15
REMARK    9  A    between atoms: C_11  and  C_12
REMARK   10  A    between atoms: C_12  and  S_13
REMARK   11  A    between atoms: S_13  and  C_14
REMARK   12  A    between atoms: C_16  and  C_18
REMARK                            x       y       z     vdW  Elec       q    Type
REMARK                         _______ _______ _______ _____ _____    ______ ____
ROOT
ATOM      1  C   UNL     1      -5.469  -8.014  -0.977  0.00  0.00    +0.167 C 
ATOM      2  C   UNL     1      -5.130  -8.651   0.386  0.00  0.00    +0.065 C 
ATOM      3  C   UNL     1      -4.707 -10.074   0.116  0.00  0.00    -0.034 C 
ATOM      4  C   UNL     1      -5.140 -11.220   0.630  0.00  0.00    -0.001 A 
ATOM      5  C   UNL     1      -6.105 -11.507   1.703  0.00  0.00    +0.010 A 
ATOM      6  C   UNL     1      -6.333 -12.821   1.968  0.00  0.00    +0.001 A 
ATOM      7  C   UNL     1      -5.706 -13.864   1.280  0.00  0.00    +0.002 A 
ATOM      8  C   UNL     1      -4.800 -13.692   0.286  0.00  0.00    +0.026 A 
ATOM      9  C   UNL     1      -4.470 -12.354  -0.077  0.00  0.00    +0.043 A 
ATOM     10  N   UNL     1      -3.633 -11.904  -0.964  0.00  0.00    -0.375 N 
ATOM     11  C   UNL     1      -3.626 -10.441  -0.895  0.00  0.00    +0.131 C 
ATOM     12  C   UNL     1      -4.045  -9.811  -2.228  0.00  0.00    +0.134 C 
ATOM     13  N   UNL     1      -4.440  -8.414  -1.946  0.00  0.00    -0.276 N 
ATOM     14  C   UNL     1      -3.697  -7.593  -2.709  0.00  0.00    +0.248 C 
ATOM     15  O   UNL     1      -3.836  -6.387  -2.774  0.00  0.00    -0.270 OA
ATOM     16  C   UNL     1      -2.697  -8.362  -3.451  0.00  0.00    +0.042 A 
ATOM     17  C   UNL     1      -2.892  -9.752  -3.177  0.00  0.00    -0.013 A 
ATOM     18  C   UNL     1      -2.109 -10.740  -3.731  0.00  0.00    +0.006 A 
ATOM     19  C   UNL     1      -1.100 -10.333  -4.600  0.00  0.00    +0.000 A 
ATOM     20  C   UNL     1      -0.889  -9.001  -4.897  0.00  0.00    +0.001 A 
ATOM     21  C   UNL     1      -1.684  -7.945  -4.319  0.00  0.00    +0.013 A 
ATOM     22  H   UNL     1      -3.102 -12.446  -1.569  0.00  0.00    +0.160 HD
ENDROOT
BRANCH   1  24
ATOM     23  N   UNL     1      -4.342  -5.845  -0.597  0.00  0.00    -0.302 N 
ATOM     24  C   UNL     1      -5.487  -6.513  -0.845  0.00  0.00    +0.235 C 
ATOM     25  O   UNL     1      -6.530  -5.906  -0.961  0.00  0.00    -0.274 OA
ATOM     26  H   UNL     1      -3.508  -6.331  -0.503  0.00  0.00    +0.150 HD
BRANCH  23  27
ATOM     27  C   UNL     1      -4.359  -4.386  -0.468  0.00  0.00    +0.160 C 
BRANCH  27  29
ATOM     28  N   UNL     1      -2.776  -2.508  -0.756  0.00  0.00    -0.314 N 
ATOM     29  C   UNL     1      -2.998  -3.836  -0.806  0.00  0.00    +0.233 C 
ATOM     30  O   UNL     1      -2.101  -4.589  -1.123  0.00  0.00    -0.274 OA
ATOM     31  H   UNL     1      -3.493  -1.906  -0.503  0.00  0.00    +0.149 HD
BRANCH  28  32
ATOM     32  C   UNL     1      -1.452  -1.973  -1.085  0.00  0.00    +0.104 C 
BRANCH  32  33
ATOM     33  C   UNL     1      -1.470  -0.449  -0.951  0.00  0.00    +0.022 C 
BRANCH  33  35
ATOM     34  C   UNL     1      -0.137   1.638  -1.281  0.00  0.00    +0.007 C 
ATOM     35  C   UNL     1      -0.087   0.109  -1.294  0.00  0.00    -0.016 C 
ATOM     36  C   UNL     1       0.930  -0.377  -0.259  0.00  0.00    +0.007 C 
ENDBRANCH  33  35
ENDBRANCH  32  33
ENDBRANCH  28  32
ENDBRANCH  27  29
BRANCH  27  37
ATOM     37  C   UNL     1      -4.721  -4.005   0.969  0.00  0.00    +0.042 C 
BRANCH  37  38
ATOM     38  C   UNL     1      -6.152  -4.454   1.271  0.00  0.00    +0.071 C 
BRANCH  38  39
ATOM     39  S   UNL     1      -6.581  -4.002   2.974  0.00  0.00    -0.164 S 
ATOM     40  C   UNL     1      -8.284  -4.596   3.171  0.00  0.00    +0.084 C 
ENDBRANCH  38  39
ENDBRANCH  37  38
ENDBRANCH  27  37
ENDBRANCH  23  27
ENDBRANCH   1  24
TORSDOF 9
