REMARK  Name = ZINC61503786
REMARK  5 active torsions:
REMARK  status: ('A' for Active; 'I' for Inactive)
REMARK    1  A    between atoms: C_3  and  C_15
REMARK    2  A    between atoms: C_5  and  C_7
REMARK    3  A    between atoms: C_7  and  N_8
REMARK    4  A    between atoms: C_15  and  N_16
REMARK    5  A    between atoms: C_17  and  C_19
REMARK                            x       y       z     vdW  Elec       q    Type
REMARK                         _______ _______ _______ _____ _____    ______ ____
ROOT
ATOM      1  C   UNL     1       3.672   2.182  -0.022  0.00  0.00    +0.139 C 
ENDROOT
BRANCH   1   4
ATOM      2  C   UNL     1      -0.017   1.378   0.010  0.00  0.00    +0.001 A 
ATOM      3  C   UNL     1       1.171   2.085   0.002  0.00  0.00    +0.005 A 
ATOM      4  C   UNL     1       2.377   1.411  -0.013  0.00  0.00    -0.030 A 
ATOM      5  C   UNL     1       2.396   0.028  -0.020  0.00  0.00    +0.007 A 
ATOM      6  C   UNL     1       1.209  -0.679  -0.012  0.00  0.00    -0.064 A 
ATOM      7  C   UNL     1       0.002  -0.004   0.002  0.00  0.00    +0.002 A 
BRANCH   6   8
ATOM      8  C   UNL     1       1.229  -2.186  -0.020  0.00  0.00    -0.043 C 
BRANCH   8   9
ATOM      9  N   UNL     1       1.250  -2.683   1.362  0.00  0.00    +0.382 N 
ATOM     10  C   UNL     1       2.475  -2.193   2.022  0.00  0.00    -0.078 C 
ATOM     11  C   UNL     1       2.231  -2.162   3.510  0.00  0.00    -0.019 C 
ATOM     12  C   UNL     1       2.756  -3.438   4.194  0.00  0.00    -0.002 C 
ATOM     13  C   UNL     1       2.455  -4.700   3.360  0.00  0.00    -0.002 C 
ATOM     14  C   UNL     1       1.073  -4.674   2.758  0.00  0.00    -0.019 C 
ATOM     15  C   UNL     1       1.154  -4.076   1.338  0.00  0.00    -0.078 C 
ATOM     16  H   UNL     1       0.450  -2.312   1.851  0.00  0.00    -0.081 HD
ENDBRANCH   8   9
ENDBRANCH   6   8
ENDBRANCH   1   4
BRANCH   1  17
ATOM     17  N   UNL     1       4.105   2.425   1.356  0.00  0.00    -0.307 N 
ATOM     18  C   UNL     1       5.246   3.102   1.594  0.00  0.00    +0.244 C 
ATOM     19  O   UNL     1       5.916   3.511   0.665  0.00  0.00    -0.270 OA
ATOM     20  H   UNL     1       3.571   2.099   2.097  0.00  0.00    +0.149 HD
BRANCH  18  21
ATOM     21  C   UNL     1       5.683   3.348   2.983  0.00  0.00    +0.040 A 
ATOM     22  C   UNL     1       4.916   2.873   4.051  0.00  0.00    +0.015 A 
ATOM     23  C   UNL     1       5.323   3.102   5.347  0.00  0.00    +0.028 A 
ATOM     24  C   UNL     1       6.495   3.804   5.594  0.00  0.00    +0.076 A 
ATOM     25  C   UNL     1       7.265   4.282   4.530  0.00  0.00    +0.143 A 
ATOM     26  C   UNL     1       6.866   4.050   3.230  0.00  0.00    +0.060 A 
ATOM     27  O   UNL     1       8.409   4.971   4.790  0.00  0.00    -0.481 OA
ATOM     28  C   UNL     1       8.421   5.773   5.973  0.00  0.00    +0.325 C 
ATOM     29  C   UNL     1       7.865   4.979   7.128  0.00  0.00    +0.255 C 
ATOM     30  O   UNL     1       8.268   5.180   8.254  0.00  0.00    -0.272 OA
ATOM     31  N   UNL     1       6.919   4.042   6.904  0.00  0.00    -0.280 N 
ATOM     32  H   UNL     1       6.538   3.542   7.643  0.00  0.00    +0.155 HD
ENDBRANCH  18  21
ENDBRANCH   1  17
TORSDOF 5
