REMARK  Name = ZINC08939723
REMARK  8 active torsions:
REMARK  status: ('A' for Active; 'I' for Inactive)
REMARK    1  A    between atoms: C_6  and  C_7
REMARK    2  A    between atoms: C_10  and  S_13
REMARK    3  A    between atoms: N_11  and  N_12
REMARK    4  A    between atoms: S_13  and  C_14
REMARK    5  A    between atoms: C_14  and  C_15
REMARK    6  A    between atoms: N_17  and  C_18
REMARK    7  A    between atoms: C_20  and  C_29
REMARK    8  A    between atoms: C_23  and  N_24
REMARK                            x       y       z     vdW  Elec       q    Type
REMARK                         _______ _______ _______ _____ _____    ______ ____
ROOT
ATOM      1  C   UNL     1      -0.095   1.518   0.174  0.00  0.00    +0.228 C 
ATOM      2  O   UNL     1      -0.069   0.320  -0.013  0.00  0.00    -0.275 OA
ATOM      3  N   UNL     1      -1.276   2.162   0.259  0.00  0.00    -0.283 N 
ATOM      4  H   UNL     1      -1.298   3.108   0.470  0.00  0.00    +0.155 HD
ENDROOT
BRANCH   3   5
ATOM      5  C   UNL     1      -2.470   1.464   0.044  0.00  0.00    +0.060 A 
ATOM      6  C   UNL     1      -2.545   0.108   0.329  0.00  0.00    +0.037 A 
ATOM      7  C   UNL     1      -3.727  -0.577   0.120  0.00  0.00    +0.057 A 
ATOM      8  C   UNL     1      -4.834   0.082  -0.383  0.00  0.00    +0.014 A 
ATOM      9  C   UNL     1      -4.766   1.431  -0.674  0.00  0.00    +0.030 A 
ATOM     10  C   UNL     1      -3.586   2.128  -0.463  0.00  0.00    +0.088 A 
BRANCH  10  11
ATOM     11  N   UNL     1      -3.516   3.497  -0.758  0.00  0.00    -0.218 N 
ATOM     12  C   UNL     1      -4.532   4.294  -1.143  0.00  0.00    +0.225 A 
ATOM     13  N   UNL     1      -4.057   5.501  -1.317  0.00  0.00    -0.222 NA
ATOM     14  C   UNL     1      -2.749   5.513  -1.064  0.00  0.00    +0.245 A 
ATOM     15  N   UNL     1      -2.371   4.310  -0.718  0.00  0.00    -0.153 NA
ENDBRANCH  10  11
BRANCH   7  16
ATOM     16  C   UNL     1      -3.807  -2.049   0.436  0.00  0.00    +0.417 C 
ATOM     17  F   UNL     1      -5.090  -2.520   0.138  0.00  0.00    -0.166 F 
ATOM     18  F   UNL     1      -2.866  -2.743  -0.333  0.00  0.00    -0.166 F 
ATOM     19  F   UNL     1      -3.540  -2.250   1.794  0.00  0.00    -0.166 F 
ENDBRANCH   7  16
ENDBRANCH   3   5
BRANCH   1  20
ATOM     20  C   UNL     1       1.194   2.288   0.305  0.00  0.00    +0.173 C 
BRANCH  20  21
ATOM     21  S   UNL     1       2.594   1.153   0.140  0.00  0.00    -0.075 S 
BRANCH  21  25
ATOM     22  C   UNL     1       5.920   3.176   0.483  0.00  0.00    +0.182 A 
ATOM     23  N   UNL     1       5.002   4.104   0.620  0.00  0.00    -0.127 NA
ATOM     24  N   UNL     1       3.832   3.583   0.524  0.00  0.00    -0.121 NA
ATOM     25  C   UNL     1       3.930   2.287   0.328  0.00  0.00    +0.209 A 
ATOM     26  N   UNL     1       5.261   1.983   0.292  0.00  0.00    -0.224 N 
BRANCH  22  32
ATOM     27  C   UNL     1       7.916   4.553   1.052  0.00  0.00    +0.013 A 
ATOM     28  C   UNL     1       9.283   4.730   1.094  0.00  0.00    +0.021 A 
ATOM     29  C   UNL     1      10.127   3.747   0.605  0.00  0.00    +0.041 A 
ATOM     30  C   UNL     1       9.605   2.578   0.077  0.00  0.00    +0.021 A 
ATOM     31  C   UNL     1       8.239   2.387   0.035  0.00  0.00    +0.013 A 
ATOM     32  C   UNL     1       7.384   3.374   0.526  0.00  0.00    +0.021 A 
ATOM     33 CL   UNL     1      11.847   3.981   0.654  0.00  0.00    -0.084 Cl
ENDBRANCH  22  32
BRANCH  26  34
ATOM     34  N   UNL     1       5.822   0.752   0.105  0.00  0.00    -0.295 N 
ATOM     35  H   UNL     1       6.063   0.607  -0.865  0.00  0.00    +0.163 HD
ATOM     36  H   UNL     1       6.628   0.627   0.699  0.00  0.00    +0.163 HD
ENDBRANCH  26  34
ENDBRANCH  21  25
ENDBRANCH  20  21
ENDBRANCH   1  20
TORSDOF 8
