REMARK  Name = ZINC02190936
REMARK  15 active torsions:
REMARK  status: ('A' for Active; 'I' for Inactive)
REMARK    1  A    between atoms: C_1  and  C_2
REMARK    2  A    between atoms: C_3  and  C_32
REMARK    3  A    between atoms: C_4  and  C_20
REMARK    4  A    between atoms: C_10  and  C_15
REMARK    5  A    between atoms: C_23  and  O_30
REMARK    6  A    between atoms: C_24  and  O_28
REMARK    7  A    between atoms: C_25  and  O_26
REMARK    8  A    between atoms: O_26  and  C_27
REMARK    9  A    between atoms: O_28  and  C_29
REMARK   10  A    between atoms: O_30  and  C_31
REMARK   11  A    between atoms: C_32  and  O_34
REMARK   12  A    between atoms: O_34  and  C_35
REMARK   13  A    between atoms: C_35  and  C_36
REMARK   14  A    between atoms: C_36  and  O_37
REMARK   15  A    between atoms: O_37  and  C_38
REMARK                            x       y       z     vdW  Elec       q    Type
REMARK                         _______ _______ _______ _____ _____    ______ ____
ROOT
ATOM      1  C   UNL     1      -0.684  -0.279  -0.619  0.00  0.00    +0.061 C 
ATOM      2  C   UNL     1      -1.609   0.894  -0.423  0.00  0.00    +0.016 C 
ATOM      3  C   UNL     1      -1.101   2.133  -0.308  0.00  0.00    +0.065 C 
ATOM      4  C   UNL     1      -1.991   3.323  -0.098  0.00  0.00    +0.096 C 
ATOM      5  C   UNL     1      -3.417   3.004  -0.477  0.00  0.00    +0.024 C 
ATOM      6  C   UNL     1      -3.831   1.723  -0.585  0.00  0.00    +0.016 C 
ATOM      7  N   UNL     1      -2.960   0.691  -0.363  0.00  0.00    -0.321 N 
ATOM      8  C   UNL     1      -5.255   1.396  -0.958  0.00  0.00    +0.060 C 
ATOM      9  C   UNL     1      -6.187   2.496  -0.444  0.00  0.00    +0.039 C 
ATOM     10  C   UNL     1      -5.744   3.831  -1.054  0.00  0.00    +0.088 C 
ATOM     11  C   UNL     1      -4.301   4.074  -0.703  0.00  0.00    +0.162 C 
ATOM     12  O   UNL     1      -3.892   5.214  -0.614  0.00  0.00    -0.292 OA
ATOM     13  H   UNL     1      -3.356  -0.310  -0.134  0.00  0.00    +0.152 HD
ENDROOT
BRANCH   4  14
ATOM     14  C   UNL     1      -1.939   3.730   1.352  0.00  0.00    +0.010 A 
ATOM     15  C   UNL     1      -1.332   4.918   1.715  0.00  0.00    +0.012 A 
ATOM     16  C   UNL     1      -1.281   5.295   3.043  0.00  0.00    +0.050 A 
ATOM     17  C   UNL     1      -1.841   4.484   4.019  0.00  0.00    +0.165 A 
ATOM     18  C   UNL     1      -2.453   3.289   3.659  0.00  0.00    +0.204 A 
ATOM     19  C   UNL     1      -2.506   2.915   2.321  0.00  0.00    +0.169 A 
BRANCH  19  20
ATOM     20  O   UNL     1      -3.109   1.750   1.963  0.00  0.00    -0.491 OA
ATOM     21  C   UNL     1      -2.409   0.540   2.260  0.00  0.00    +0.277 C 
ENDBRANCH  19  20
BRANCH  18  22
ATOM     22  O   UNL     1      -3.004   2.490   4.612  0.00  0.00    -0.488 OA
ATOM     23  C   UNL     1      -4.399   2.656   4.871  0.00  0.00    +0.277 C 
ENDBRANCH  18  22
BRANCH  17  24
ATOM     24  O   UNL     1      -1.791   4.856   5.325  0.00  0.00    -0.491 OA
ATOM     25  C   UNL     1      -1.147   6.097   5.622  0.00  0.00    +0.277 C 
ENDBRANCH  17  24
ENDBRANCH   4  14
BRANCH   9  26
ATOM     26  C   UNL     1      -7.604   2.196  -0.860  0.00  0.00    -0.006 A 
ATOM     27  C   UNL     1      -8.697   1.997  -0.084  0.00  0.00    +0.011 A 
ATOM     28  C   UNL     1      -9.911   1.732  -0.691  0.00  0.00    +0.008 A 
ATOM     29  C   UNL     1      -9.971   1.679  -2.044  0.00  0.00    +0.045 A 
ATOM     30  S   UNL     1      -8.279   2.016  -2.503  0.00  0.00    -0.101 S 
ENDBRANCH   9  26
BRANCH   3  31
ATOM     31  C   UNL     1       0.299   2.319  -0.380  0.00  0.00    +0.338 C 
ATOM     32  O   UNL     1       1.039   1.354  -0.429  0.00  0.00    -0.245 OA
BRANCH  31  33
ATOM     33  O   UNL     1       0.814   3.566  -0.401  0.00  0.00    -0.459 OA
BRANCH  33  34
ATOM     34  C   UNL     1       2.239   3.680  -0.378  0.00  0.00    +0.260 C 
BRANCH  34  35
ATOM     35  C   UNL     1       2.631   5.156  -0.286  0.00  0.00    +0.200 C 
BRANCH  35  36
ATOM     36  O   UNL     1       2.157   5.698   0.949  0.00  0.00    -0.380 OA
ATOM     37  C   UNL     1       2.375   7.103   1.087  0.00  0.00    +0.194 C 
ENDBRANCH  35  36
ENDBRANCH  34  35
ENDBRANCH  33  34
ENDBRANCH  31  33
ENDBRANCH   3  31
TORSDOF 10
