REMARK  Name = ZINC48509775
REMARK  6 active torsions:
REMARK  status: ('A' for Active; 'I' for Inactive)
REMARK    1  A    between atoms: C_4  and  C_7
REMARK    2  A    between atoms: N_9  and  C_10
REMARK    3  A    between atoms: C_10  and  C_11
REMARK    4  A    between atoms: C_11  and  N_12
REMARK    5  A    between atoms: N_15  and  C_16
REMARK    6  A    between atoms: C_16  and  C_17
REMARK                            x       y       z     vdW  Elec       q    Type
REMARK                         _______ _______ _______ _____ _____    ______ ____
ROOT
ATOM      1  N   UNL     1       6.034  -4.987  -0.661  0.00  0.00    -0.298 N 
ATOM      2  C   UNL     1       6.055  -6.312  -0.416  0.00  0.00    +0.300 C 
ATOM      3  O   UNL     1       5.014  -6.912  -0.227  0.00  0.00    -0.253 OA
ATOM      4  N   UNL     1       7.229  -6.973  -0.382  0.00  0.00    -0.295 N 
ATOM      5  H   UNL     1       6.864  -4.509  -0.813  0.00  0.00    +0.150 HD
ATOM      6  H   UNL     1       8.059  -6.495  -0.533  0.00  0.00    +0.151 HD
ENDROOT
BRANCH   1   7
ATOM      7  C   UNL     1       4.758  -4.269  -0.699  0.00  0.00    +0.124 C 
BRANCH   7   8
ATOM      8  C   UNL     1       5.013  -2.790  -0.994  0.00  0.00    +0.123 C 
BRANCH   8  11
ATOM      9  C   UNL     1       3.716  -0.747  -1.276  0.00  0.00    +0.244 C 
ATOM     10  O   UNL     1       4.756  -0.147  -1.466  0.00  0.00    -0.270 OA
ATOM     11  N   UNL     1       3.737  -2.072  -1.031  0.00  0.00    -0.310 N 
ATOM     12  H   UNL     1       2.906  -2.550  -0.880  0.00  0.00    +0.149 HD
BRANCH   9  16
ATOM     13  C   UNL     1       0.015   1.335  -1.387  0.00  0.00    +0.000 A 
ATOM     14  C   UNL     1       1.197   2.020  -1.603  0.00  0.00    +0.001 A 
ATOM     15  C   UNL     1       2.402   1.350  -1.568  0.00  0.00    +0.013 A 
ATOM     16  C   UNL     1       2.428  -0.022  -1.315  0.00  0.00    +0.037 A 
ATOM     17  C   UNL     1       1.231  -0.708  -1.097  0.00  0.00    +0.013 A 
ATOM     18  C   UNL     1       0.033  -0.026  -1.135  0.00  0.00    +0.001 A 
ENDBRANCH   9  16
ENDBRANCH   8  11
ENDBRANCH   7   8
ENDBRANCH   1   7
BRANCH   4  19
ATOM     19  C   UNL     1       7.252  -8.413  -0.115  0.00  0.00    +0.142 C 
BRANCH  19  20
ATOM     20  C   UNL     1       8.677  -8.905  -0.131  0.00  0.00    -0.014 A 
ATOM     21  C   UNL     1       9.253  -9.347  -1.315  0.00  0.00    +0.010 A 
ATOM     22  C   UNL     1      10.563  -9.790  -1.286  0.00  0.00    +0.042 A 
ATOM     23  C   UNL     1      11.255  -9.777  -0.078  0.00  0.00    +0.099 A 
ATOM     24  N   UNL     1      10.670  -9.348   1.029  0.00  0.00    -0.349 N 
ATOM     25  C   UNL     1       9.423  -8.915   1.030  0.00  0.00    +0.089 A 
ATOM     26  N   UNL     1      12.572 -10.220  -0.035  0.00  0.00    -0.317 N 
ATOM     27  C   UNL     1      13.235 -10.545  -1.278  0.00  0.00    +0.106 C 
ATOM     28  C   UNL     1      12.991 -12.035  -1.623  0.00  0.00    +0.019 C 
ATOM     29  C   UNL     1      13.748 -12.902  -0.706  0.00  0.00    +0.002 C 
ATOM     30  C   UNL     1      13.335 -12.781   0.758  0.00  0.00    +0.002 C 
ATOM     31  C   UNL     1      14.071 -11.627   1.391  0.00  0.00    +0.019 C 
ATOM     32  C   UNL     1      13.237 -10.334   1.278  0.00  0.00    +0.106 C 
ATOM     33  H   UNL     1      11.171  -9.349   1.859  0.00  0.00    +0.167 HD
ENDBRANCH  19  20
ENDBRANCH   4  19
TORSDOF 6
