REMARK  Name = ZINC16428379
REMARK  6 active torsions:
REMARK  status: ('A' for Active; 'I' for Inactive)
REMARK    1  A    between atoms: C_6  and  N_7
REMARK    2  A    between atoms: N_10  and  C_11
REMARK    3  A    between atoms: C_11  and  C_12
REMARK    4  A    between atoms: C_17  and  C_20
REMARK    5  A    between atoms: C_20  and  N_21
REMARK    6  A    between atoms: N_24  and  C_25
REMARK                            x       y       z     vdW  Elec       q    Type
REMARK                         _______ _______ _______ _____ _____    ______ ____
ROOT
ATOM      1  C   UNL     1      -0.107   1.691   0.087  0.00  0.00    +0.006 C 
ATOM      2  C   UNL     1       0.064   0.176  -0.043  0.00  0.00    +0.005 C 
ATOM      3  C   UNL     1       0.733  -0.372   1.219  0.00  0.00    +0.001 C 
ATOM      4  C   UNL     1       2.104   0.283   1.395  0.00  0.00    +0.005 C 
ATOM      5  C   UNL     1       1.933   1.797   1.525  0.00  0.00    +0.006 C 
ATOM      6  C   UNL     1       1.264   2.346   0.263  0.00  0.00    +0.010 C 
ENDROOT
BRANCH   1   7
ATOM      7  C   UNL     1      -0.776   2.239  -1.175  0.00  0.00    +0.109 C 
BRANCH   7  11
ATOM      8  N   UNL     1      -4.170   1.558  -2.415  0.00  0.00    -0.269 N 
ATOM      9  C   UNL     1      -2.920   2.051  -2.319  0.00  0.00    +0.304 C 
ATOM     10  O   UNL     1      -2.498   2.810  -3.170  0.00  0.00    -0.253 OA
ATOM     11  N   UNL     1      -2.136   1.703  -1.279  0.00  0.00    -0.299 N 
ATOM     12  H   UNL     1      -4.533   1.013  -1.699  0.00  0.00    +0.156 HD
ATOM     13  H   UNL     1      -2.472   1.098  -0.600  0.00  0.00    +0.150 HD
BRANCH   8  19
ATOM     14  C   UNL     1      -6.323   1.968  -3.432  0.00  0.00    +0.026 A 
ATOM     15  C   UNL     1      -7.086   2.245  -4.550  0.00  0.00    +0.040 A 
ATOM     16  C   UNL     1      -6.479   2.375  -5.788  0.00  0.00    +0.124 A 
ATOM     17  C   UNL     1      -5.107   2.235  -5.907  0.00  0.00    +0.040 A 
ATOM     18  C   UNL     1      -4.340   1.964  -4.790  0.00  0.00    +0.026 A 
ATOM     19  C   UNL     1      -4.946   1.833  -3.548  0.00  0.00    +0.035 A 
ATOM     20  F   UNL     1      -7.228   2.640  -6.881  0.00  0.00    -0.205 F 
ENDBRANCH   8  19
ENDBRANCH   7  11
ENDBRANCH   1   7
BRANCH   5  21
ATOM     21  C   UNL     1       1.059   2.109   2.742  0.00  0.00    +0.109 C 
BRANCH  21  22
ATOM     22  N   UNL     1       1.754   1.691   3.962  0.00  0.00    -0.299 N 
ATOM     23  C   UNL     1       1.171   1.868   5.164  0.00  0.00    +0.304 C 
ATOM     24  O   UNL     1       0.068   2.375   5.236  0.00  0.00    -0.253 OA
ATOM     25  N   UNL     1       1.810   1.483   6.287  0.00  0.00    -0.269 N 
ATOM     26  H   UNL     1       2.634   1.286   3.905  0.00  0.00    +0.150 HD
ATOM     27  H   UNL     1       2.659   1.018   6.226  0.00  0.00    +0.156 HD
BRANCH  25  28
ATOM     28  C   UNL     1       1.248   1.755   7.540  0.00  0.00    +0.035 A 
ATOM     29  C   UNL     1       2.069   2.066   8.617  0.00  0.00    +0.026 A 
ATOM     30  C   UNL     1       1.512   2.339   9.851  0.00  0.00    +0.040 A 
ATOM     31  C   UNL     1       0.139   2.292  10.018  0.00  0.00    +0.124 A 
ATOM     32  C   UNL     1      -0.681   1.977   8.947  0.00  0.00    +0.040 A 
ATOM     33  C   UNL     1      -0.129   1.709   7.710  0.00  0.00    +0.026 A 
ATOM     34  F   UNL     1      -0.403   2.554  11.228  0.00  0.00    -0.205 F 
ENDBRANCH  25  28
ENDBRANCH  21  22
ENDBRANCH   5  21
TORSDOF 6
