REMARK  Name = ZINC06149284
REMARK  9 active torsions:
REMARK  status: ('A' for Active; 'I' for Inactive)
REMARK    1  A    between atoms: C_1  and  C_2
REMARK    2  A    between atoms: C_2  and  C_3
REMARK    3  A    between atoms: C_3  and  C_4
REMARK    4  A    between atoms: C_3  and  C_5
REMARK    5  A    between atoms: C_3  and  N_6
REMARK    6  A    between atoms: C_7  and  C_11
REMARK    7  A    between atoms: C_11  and  C_13
REMARK    8  A    between atoms: C_11  and  N_72
REMARK    9  A    between atoms: C_18  and  C_25
REMARK                            x       y       z     vdW  Elec       q    Type
REMARK                         _______ _______ _______ _____ _____    ______ ____
ROOT
ATOM      1  C   UNL     1       0.008   1.218  -2.782  0.00  0.00    +0.039 C 
ENDROOT
BRANCH   1   2
ATOM      2  C   UNL     1      -0.780   1.412  -4.051  0.00  0.00    +0.011 A 
ATOM      3  C   UNL     1      -0.211   2.040  -5.110  0.00  0.00    +0.017 A 
ATOM      4  C   UNL     1      -1.002   2.209  -6.330  0.00  0.00    -0.001 A 
ATOM      5  C   UNL     1      -0.469   2.845  -7.456  0.00  0.00    +0.010 A 
ATOM      6  C   UNL     1      -1.235   2.992  -8.577  0.00  0.00    +0.004 A 
ATOM      7  C   UNL     1      -2.539   2.517  -8.610  0.00  0.00    -0.048 A 
ATOM      8  C   UNL     1      -3.085   1.886  -7.513  0.00  0.00    +0.029 A 
ATOM      9  C   UNL     1      -2.324   1.725  -6.359  0.00  0.00    +0.049 A 
ATOM     10  N   UNL     1      -2.845   1.100  -5.247  0.00  0.00    -0.322 N 
ATOM     11  H   UNL     1      -3.784   0.757  -5.269  0.00  0.00    +0.169 HD
ATOM     12  C   UNL     1      -2.109   0.945  -4.132  0.00  0.00    +0.251 A 
ATOM     13  O   UNL     1      -2.603   0.387  -3.167  0.00  0.00    -0.268 OA
ATOM     14  C   UNL     1      -3.366   2.691  -9.857  0.00  0.00    +0.044 C 
ENDBRANCH   1   2
BRANCH   1  25
ATOM     15  C   UNL     1      -0.925   3.232  -1.817  0.00  0.00    -0.077 C 
ATOM     16  C   UNL     1      -1.826   3.764  -0.700  0.00  0.00    -0.018 C 
ATOM     17  C   UNL     1      -1.178   3.467   0.656  0.00  0.00    +0.003 C 
ATOM     18  C   UNL     1      -0.950   1.958   0.783  0.00  0.00    -0.044 C 
ATOM     19  C   UNL     1      -0.075   1.479  -0.376  0.00  0.00    -0.071 C 
ATOM     20  C   UNL     1      -0.250   1.660   2.110  0.00  0.00    +0.005 C 
ATOM     21  C   UNL     1      -0.024   0.152   2.241  0.00  0.00    +0.000 C 
ATOM     22  C   UNL     1      -1.372  -0.571   2.200  0.00  0.00    +0.000 C 
ATOM     23  C   UNL     1      -2.070  -0.273   0.872  0.00  0.00    +0.000 C 
ATOM     24  C   UNL     1      -2.296   1.234   0.741  0.00  0.00    +0.005 C 
ATOM     25  N   UNL     1      -0.764   1.772  -1.651  0.00  0.00    +0.390 N 
ATOM     26  H   UNL     1      -1.693   1.335  -1.635  0.00  0.00    -0.080 HD
ENDBRANCH   1  25
BRANCH   1  28
ATOM     27  N   UNL     1       1.403  -0.911  -2.617  0.00  0.00    -0.225 N 
ATOM     28  C   UNL     1       0.230  -0.255  -2.549  0.00  0.00    +0.143 A 
ATOM     29  N   UNL     1      -0.682  -1.145  -2.245  0.00  0.00    -0.115 NA
ATOM     30  N   UNL     1      -0.100  -2.288  -2.129  0.00  0.00    -0.023 NA
ATOM     31  N   UNL     1       1.161  -2.150  -2.349  0.00  0.00    -0.043 NA
BRANCH  27  32
ATOM     32  C   UNL     1       2.710  -0.328  -2.933  0.00  0.00    +0.061 C 
ATOM     33  C   UNL     1       2.647   0.353  -4.301  0.00  0.00    +0.036 C 
ATOM     34  C   UNL     1       3.079   0.704  -1.865  0.00  0.00    +0.036 C 
BRANCH  32  36
ATOM     35  C   UNL     1       5.132  -0.825  -3.292  0.00  0.00    +0.006 C 
ATOM     36  C   UNL     1       3.768  -1.433  -2.962  0.00  0.00    +0.026 C 
ENDBRANCH  32  36
ENDBRANCH  27  32
ENDBRANCH   1  28
TORSDOF 5
