REMARK  Name = ZINC40982264
REMARK  15 active torsions:
REMARK  status: ('A' for Active; 'I' for Inactive)
REMARK    1  A    between atoms: C_1  and  C_2
REMARK    2  A    between atoms: C_2  and  C_3
REMARK    3  A    between atoms: C_3  and  C_4
REMARK    4  A    between atoms: C_4  and  O_5
REMARK    5  A    between atoms: O_5  and  C_6
REMARK    6  A    between atoms: C_11  and  C_12
REMARK    7  A    between atoms: C_14  and  C_27
REMARK    8  A    between atoms: C_15  and  C_26
REMARK    9  A    between atoms: C_20  and  S_22
REMARK   10  A    between atoms: S_22  and  C_23
REMARK   11  A    between atoms: C_23  and  C_24
REMARK   12  A    between atoms: C_24  and  C_25
REMARK   13  A    between atoms: N_29  and  C_30
REMARK   14  A    between atoms: C_35  and  O_36
REMARK   15  A    between atoms: O_36  and  C_37
REMARK                            x       y       z     vdW  Elec       q    Type
REMARK                         _______ _______ _______ _____ _____    ______ ____
ROOT
ATOM      1  C   UNL     1       3.303  -3.290  -4.867  0.00  0.00    +0.181 C 
ATOM      2  C   UNL     1       4.721  -3.760  -5.051  0.00  0.00    +0.060 C 
ATOM      3  C   UNL     1       5.143  -4.399  -6.152  0.00  0.00    +0.018 C 
ATOM      4  N   UNL     1       4.308  -4.665  -7.209  0.00  0.00    -0.287 N 
ATOM      5  C   UNL     1       3.076  -4.025  -7.227  0.00  0.00    +0.219 A 
ATOM      6  N   UNL     1       2.593  -3.373  -6.141  0.00  0.00    -0.220 N 
ATOM      7  N   UNL     1       1.355  -2.848  -6.508  0.00  0.00    -0.141 NA
ATOM      8  C   UNL     1       1.150  -3.200  -7.758  0.00  0.00    +0.210 A 
ATOM      9  N   UNL     1       2.199  -3.916  -8.188  0.00  0.00    -0.187 NA
ATOM     10  C   UNL     1       6.582  -4.840  -6.231  0.00  0.00    +0.061 C 
ATOM     11  H   UNL     1       4.568  -5.276  -7.916  0.00  0.00    +0.155 HD
ENDROOT
BRANCH   1  17
ATOM     12  C   UNL     1       2.037  -3.591  -2.723  0.00  0.00    +0.126 A 
ATOM     13  C   UNL     1       1.398  -4.395  -1.790  0.00  0.00    +0.046 A 
ATOM     14  C   UNL     1       1.340  -5.761  -1.983  0.00  0.00    +0.004 A 
ATOM     15  C   UNL     1       1.918  -6.328  -3.104  0.00  0.00    +0.001 A 
ATOM     16  C   UNL     1       2.556  -5.529  -4.034  0.00  0.00    +0.009 A 
ATOM     17  C   UNL     1       2.612  -4.161  -3.849  0.00  0.00    +0.023 A 
BRANCH  12  18
ATOM     18  O   UNL     1       2.095  -2.246  -2.536  0.00  0.00    -0.492 OA
BRANCH  18  19
ATOM     19  C   UNL     1       1.367  -1.713  -1.429  0.00  0.00    +0.229 C 
BRANCH  19  20
ATOM     20  C   UNL     1       1.454  -0.185  -1.448  0.00  0.00    +0.041 C 
BRANCH  20  22
ATOM     21  C   UNL     1       0.969   1.898  -0.157  0.00  0.00    +0.004 C 
ATOM     22  C   UNL     1       0.777   0.381  -0.198  0.00  0.00    -0.000 C 
ENDBRANCH  20  22
ENDBRANCH  19  20
ENDBRANCH  18  19
ENDBRANCH  12  18
ENDBRANCH   1  17
BRANCH   2  23
ATOM     23  C   UNL     1       5.652  -3.517  -4.014  0.00  0.00    +0.248 C 
ATOM     24  O   UNL     1       6.125  -2.404  -3.869  0.00  0.00    -0.270 OA
ATOM     25  N   UNL     1       6.016  -4.516  -3.186  0.00  0.00    -0.279 N 
ATOM     26  H   UNL     1       5.694  -5.418  -3.343  0.00  0.00    +0.155 HD
BRANCH  25  27
ATOM     27  C   UNL     1       6.858  -4.253  -2.099  0.00  0.00    +0.076 A 
ATOM     28  C   UNL     1       7.009  -2.955  -1.633  0.00  0.00    +0.027 A 
ATOM     29  C   UNL     1       7.840  -2.698  -0.560  0.00  0.00    +0.002 A 
ATOM     30  C   UNL     1       8.524  -3.732   0.052  0.00  0.00    +0.004 A 
ATOM     31  C   UNL     1       8.380  -5.028  -0.406  0.00  0.00    +0.047 A 
ATOM     32  C   UNL     1       7.543  -5.295  -1.478  0.00  0.00    +0.141 A 
BRANCH  32  33
ATOM     33  O   UNL     1       7.396  -6.571  -1.926  0.00  0.00    -0.493 OA
ATOM     34  C   UNL     1       8.043  -7.601  -1.177  0.00  0.00    +0.277 C 
ENDBRANCH  32  33
ENDBRANCH  25  27
ENDBRANCH   2  23
BRANCH   8  35
ATOM     35  S   UNL     1      -0.274  -2.797  -8.715  0.00  0.00    -0.084 S 
BRANCH  35  36
ATOM     36  C   UNL     1       0.049  -3.564 -10.327  0.00  0.00    +0.077 C 
BRANCH  36  37
ATOM     37  C   UNL     1      -1.126  -3.287 -11.268  0.00  0.00    +0.008 C 
ATOM     38  C   UNL     1      -0.854  -3.933 -12.627  0.00  0.00    +0.004 C 
ENDBRANCH  36  37
ENDBRANCH  35  36
ENDBRANCH   8  35
TORSDOF 11
