REMARK  Name = ZINC59117937
REMARK  9 active torsions:
REMARK  status: ('A' for Active; 'I' for Inactive)
REMARK    1  A    between atoms: C_1  and  C_2
REMARK    2  A    between atoms: C_2  and  N_3
REMARK    3  A    between atoms: N_3  and  C_4
REMARK    4  A    between atoms: N_3  and  S_6
REMARK    5  A    between atoms: C_4  and  C_5
REMARK    6  A    between atoms: S_6  and  C_9
REMARK    7  A    between atoms: C_13  and  C_15
REMARK    8  A    between atoms: N_17  and  C_18
REMARK    9  A    between atoms: C_18  and  C_19
REMARK                            x       y       z     vdW  Elec       q    Type
REMARK                         _______ _______ _______ _____ _____    ______ ____
ROOT
ATOM      1  C   UNL     1       1.328   2.194  -6.510  0.00  0.00    +0.244 C 
ATOM      2  O   UNL     1       2.347   1.532  -6.544  0.00  0.00    -0.270 OA
ATOM      3  N   UNL     1       1.241   3.335  -7.221  0.00  0.00    -0.307 N 
ATOM      4  H   UNL     1       0.427   3.863  -7.194  0.00  0.00    +0.149 HD
ENDROOT
BRANCH   1   9
ATOM      5  C   UNL     1      -0.802   0.153  -4.185  0.00  0.00    +0.106 A 
ATOM      6  C   UNL     1      -1.960   0.908  -4.148  0.00  0.00    +0.028 A 
ATOM      7  C   UNL     1      -2.053   2.080  -4.877  0.00  0.00    +0.003 A 
ATOM      8  C   UNL     1      -0.988   2.503  -5.646  0.00  0.00    +0.013 A 
ATOM      9  C   UNL     1       0.183   1.746  -5.687  0.00  0.00    +0.039 A 
ATOM     10  C   UNL     1       0.272   0.568  -4.945  0.00  0.00    +0.041 A 
BRANCH   5  11
ATOM     11  S   UNL     1      -0.694  -1.339  -3.252  0.00  0.00    +0.061 S 
ATOM     12  O   UNL     1       0.297  -2.140  -3.880  0.00  0.00    -0.153 OA
ATOM     13  O   UNL     1      -2.027  -1.791  -3.055  0.00  0.00    -0.153 OA
BRANCH  11  14
ATOM     14  N   UNL     1      -0.103  -0.940  -1.757  0.00  0.00    -0.177 NA
BRANCH  14  16
ATOM     15  C   UNL     1      -1.182   0.935  -0.616  0.00  0.00    +0.022 C 
ATOM     16  C   UNL     1      -1.026  -0.586  -0.676  0.00  0.00    +0.106 C 
ENDBRANCH  14  16
BRANCH  14  17
ATOM     17  C   UNL     1       1.342  -0.941  -1.517  0.00  0.00    +0.106 C 
ATOM     18  C   UNL     1       1.758  -2.287  -0.919  0.00  0.00    +0.022 C 
ENDBRANCH  14  17
ENDBRANCH  11  14
ENDBRANCH   5  11
ENDBRANCH   1   9
BRANCH   3  19
ATOM     19  C   UNL     1       2.375   3.778  -8.036  0.00  0.00    +0.141 C 
BRANCH  19  20
ATOM     20  C   UNL     1       2.023   5.071  -8.726  0.00  0.00    -0.014 A 
ATOM     21  C   UNL     1       1.423   5.057  -9.979  0.00  0.00    +0.010 A 
ATOM     22  C   UNL     1       1.116   6.266 -10.577  0.00  0.00    +0.042 A 
ATOM     23  C   UNL     1       1.417   7.448  -9.908  0.00  0.00    +0.099 A 
ATOM     24  N   UNL     1       1.989   7.419  -8.714  0.00  0.00    -0.349 N 
ATOM     25  C   UNL     1       2.288   6.281  -8.117  0.00  0.00    +0.089 A 
ATOM     26  N   UNL     1       1.115   8.669 -10.497  0.00  0.00    -0.317 N 
ATOM     27  C   UNL     1       0.360   8.676 -11.731  0.00  0.00    +0.106 C 
ATOM     28  C   UNL     1       1.331   8.600 -12.934  0.00  0.00    +0.019 C 
ATOM     29  C   UNL     1       2.059   9.869 -13.085  0.00  0.00    +0.002 C 
ATOM     30  C   UNL     1       2.952  10.226 -11.901  0.00  0.00    +0.002 C 
ATOM     31  C   UNL     1       2.131  10.929 -10.848  0.00  0.00    +0.019 C 
ATOM     32  C   UNL     1       1.572   9.907  -9.836  0.00  0.00    +0.106 C 
ATOM     33  H   UNL     1       2.190   8.255  -8.266  0.00  0.00    +0.167 HD
ENDBRANCH  19  20
ENDBRANCH   3  19
TORSDOF 7
