REMARK  Name = ZINC49060132
REMARK  5 active torsions:
REMARK  status: ('A' for Active; 'I' for Inactive)
REMARK    1  A    between atoms: C_1  and  C_2
REMARK    2  A    between atoms: C_5  and  C_8
REMARK    3  A    between atoms: N_13  and  C_15
REMARK    4  A    between atoms: C_15  and  C_17
REMARK    5  A    between atoms: C_15  and  C_18
REMARK                            x       y       z     vdW  Elec       q    Type
REMARK                         _______ _______ _______ _____ _____    ______ ____
ROOT
ATOM      1  C   UNL     1       0.094  -6.863   2.465  0.00  0.00    +0.194 C 
ATOM      2  C   UNL     1      -1.160  -6.469   3.248  0.00  0.00    +0.043 C 
ENDROOT
BRANCH   1   3
ATOM      3  C   UNL     1       1.319  -6.442   3.235  0.00  0.00    +0.243 C 
ATOM      4  O   UNL     1       2.107  -5.663   2.741  0.00  0.00    -0.273 OA
ATOM      5  N   UNL     1       1.540  -6.931   4.471  0.00  0.00    -0.263 N 
ATOM      6  C   UNL     1       2.670  -6.543   5.181  0.00  0.00    +0.165 A 
ATOM      7  N   UNL     1       3.620  -5.712   4.813  0.00  0.00    -0.229 NA
ATOM      8  C   UNL     1       4.653  -5.431   5.603  0.00  0.00    +0.054 A 
ATOM      9  C   UNL     1       4.643  -6.065   6.803  0.00  0.00    +0.014 A 
ATOM     10  S   UNL     1       3.151  -7.016   6.725  0.00  0.00    -0.057 S 
ATOM     11  C   UNL     1       5.651  -5.961   7.897  0.00  0.00    +0.044 C 
ATOM     12  C   UNL     1       6.915  -5.301   7.324  0.00  0.00    +0.006 C 
ATOM     13  C   UNL     1       6.505  -4.061   6.523  0.00  0.00    +0.006 C 
ATOM     14  C   UNL     1       5.784  -4.479   5.240  0.00  0.00    +0.056 C 
ATOM     15  H   UNL     1       0.910  -7.554   4.866  0.00  0.00    +0.157 HD
ENDBRANCH   1   3
BRANCH   1  21
ATOM     16  C   UNL     1       0.058  -4.256  -0.021  0.00  0.00    +0.092 A 
ATOM     17  C   UNL     1       0.067  -4.954  -1.252  0.00  0.00    +0.035 A 
ATOM     18  C   UNL     1       0.085  -6.317  -1.220  0.00  0.00    +0.074 A 
ATOM     19  C   UNL     1       0.094  -6.949   0.043  0.00  0.00    +0.268 A 
ATOM     20  O   UNL     1       0.111  -8.167   0.120  0.00  0.00    -0.266 OA
ATOM     21  N   UNL     1       0.085  -6.198   1.160  0.00  0.00    -0.217 N 
ATOM     22  N   UNL     1       0.073  -4.915   1.113  0.00  0.00    -0.168 NA
BRANCH  16  27
ATOM     23  C   UNL     1      -0.018   1.503   0.010  0.00  0.00    +0.044 C 
ATOM     24  C   UNL     1       0.002  -0.004   0.002  0.00  0.00    -0.050 A 
ATOM     25  C   UNL     1       0.006  -0.686  -1.201  0.00  0.00    +0.004 A 
ATOM     26  C   UNL     1       0.024  -2.066  -1.215  0.00  0.00    +0.010 A 
ATOM     27  C   UNL     1       0.039  -2.772  -0.013  0.00  0.00    +0.002 A 
ATOM     28  C   UNL     1       0.036  -2.079   1.196  0.00  0.00    +0.010 A 
ATOM     29  C   UNL     1       0.023  -0.700   1.198  0.00  0.00    +0.004 A 
ENDBRANCH  16  27
ENDBRANCH   1  21
TORSDOF 3
