REMARK  Name = ZINC63830695
REMARK  12 active torsions:
REMARK  status: ('A' for Active; 'I' for Inactive)
REMARK    1  A    between atoms: C_1  and  C_2
REMARK    2  A    between atoms: C_2  and  C_3
REMARK    3  A    between atoms: C_3  and  C_35
REMARK    4  A    between atoms: N_6  and  C_10
REMARK    5  A    between atoms: C_10  and  C_11
REMARK    6  A    between atoms: N_13  and  C_14
REMARK    7  A    between atoms: C_14  and  C_15
REMARK    8  A    between atoms: C_15  and  C_17
REMARK    9  A    between atoms: C_15  and  C_26
REMARK   10  A    between atoms: C_20  and  N_23
REMARK   11  A    between atoms: N_23  and  C_24
REMARK   12  A    between atoms: N_23  and  C_25
REMARK                            x       y       z     vdW  Elec       q    Type
REMARK                         _______ _______ _______ _____ _____    ______ ____
ROOT
ATOM      1  C   UNL     1       4.815  -6.665  -2.152  0.00  0.00    +0.064 C 
ENDROOT
BRANCH   1   2
ATOM      2  C   UNL     1       6.178  -6.572  -1.517  0.00  0.00    -0.033 C 
ATOM      3  C   UNL     1       6.632  -7.282  -0.458  0.00  0.00    -0.000 A 
ATOM      4  C   UNL     1       6.015  -8.312   0.386  0.00  0.00    +0.010 A 
ATOM      5  C   UNL     1       6.736  -8.851   1.395  0.00  0.00    +0.001 A 
ATOM      6  C   UNL     1       8.054  -8.451   1.655  0.00  0.00    +0.002 A 
ATOM      7  C   UNL     1       8.688  -7.511   0.923  0.00  0.00    +0.026 A 
ATOM      8  C   UNL     1       8.025  -6.877  -0.164  0.00  0.00    +0.043 A 
ATOM      9  N   UNL     1       8.417  -5.953  -1.007  0.00  0.00    -0.380 N 
ATOM     10  C   UNL     1       7.318  -5.671  -1.937  0.00  0.00    +0.145 C 
ATOM     11  H   UNL     1       9.290  -5.530  -1.017  0.00  0.00    +0.160 HD
ENDBRANCH   1   2
BRANCH   1  12
ATOM     12  C   UNL     1       4.960  -7.075  -3.595  0.00  0.00    -0.039 A 
ATOM     13  C   UNL     1       5.689  -6.286  -4.467  0.00  0.00    +0.006 A 
ATOM     14  C   UNL     1       5.824  -6.659  -5.790  0.00  0.00    +0.023 A 
ATOM     15  C   UNL     1       5.228  -7.828  -6.244  0.00  0.00    +0.029 A 
ATOM     16  C   UNL     1       4.497  -8.619  -5.366  0.00  0.00    +0.023 A 
ATOM     17  C   UNL     1       4.370  -8.242  -4.043  0.00  0.00    +0.006 A 
BRANCH  15  18
ATOM     18  N   UNL     1       5.362  -8.209  -7.582  0.00  0.00    -0.336 N 
ATOM     19  C   UNL     1       6.025  -7.314  -8.534  0.00  0.00    +0.129 C 
ATOM     20  C   UNL     1       4.840  -9.501  -8.032  0.00  0.00    +0.129 C 
ENDBRANCH  15  18
ENDBRANCH   1  12
BRANCH   1  21
ATOM     21  C   UNL     1       4.123  -5.302  -2.077  0.00  0.00    +0.116 C 
BRANCH  21  24
ATOM     22  C   UNL     1       3.270  -3.794  -0.364  0.00  0.00    +0.231 C 
ATOM     23  O   UNL     1       2.933  -3.031  -1.245  0.00  0.00    -0.274 OA
ATOM     24  N   UNL     1       3.874  -4.958  -0.675  0.00  0.00    -0.313 N 
ATOM     25  H   UNL     1       4.144  -5.567   0.029  0.00  0.00    +0.149 HD
BRANCH  22  26
ATOM     26  C   UNL     1       3.014  -3.439   1.078  0.00  0.00    +0.213 C 
BRANCH  26  30
ATOM     27  C   UNL     1       0.794  -0.466   1.229  0.00  0.00    +0.110 C 
ATOM     28  C   UNL     1       1.015  -1.962   1.134  0.00  0.00    +0.247 C 
ATOM     29  O   UNL     1       0.167  -2.825   1.059  0.00  0.00    -0.273 OA
ATOM     30  N   UNL     1       2.352  -2.135   1.150  0.00  0.00    -0.215 N 
ATOM     31  C   UNL     1       2.999  -0.967   1.241  0.00  0.00    +0.310 C 
ATOM     32  O   UNL     1       4.210  -0.867   1.273  0.00  0.00    -0.252 OA
ATOM     33  N   UNL     1       2.160   0.083   1.294  0.00  0.00    -0.285 N 
ATOM     34  C   UNL     1       0.012  -0.113   2.496  0.00  0.00    +0.041 C 
ATOM     35  H   UNL     1       2.406   1.019   1.360  0.00  0.00    +0.151 HD
BRANCH  27  37
ATOM     36  C   UNL     1       0.062   1.581  -0.004  0.00  0.00    +0.006 C 
ATOM     37  C   UNL     1       0.065   0.051  -0.013  0.00  0.00    +0.031 C 
ENDBRANCH  27  37
ENDBRANCH  26  30
ENDBRANCH  22  26
ENDBRANCH  21  24
ENDBRANCH   1  21
TORSDOF 8
