REMARK  Name = ZINC08692215
REMARK  9 active torsions:
REMARK  status: ('A' for Active; 'I' for Inactive)
REMARK    1  A    between atoms: C_1  and  C_2
REMARK    2  A    between atoms: C_3  and  N_15
REMARK    3  A    between atoms: N_6  and  C_9
REMARK    4  A    between atoms: N_7  and  C_8
REMARK    5  A    between atoms: C_16  and  C_18
REMARK    6  A    between atoms: C_18  and  C_20
REMARK    7  A    between atoms: C_18  and  O_21
REMARK    8  A    between atoms: O_21  and  C_22
REMARK    9  A    between atoms: C_22  and  C_24
REMARK                            x       y       z     vdW  Elec       q    Type
REMARK                         _______ _______ _______ _____ _____    ______ ____
ROOT
ATOM      1  N   UNL     1       0.112  -0.215  -2.459  0.00  0.00    -0.277 N 
ATOM      2  C   UNL     1       0.629  -0.886  -3.507  0.00  0.00    +0.258 C 
ATOM      3  O   UNL     1       1.145  -1.971  -3.338  0.00  0.00    -0.271 OA
ATOM      4  H   UNL     1      -0.236   0.682  -2.582  0.00  0.00    +0.155 HD
ENDROOT
BRANCH   1   7
ATOM      5  C   UNL     1      -2.435  -0.673  -0.811  0.00  0.00    +0.067 C 
ATOM      6  C   UNL     1      -1.023  -1.034  -0.431  0.00  0.00    +0.059 A 
ATOM      7  C   UNL     1       0.078  -0.816  -1.185  0.00  0.00    +0.121 A 
ATOM      8  C   UNL     1       1.227  -1.321  -0.432  0.00  0.00    +0.293 A 
ATOM      9  O   UNL     1       2.392  -1.301  -0.787  0.00  0.00    -0.264 OA
ATOM     10  N   UNL     1       0.749  -1.813   0.730  0.00  0.00    -0.216 N 
ATOM     11  N   UNL     1      -0.639  -1.634   0.740  0.00  0.00    -0.282 N 
ATOM     12  C   UNL     1      -1.538  -2.027   1.827  0.00  0.00    +0.171 C 
BRANCH  10  13
ATOM     13  C   UNL     1       1.509  -2.395   1.749  0.00  0.00    +0.067 A 
ATOM     14  C   UNL     1       1.114  -3.603   2.308  0.00  0.00    +0.028 A 
ATOM     15  C   UNL     1       1.867  -4.175   3.315  0.00  0.00    +0.002 A 
ATOM     16  C   UNL     1       3.013  -3.546   3.766  0.00  0.00    +0.000 A 
ATOM     17  C   UNL     1       3.409  -2.343   3.212  0.00  0.00    +0.002 A 
ATOM     18  C   UNL     1       2.664  -1.768   2.201  0.00  0.00    +0.028 A 
ENDBRANCH  10  13
ENDBRANCH   1   7
BRANCH   2  19
ATOM     19  C   UNL     1       0.565  -0.289  -4.890  0.00  0.00    +0.259 C 
ATOM     20  C   UNL     1       1.414   0.983  -4.935  0.00  0.00    +0.062 C 
BRANCH  19  21
ATOM     21  O   UNL     1       1.068  -1.232  -5.839  0.00  0.00    -0.449 OA
BRANCH  21  22
ATOM     22  C   UNL     1       0.555  -1.179  -7.084  0.00  0.00    +0.341 C 
ATOM     23  O   UNL     1      -0.295  -0.356  -7.355  0.00  0.00    -0.245 OA
BRANCH  22  24
ATOM     24  C   UNL     1       1.028  -2.123  -8.118  0.00  0.00    +0.073 A 
ATOM     25  C   UNL     1       0.391  -3.375  -8.310  0.00  0.00    +0.015 A 
ATOM     26  C   UNL     1      -0.703  -3.767  -7.528  0.00  0.00    +0.011 A 
ATOM     27  C   UNL     1      -1.286  -4.980  -7.745  0.00  0.00    +0.001 A 
ATOM     28  C   UNL     1      -0.807  -5.835  -8.736  0.00  0.00    +0.002 A 
ATOM     29  C   UNL     1       0.254  -5.485  -9.512  0.00  0.00    +0.028 A 
ATOM     30  C   UNL     1       0.883  -4.241  -9.318  0.00  0.00    +0.072 A 
ATOM     31  N   UNL     1       1.925  -3.873 -10.063  0.00  0.00    -0.251 NA
ATOM     32  C   UNL     1       2.532  -2.718  -9.903  0.00  0.00    +0.046 A 
ATOM     33  C   UNL     1       2.106  -1.807  -8.937  0.00  0.00    -0.012 A 
ATOM     34  C   UNL     1       2.975  -0.570  -8.979  0.00  0.00    +0.038 C 
ATOM     35  C   UNL     1       4.236  -0.990  -9.763  0.00  0.00    +0.011 C 
ATOM     36  C   UNL     1       3.718  -2.138 -10.649  0.00  0.00    +0.056 C 
ENDBRANCH  22  24
ENDBRANCH  21  22
ENDBRANCH  19  21
ENDBRANCH   2  19
TORSDOF 6
