REMARK  Name = ZINC39671069
REMARK  6 active torsions:
REMARK  status: ('A' for Active; 'I' for Inactive)
REMARK    1  A    between atoms: C_4  and  C_7
REMARK    2  A    between atoms: C_10  and  C_12
REMARK    3  A    between atoms: C_16  and  C_25
REMARK    4  A    between atoms: N_27  and  C_28
REMARK    5  A    between atoms: C_28  and  C_29
REMARK    6  A    between atoms: C_29  and  C_30
REMARK                            x       y       z     vdW  Elec       q    Type
REMARK                         _______ _______ _______ _____ _____    ______ ____
ROOT
ATOM      1  C   UNL     1       7.022  -0.759  -0.178  0.00  0.00    +0.282 C 
ATOM      2  O   UNL     1       7.702  -1.768  -0.228  0.00  0.00    -0.267 OA
ATOM      3  N   UNL     1       7.614   0.451  -0.131  0.00  0.00    -0.294 N 
ATOM      4  C   UNL     1       6.961   1.779  -0.061  0.00  0.00    +0.121 C 
ATOM      5  C   UNL     1       7.840   2.596   0.912  0.00  0.00    +0.100 C 
ATOM      6  C   UNL     1       9.220   1.919   0.856  0.00  0.00    -0.004 C 
ATOM      7  C   UNL     1       9.065   0.753  -0.131  0.00  0.00    +0.115 C 
ATOM      8  C   UNL     1       9.605   1.388   2.234  0.00  0.00    -0.010 C 
ATOM      9  C   UNL     1      11.004   0.771   2.165  0.00  0.00    -0.082 C 
ATOM     10  N   UNL     1      11.968   1.786   1.723  0.00  0.00    +0.379 N 
ATOM     11  C   UNL     1      11.644   2.224   0.360  0.00  0.00    -0.082 C 
ATOM     12  C   UNL     1      10.272   2.903   0.352  0.00  0.00    -0.010 C 
ATOM     13  H   UNL     1      11.930   2.578   2.348  0.00  0.00    -0.086 HD
ATOM     14  H   UNL     1      12.898   1.395   1.738  0.00  0.00    -0.086 HD
ENDROOT
BRANCH   1  18
ATOM     15  C   UNL     1       3.437  -0.299  -0.124  0.00  0.00    +0.136 A 
ATOM     16  C   UNL     1       3.481  -1.662  -0.184  0.00  0.00    +0.050 A 
ATOM     17  C   UNL     1       4.831  -2.028  -0.213  0.00  0.00    +0.055 A 
ATOM     18  C   UNL     1       5.561  -0.861  -0.169  0.00  0.00    +0.190 A 
ATOM     19  O   UNL     1       4.694   0.173  -0.122  0.00  0.00    -0.450 OA
BRANCH  15  23
ATOM     20  C   UNL     1      -0.092   2.059   0.011  0.00  0.00    +0.000 A 
ATOM     21  C   UNL     1       1.147   2.674   0.021  0.00  0.00    +0.001 A 
ATOM     22  C   UNL     1       2.298   1.914  -0.023  0.00  0.00    +0.011 A 
ATOM     23  C   UNL     1       2.209   0.521  -0.077  0.00  0.00    +0.017 A 
ATOM     24  C   UNL     1       0.955  -0.092  -0.086  0.00  0.00    +0.011 A 
ATOM     25  C   UNL     1      -0.187   0.680  -0.042  0.00  0.00    +0.001 A 
ENDBRANCH  15  23
ENDBRANCH   1  18
BRANCH   5  26
ATOM     26  C   UNL     1       7.277   2.531   2.308  0.00  0.00    +0.218 C 
ATOM     27  O   UNL     1       6.664   1.549   2.670  0.00  0.00    -0.275 OA
ATOM     28  N   UNL     1       7.456   3.563   3.156  0.00  0.00    -0.315 N 
ATOM     29  H   UNL     1       7.947   4.348   2.867  0.00  0.00    +0.149 HD
BRANCH  28  30
ATOM     30  C   UNL     1       6.909   3.500   4.513  0.00  0.00    +0.112 C 
BRANCH  30  31
ATOM     31  C   UNL     1       7.251   4.790   5.262  0.00  0.00    +0.093 C 
BRANCH  31  32
ATOM     32  C   UNL     1       6.688   4.724   6.658  0.00  0.00    +0.106 A 
ATOM     33  C   UNL     1       7.325   4.245   7.742  0.00  0.00    +0.044 A 
ATOM     34  C   UNL     1       6.434   4.374   8.832  0.00  0.00    +0.041 A 
ATOM     35  C   UNL     1       5.306   4.926   8.349  0.00  0.00    +0.195 A 
ATOM     36  O   UNL     1       5.468   5.141   7.034  0.00  0.00    -0.468 OA
ENDBRANCH  31  32
ENDBRANCH  30  31
ENDBRANCH  28  30
ENDBRANCH   5  26
TORSDOF 6
