REMARK  Name = ZINC09278312
REMARK  9 active torsions:
REMARK  status: ('A' for Active; 'I' for Inactive)
REMARK    1  A    between atoms: C_1  and  N_2
REMARK    2  A    between atoms: C_6  and  C_7
REMARK    3  A    between atoms: C_7  and  C_8
REMARK    4  A    between atoms: C_11  and  S_19
REMARK    5  A    between atoms: N_12  and  C_13
REMARK    6  A    between atoms: S_19  and  C_20
REMARK    7  A    between atoms: C_20  and  C_21
REMARK    8  A    between atoms: N_23  and  C_24
REMARK    9  A    between atoms: C_26  and  C_31
REMARK                            x       y       z     vdW  Elec       q    Type
REMARK                         _______ _______ _______ _____ _____    ______ ____
ROOT
ATOM      1  C   UNL     1       0.908   2.336  -0.249  0.00  0.00    +0.144 A 
ATOM      2  N   UNL     1       0.309   3.490  -0.344  0.00  0.00    -0.133 NA
ATOM      3  N   UNL     1      -0.924   3.323  -0.665  0.00  0.00    -0.122 NA
ATOM      4  C   UNL     1      -1.182   2.042  -0.800  0.00  0.00    +0.197 A 
ATOM      5  N   UNL     1      -0.021   1.370  -0.533  0.00  0.00    -0.274 N 
ENDROOT
BRANCH   5   6
ATOM      6  C   UNL     1       0.178  -0.018  -0.551  0.00  0.00    +0.050 A 
ATOM      7  C   UNL     1       0.969  -0.594  -1.536  0.00  0.00    +0.026 A 
ATOM      8  C   UNL     1       1.168  -1.961  -1.548  0.00  0.00    +0.002 A 
ATOM      9  C   UNL     1       0.571  -2.756  -0.588  0.00  0.00    +0.000 A 
ATOM     10  C   UNL     1      -0.222  -2.186   0.391  0.00  0.00    +0.002 A 
ATOM     11  C   UNL     1      -0.420  -0.819   0.412  0.00  0.00    +0.026 A 
ENDBRANCH   5   6
BRANCH   1  12
ATOM     12  C   UNL     1       2.355   2.108   0.105  0.00  0.00    +0.130 C 
BRANCH  12  18
ATOM     13  C   UNL     1       3.002   4.202   2.297  0.00  0.00    +0.148 C 
ATOM     14  N   UNL     1       2.760   2.778   2.539  0.00  0.00    -0.353 N 
ATOM     15  C   UNL     1       2.782   2.164   3.756  0.00  0.00    +0.085 A 
ATOM     16  C   UNL     1       2.513   0.855   3.573  0.00  0.00    +0.019 A 
ATOM     17  C   UNL     1       2.312   0.655   2.193  0.00  0.00    +0.023 A 
ATOM     18  C   UNL     1       2.474   1.847   1.585  0.00  0.00    +0.026 A 
ENDBRANCH  12  18
ENDBRANCH   1  12
BRANCH   4  19
ATOM     19  S   UNL     1      -2.731   1.326  -1.238  0.00  0.00    -0.076 S 
BRANCH  19  20
ATOM     20  C   UNL     1      -3.730   2.824  -1.421  0.00  0.00    +0.173 C 
BRANCH  20  21
ATOM     21  C   UNL     1      -5.137   2.446  -1.805  0.00  0.00    +0.228 C 
ATOM     22  O   UNL     1      -5.435   1.278  -1.942  0.00  0.00    -0.275 OA
ATOM     23  N   UNL     1      -6.064   3.405  -1.997  0.00  0.00    -0.284 N 
ATOM     24  H   UNL     1      -5.810   4.340  -1.957  0.00  0.00    +0.155 HD
BRANCH  23  25
ATOM     25  C   UNL     1      -7.394   3.051  -2.253  0.00  0.00    +0.052 A 
ATOM     26  C   UNL     1      -7.933   1.907  -1.680  0.00  0.00    +0.037 A 
ATOM     27  C   UNL     1      -9.247   1.563  -1.931  0.00  0.00    +0.057 A 
ATOM     28  C   UNL     1     -10.023   2.351  -2.761  0.00  0.00    +0.014 A 
ATOM     29  C   UNL     1      -9.489   3.489  -3.337  0.00  0.00    +0.022 A 
ATOM     30  C   UNL     1      -8.177   3.841  -3.086  0.00  0.00    +0.062 A 
ATOM     31 CL   UNL     1      -7.506   5.270  -3.811  0.00  0.00    -0.082 Cl
BRANCH  27  32
ATOM     32  C   UNL     1      -9.833   0.324  -1.306  0.00  0.00    +0.417 C 
ATOM     33  F   UNL     1     -11.165   0.183  -1.709  0.00  0.00    -0.166 F 
ATOM     34  F   UNL     1      -9.101  -0.796  -1.715  0.00  0.00    -0.166 F 
ATOM     35  F   UNL     1      -9.777   0.434   0.088  0.00  0.00    -0.166 F 
ENDBRANCH  27  32
ENDBRANCH  23  25
ENDBRANCH  20  21
ENDBRANCH  19  20
ENDBRANCH   4  19
TORSDOF 8
