REMARK  Name = ZINC35592464
REMARK  13 active torsions:
REMARK  status: ('A' for Active; 'I' for Inactive)
REMARK    1  A    between atoms: C_1  and  C_2
REMARK    2  A    between atoms: C_2  and  C_3
REMARK    3  A    between atoms: C_8  and  N_9
REMARK    4  A    between atoms: C_12  and  C_14
REMARK    5  A    between atoms: C_14  and  C_15
REMARK    6  A    between atoms: C_14  and  C_16
REMARK    7  A    between atoms: C_14  and  C_17
REMARK    8  A    between atoms: C_18  and  C_32
REMARK    9  A    between atoms: N_24  and  C_25
REMARK   10  A    between atoms: C_25  and  C_26
REMARK   11  A    between atoms: N_28  and  C_29
REMARK   12  A    between atoms: C_35  and  O_38
REMARK   13  A    between atoms: O_38  and  C_39
REMARK                            x       y       z     vdW  Elec       q    Type
REMARK                         _______ _______ _______ _____ _____    ______ ____
ROOT
ATOM      1  N   UNL     1      -1.785   2.275  -0.675  0.00  0.00    -0.217 N 
ATOM      2  C   UNL     1      -1.425   2.869   0.486  0.00  0.00    +0.136 A 
ATOM      3  C   UNL     1      -2.410   2.661   1.390  0.00  0.00    +0.034 A 
ATOM      4  C   UNL     1      -3.409   1.910   0.768  0.00  0.00    +0.075 A 
ATOM      5  N   UNL     1      -3.041   1.682  -0.470  0.00  0.00    -0.169 NA
ATOM      6  C   UNL     1      -2.400   3.169   2.808  0.00  0.00    +0.112 C 
ATOM      7  S   UNL     1      -1.206   2.177   3.775  0.00  0.00    -0.138 S 
ATOM      8  C   UNL     1       0.174   1.995   2.595  0.00  0.00    +0.166 C 
ATOM      9  C   UNL     1       0.430   3.285   1.876  0.00  0.00    +0.231 C 
ATOM     10  O   UNL     1       1.258   4.061   2.305  0.00  0.00    -0.274 OA
ATOM     11  N   UNL     1      -0.249   3.584   0.764  0.00  0.00    -0.246 N 
ENDROOT
BRANCH   1  17
ATOM     12  C   UNL     1      -1.678   2.472  -3.082  0.00  0.00    -0.022 A 
ATOM     13  C   UNL     1      -0.945   2.462  -4.252  0.00  0.00    +0.006 A 
ATOM     14  C   UNL     1       0.418   2.234  -4.213  0.00  0.00    +0.000 A 
ATOM     15  C   UNL     1       1.052   2.017  -3.003  0.00  0.00    +0.002 A 
ATOM     16  C   UNL     1       0.324   2.026  -1.830  0.00  0.00    +0.028 A 
ATOM     17  C   UNL     1      -1.045   2.260  -1.865  0.00  0.00    +0.071 A 
BRANCH  12  19
ATOM     18  C   UNL     1      -3.447   4.183  -2.777  0.00  0.00    +0.009 C 
ATOM     19  C   UNL     1      -3.164   2.720  -3.125  0.00  0.00    +0.034 C 
ENDBRANCH  12  19
ENDBRANCH   1  17
BRANCH   6  20
ATOM     20  C   UNL     1      -3.777   3.033   3.405  0.00  0.00    -0.030 A 
ATOM     21  C   UNL     1      -4.051   1.995   4.277  0.00  0.00    +0.008 A 
ATOM     22  C   UNL     1      -5.313   1.868   4.825  0.00  0.00    +0.046 A 
ATOM     23  C   UNL     1      -6.305   2.782   4.500  0.00  0.00    +0.120 A 
ATOM     24  C   UNL     1      -6.027   3.822   3.626  0.00  0.00    +0.046 A 
ATOM     25  C   UNL     1      -4.762   3.949   3.084  0.00  0.00    +0.008 A 
BRANCH  23  26
ATOM     26  O   UNL     1      -7.547   2.658   5.038  0.00  0.00    -0.495 OA
ATOM     27  C   UNL     1      -8.518   3.636   4.659  0.00  0.00    +0.277 C 
ENDBRANCH  23  26
ENDBRANCH   6  20
BRANCH   4  28
ATOM     28  C   UNL     1      -4.693   1.447   1.407  0.00  0.00    +0.007 C 
ATOM     29  C   UNL     1      -5.667   2.623   1.506  0.00  0.00    +0.017 C 
ATOM     30  C   UNL     1      -5.316   0.339   0.556  0.00  0.00    +0.017 C 
ATOM     31  C   UNL     1      -4.399   0.909   2.809  0.00  0.00    +0.017 C 
ENDBRANCH   4  28
BRANCH  11  32
ATOM     32  C   UNL     1       0.222   4.632  -0.144  0.00  0.00    +0.210 C 
BRANCH  32  33
ATOM     33  C   UNL     1      -0.344   5.961   0.286  0.00  0.00    +0.231 C 
ATOM     34  O   UNL     1      -1.071   6.026   1.255  0.00  0.00    -0.274 OA
ATOM     35  N   UNL     1      -0.044   7.077  -0.407  0.00  0.00    -0.311 N 
ATOM     36  H   UNL     1       0.537   7.026  -1.182  0.00  0.00    +0.149 HD
BRANCH  35  37
ATOM     37  C   UNL     1      -0.595   8.369   0.011  0.00  0.00    +0.073 C 
ATOM     38  C   UNL     1      -1.140   9.291  -1.082  0.00  0.00    +0.024 C 
ATOM     39  C   UNL     1       0.179   9.628  -0.384  0.00  0.00    +0.024 C 
ENDBRANCH  35  37
ENDBRANCH  32  33
ENDBRANCH  11  32
TORSDOF 8
