REMARK  Name = ZINC36303593
REMARK  17 active torsions:
REMARK  status: ('A' for Active; 'I' for Inactive)
REMARK    1  A    between atoms: C_1  and  C_2
REMARK    2  A    between atoms: C_3  and  C_21
REMARK    3  A    between atoms: C_4  and  O_13
REMARK    4  A    between atoms: N_5  and  C_7
REMARK    5  A    between atoms: O_13  and  C_14
REMARK    6  A    between atoms: C_21  and  N_22
REMARK    7  A    between atoms: N_22  and  C_23
REMARK    8  A    between atoms: N_22  and  C_27
REMARK    9  A    between atoms: C_23  and  C_24
REMARK   10  A    between atoms: C_27  and  C_28
REMARK   11  A    between atoms: C_28  and  C_30
REMARK   12  A    between atoms: C_28  and  O_36
REMARK   13  A    between atoms: C_30  and  O_31
REMARK   14  A    between atoms: O_31  and  C_32
REMARK   15  A    between atoms: C_32  and  C_33
REMARK   16  A    between atoms: C_33  and  C_34
REMARK   17  A    between atoms: C_33  and  C_35
REMARK                            x       y       z     vdW  Elec       q    Type
REMARK                         _______ _______ _______ _____ _____    ______ ____
ROOT
ATOM      1  C   UNL     1       0.936  -3.704  -2.200  0.00  0.00    +0.068 C 
ATOM      2  C   UNL     1      -0.055  -3.187  -3.211  0.00  0.00    +0.065 A 
ATOM      3  C   UNL     1      -0.443  -1.853  -3.368  0.00  0.00    +0.021 A 
ATOM      4  C   UNL     1      -1.349  -1.798  -4.381  0.00  0.00    +0.225 A 
ATOM      5  N   UNL     1      -1.522  -3.065  -4.844  0.00  0.00    -0.200 N 
ATOM      6  N   UNL     1      -0.694  -3.911  -4.095  0.00  0.00    -0.168 NA
ENDROOT
BRANCH   5   7
ATOM      7  C   UNL     1      -2.372  -3.454  -5.888  0.00  0.00    +0.069 A 
ATOM      8  C   UNL     1      -3.651  -2.920  -5.980  0.00  0.00    +0.028 A 
ATOM      9  C   UNL     1      -4.486  -3.305  -7.010  0.00  0.00    +0.002 A 
ATOM     10  C   UNL     1      -4.051  -4.221  -7.950  0.00  0.00    +0.000 A 
ATOM     11  C   UNL     1      -2.778  -4.755  -7.861  0.00  0.00    +0.002 A 
ATOM     12  C   UNL     1      -1.936  -4.370  -6.836  0.00  0.00    +0.028 A 
ENDBRANCH   5   7
BRANCH   4  13
ATOM     13  O   UNL     1      -1.968  -0.682  -4.845  0.00  0.00    -0.436 OA
BRANCH  13  14
ATOM     14  C   UNL     1      -3.109  -0.282  -4.224  0.00  0.00    +0.149 A 
ATOM     15  C   UNL     1      -3.548  -0.939  -3.084  0.00  0.00    +0.048 A 
ATOM     16  C   UNL     1      -4.707  -0.529  -2.455  0.00  0.00    +0.004 A 
ATOM     17  C   UNL     1      -5.432   0.535  -2.961  0.00  0.00    +0.002 A 
ATOM     18  C   UNL     1      -4.998   1.192  -4.097  0.00  0.00    +0.024 A 
ATOM     19  C   UNL     1      -3.834   0.790  -4.728  0.00  0.00    +0.083 A 
ATOM     20 CL   UNL     1      -3.286   1.620  -6.150  0.00  0.00    -0.080 Cl
ENDBRANCH  13  14
ENDBRANCH   4  13
BRANCH   3  21
ATOM     21  C   UNL     1       0.054  -0.684  -2.558  0.00  0.00    -0.036 C 
BRANCH  21  22
ATOM     22  N   UNL     1       1.317  -0.196  -3.126  0.00  0.00    +0.384 N 
ATOM     23  H   UNL     1       1.975  -0.959  -3.187  0.00  0.00    -0.081 HD
BRANCH  22  24
ATOM     24  C   UNL     1       1.868   0.858  -2.263  0.00  0.00    -0.075 C 
BRANCH  24  25
ATOM     25  C   UNL     1       2.251   0.259  -0.908  0.00  0.00    -0.028 C 
ATOM     26  C   UNL     1       1.514   0.780   0.328  0.00  0.00    +0.002 C 
ATOM     27  C   UNL     1       2.974   1.169   0.087  0.00  0.00    +0.002 C 
ENDBRANCH  24  25
ENDBRANCH  22  24
BRANCH  22  28
ATOM     28  C   UNL     1       1.073   0.347  -4.469  0.00  0.00    -0.044 C 
BRANCH  28  29
ATOM     29  C   UNL     1       2.406   0.741  -5.110  0.00  0.00    +0.124 C 
BRANCH  29  30
ATOM     30  O   UNL     1       3.200  -0.430  -5.314  0.00  0.00    -0.391 OA
ATOM     31  H   UNL     1       2.788  -1.088  -5.891  0.00  0.00    +0.210 HD
ENDBRANCH  29  30
BRANCH  29  32
ATOM     32  C   UNL     1       2.144   1.421  -6.455  0.00  0.00    +0.189 C 
BRANCH  32  33
ATOM     33  O   UNL     1       3.378   1.892  -6.999  0.00  0.00    -0.377 OA
BRANCH  33  34
ATOM     34  C   UNL     1       3.244   2.547  -8.262  0.00  0.00    +0.163 C 
BRANCH  34  35
ATOM     35  C   UNL     1       4.621   3.006  -8.747  0.00  0.00    +0.009 C 
ATOM     36  C   UNL     1       4.496   3.595 -10.153  0.00  0.00    +0.009 C 
ATOM     37  C   UNL     1       5.167   4.072  -7.794  0.00  0.00    +0.009 C 
ENDBRANCH  34  35
ENDBRANCH  33  34
ENDBRANCH  32  33
ENDBRANCH  29  32
ENDBRANCH  28  29
ENDBRANCH  22  28
ENDBRANCH  21  22
ENDBRANCH   3  21
TORSDOF 14
