REMARK  Name = ZINC08666459
REMARK  5 active torsions:
REMARK  status: ('A' for Active; 'I' for Inactive)
REMARK    1  A    between atoms: C_4  and  C_7
REMARK    2  A    between atoms: C_14  and  N_63
REMARK    3  A    between atoms: C_26  and  N_28
REMARK    4  A    between atoms: N_28  and  S_29
REMARK    5  A    between atoms: S_29  and  C_32
REMARK                            x       y       z     vdW  Elec       q    Type
REMARK                         _______ _______ _______ _____ _____    ______ ____
ROOT
ATOM      1  C   UNL     1       3.707   7.348   1.571  0.00  0.00    -0.014 C 
ATOM      2  C   UNL     1       3.771   6.917   3.017  0.00  0.00    -0.051 A 
ATOM      3  C   UNL     1       4.648   6.193   3.762  0.00  0.00    +0.003 A 
ATOM      4  C   UNL     1       4.404   5.967   5.119  0.00  0.00    +0.001 A 
ATOM      5  C   UNL     1       3.295   6.450   5.752  0.00  0.00    +0.008 A 
ATOM      6  C   UNL     1       2.367   7.201   5.012  0.00  0.00    -0.017 A 
ATOM      7  C   UNL     1       2.634   7.415   3.648  0.00  0.00    -0.012 A 
ATOM      8  C   UNL     1       1.784   8.143   2.821  0.00  0.00    -0.022 A 
ATOM      9  C   UNL     1       0.651   8.663   3.369  0.00  0.00    +0.006 A 
ATOM     10  C   UNL     1       0.366   8.464   4.722  0.00  0.00    +0.001 A 
ATOM     11  C   UNL     1       1.190   7.752   5.545  0.00  0.00    +0.008 A 
ATOM     12  C   UNL     1       2.397   8.156   1.442  0.00  0.00    +0.098 C 
ENDROOT
BRANCH   1  20
ATOM     13  C   UNL     1       3.657   2.160  -0.020  0.00  0.00    +0.246 C 
ATOM     14  O   UNL     1       4.714   1.568   0.074  0.00  0.00    -0.270 OA
ATOM     15  N   UNL     1       3.643   3.505  -0.115  0.00  0.00    -0.301 N 
ATOM     16  C   UNL     1       2.375   4.249  -0.108  0.00  0.00    +0.089 C 
ATOM     17  C   UNL     1       2.473   5.359   0.951  0.00  0.00    -0.059 C 
ATOM     18  C   UNL     1       4.895   5.374   0.825  0.00  0.00    -0.059 C 
ATOM     19  C   UNL     1       4.896   4.266  -0.233  0.00  0.00    +0.089 C 
ATOM     20  N   UNL     1       3.667   6.183   0.663  0.00  0.00    +0.388 N 
ATOM     21  H   UNL     1       3.614   6.518  -0.306  0.00  0.00    -0.081 HD
BRANCH  13  25
ATOM     22  C   UNL     1       0.004  -0.007  -0.049  0.00  0.00    +0.000 A 
ATOM     23  C   UNL     1       0.165   1.083  -0.887  0.00  0.00    +0.001 A 
ATOM     24  C   UNL     1       1.349   1.790  -0.882  0.00  0.00    +0.013 A 
ATOM     25  C   UNL     1       2.385   1.406  -0.030  0.00  0.00    +0.037 A 
ATOM     26  C   UNL     1       2.216   0.306   0.813  0.00  0.00    +0.013 A 
ATOM     27  C   UNL     1       1.027  -0.393   0.798  0.00  0.00    +0.001 A 
ENDBRANCH  13  25
ENDBRANCH   1  20
BRANCH  12  28
ATOM     28  N   UNL     1       2.688   9.530   1.027  0.00  0.00    -0.184 NA
ATOM     29  H   UNL     1       3.492   9.972   1.340  0.00  0.00    +0.149 HD
BRANCH  28  30
ATOM     30  S   UNL     1       1.643  10.330   0.021  0.00  0.00    +0.059 S 
ATOM     31  O   UNL     1       2.181  11.631  -0.172  0.00  0.00    -0.153 OA
ATOM     32  O   UNL     1       1.367   9.451  -1.060  0.00  0.00    -0.153 OA
BRANCH  30  33
ATOM     33  C   UNL     1       0.130  10.537   0.901  0.00  0.00    +0.105 A 
ATOM     34  C   UNL     1      -0.857   9.572   0.814  0.00  0.00    +0.028 A 
ATOM     35  C   UNL     1      -2.042   9.732   1.508  0.00  0.00    +0.002 A 
ATOM     36  C   UNL     1      -2.244  10.861   2.280  0.00  0.00    +0.000 A 
ATOM     37  C   UNL     1      -1.260  11.828   2.362  0.00  0.00    +0.002 A 
ATOM     38  C   UNL     1      -0.073  11.665   1.672  0.00  0.00    +0.028 A 
ENDBRANCH  30  33
ENDBRANCH  28  30
ENDBRANCH  12  28
TORSDOF 5
