REMARK  Name = ZINC00924889
REMARK  11 active torsions:
REMARK  status: ('A' for Active; 'I' for Inactive)
REMARK    1  A    between atoms: C_1  and  C_2
REMARK    2  A    between atoms: C_2  and  O_3
REMARK    3  A    between atoms: O_3  and  C_4
REMARK    4  A    between atoms: C_11  and  C_16
REMARK    5  A    between atoms: C_16  and  N_17
REMARK    6  A    between atoms: N_17  and  C_18
REMARK    7  A    between atoms: N_17  and  S_27
REMARK    8  A    between atoms: C_18  and  C_19
REMARK    9  A    between atoms: C_19  and  C_20
REMARK   10  A    between atoms: C_24  and  C_26
REMARK   11  A    between atoms: S_27  and  C_30
REMARK                            x       y       z     vdW  Elec       q    Type
REMARK                         _______ _______ _______ _____ _____    ______ ____
ROOT
ATOM      1  N   UNL     1       4.119  -1.257  -1.538  0.00  0.00    -0.172 NA
ENDROOT
BRANCH   1   2
ATOM      2  S   UNL     1       3.884  -1.254   0.101  0.00  0.00    +0.061 S 
ATOM      3  O   UNL     1       4.995  -0.575   0.669  0.00  0.00    -0.153 OA
ATOM      4  O   UNL     1       3.536  -2.583   0.465  0.00  0.00    -0.153 OA
BRANCH   2   5
ATOM      5  C   UNL     1       2.467  -0.257   0.422  0.00  0.00    +0.109 A 
ATOM      6  C   UNL     1       1.202  -0.811   0.350  0.00  0.00    +0.032 A 
ATOM      7  C   UNL     1       0.089  -0.032   0.599  0.00  0.00    +0.051 A 
ATOM      8  C   UNL     1       0.237   1.309   0.922  0.00  0.00    +0.162 A 
ATOM      9  C   UNL     1       1.508   1.865   0.999  0.00  0.00    +0.164 A 
ATOM     10  C   UNL     1       2.622   1.078   0.746  0.00  0.00    +0.078 A 
ATOM     11  O   UNL     1       1.676   3.176   1.323  0.00  0.00    -0.485 OA
ATOM     12  C   UNL     1       0.527   4.022   1.202  0.00  0.00    +0.270 C 
ATOM     13  C   UNL     1      -0.667   3.305   1.846  0.00  0.00    +0.270 C 
ATOM     14  O   UNL     1      -0.870   2.066   1.157  0.00  0.00    -0.485 OA
ENDBRANCH   2   5
ENDBRANCH   1   2
BRANCH   1  15
ATOM     15  C   UNL     1       3.396  -2.214  -2.380  0.00  0.00    +0.150 C 
BRANCH  15  23
ATOM     16  C   UNL     1       6.051  -7.795  -1.901  0.00  0.00    +0.121 A 
ATOM     17  C   UNL     1       6.883  -7.661  -3.011  0.00  0.00    +0.047 A 
ATOM     18  C   UNL     1       6.868  -6.508  -3.763  0.00  0.00    +0.030 A 
ATOM     19  C   UNL     1       6.016  -5.463  -3.418  0.00  0.00    +0.049 A 
ATOM     20  C   UNL     1       5.174  -5.595  -2.298  0.00  0.00    +0.002 A 
ATOM     21  C   UNL     1       5.198  -6.772  -1.542  0.00  0.00    +0.055 A 
ATOM     22  C   UNL     1       4.286  -4.486  -1.943  0.00  0.00    +0.020 A 
ATOM     23  C   UNL     1       4.301  -3.372  -2.715  0.00  0.00    +0.033 A 
ATOM     24  C   UNL     1       5.164  -3.289  -3.828  0.00  0.00    +0.254 A 
ATOM     25  O   UNL     1       5.165  -2.276  -4.506  0.00  0.00    -0.268 OA
ATOM     26  N   UNL     1       5.987  -4.300  -4.160  0.00  0.00    -0.322 N 
ATOM     27  H   UNL     1       6.585  -4.207  -4.955  0.00  0.00    +0.169 HD
BRANCH  16  28
ATOM     28  O   UNL     1       6.079  -8.941  -1.170  0.00  0.00    -0.492 OA
BRANCH  28  30
ATOM     29  C   UNL     1       6.875 -11.165  -0.658  0.00  0.00    +0.048 C 
ATOM     30  C   UNL     1       6.984  -9.961  -1.596  0.00  0.00    +0.225 C 
ENDBRANCH  28  30
ENDBRANCH  16  28
ENDBRANCH  15  23
ENDBRANCH   1  15
BRANCH   1  31
ATOM     31  C   UNL     1       5.049  -0.303  -2.147  0.00  0.00    +0.114 C 
BRANCH  31  32
ATOM     32  C   UNL     1       6.440  -0.935  -2.237  0.00  0.00    +0.052 C 
BRANCH  32  33
ATOM     33  C   UNL     1       7.424   0.088  -2.744  0.00  0.00    -0.046 A 
ATOM     34  C   UNL     1       7.652   0.215  -4.101  0.00  0.00    +0.004 A 
ATOM     35  C   UNL     1       8.552   1.156  -4.566  0.00  0.00    +0.001 A 
ATOM     36  C   UNL     1       9.230   1.964  -3.673  0.00  0.00    +0.003 A 
ATOM     37  C   UNL     1       9.005   1.835  -2.315  0.00  0.00    -0.050 A 
ATOM     38  C   UNL     1       8.102   0.896  -1.851  0.00  0.00    +0.007 A 
ATOM     39  C   UNL     1       9.744   2.716  -1.341  0.00  0.00    +0.044 C 
ENDBRANCH  32  33
ENDBRANCH  31  32
ENDBRANCH   1  31
TORSDOF 9
