REMARK  Name = ZINC22454004
REMARK  5 active torsions:
REMARK  status: ('A' for Active; 'I' for Inactive)
REMARK    1  A    between atoms: C_1  and  C_2
REMARK    2  A    between atoms: C_3  and  C_20
REMARK    3  A    between atoms: C_11  and  C_19
REMARK    4  A    between atoms: C_16  and  C_18
REMARK    5  A    between atoms: C_20  and  C_21
REMARK                            x       y       z     vdW  Elec       q    Type
REMARK                         _______ _______ _______ _____ _____    ______ ____
ROOT
ATOM      1  C   UNL     1       2.789   2.197  -1.586  0.00  0.00    +0.066 C 
ATOM      2  C   UNL     1       1.575   2.685  -0.839  0.00  0.00    +0.050 A 
ATOM      3  C   UNL     1       0.735   1.788  -0.246  0.00  0.00    +0.042 A 
ATOM      4  C   UNL     1      -0.395   2.266   0.441  0.00  0.00    +0.256 A 
ATOM      5  O   UNL     1      -1.170   1.492   0.979  0.00  0.00    -0.267 OA
ATOM      6  N   UNL     1      -0.603   3.599   0.499  0.00  0.00    -0.295 N 
ATOM      7  H   UNL     1      -1.475   3.997   1.039  0.00  0.00    +0.172 HD
ATOM      8  C   UNL     1       0.269   4.446  -0.113  0.00  0.00    +0.199 A 
ATOM      9  N   UNL     1       1.323   3.989  -0.759  0.00  0.00    -0.221 NA
ATOM     10  N   UNL     1       0.048   5.796  -0.056  0.00  0.00    -0.296 N 
ATOM     11  C   UNL     1       0.284   6.311   1.299  0.00  0.00    +0.073 C 
ATOM     12  C   UNL     1       0.170   7.837   1.294  0.00  0.00    +0.022 C 
ATOM     13  C   UNL     1      -1.227   8.238   0.811  0.00  0.00    +0.004 C 
ATOM     14  C   UNL     1      -1.466   7.649  -0.582  0.00  0.00    +0.022 C 
ATOM     15  C   UNL     1      -1.305   6.128  -0.522  0.00  0.00    +0.073 C 
ATOM     16  C   UNL     1      -1.523   5.537  -1.916  0.00  0.00    +0.028 C 
ATOM     17  C   UNL     1      -0.757   5.725   2.256  0.00  0.00    +0.028 C 
ENDROOT
BRANCH   3  18
ATOM     18  C   UNL     1       1.010   0.308  -0.330  0.00  0.00    +0.078 C 
BRANCH  18  19
ATOM     19  C   UNL     1       1.766  -0.132   0.897  0.00  0.00    -0.035 A 
ATOM     20  C   UNL     1       2.012   0.751   1.903  0.00  0.00    +0.004 A 
ATOM     21  C   UNL     1       2.708   0.362   3.046  0.00  0.00    +0.001 A 
ATOM     22  C   UNL     1       3.164  -0.913   3.188  0.00  0.00    +0.008 A 
ATOM     23  C   UNL     1       2.929  -1.853   2.171  0.00  0.00    -0.018 A 
ATOM     24  C   UNL     1       2.215  -1.459   1.011  0.00  0.00    -0.014 A 
ATOM     25  C   UNL     1       1.984  -2.398  -0.008  0.00  0.00    +0.009 A 
ATOM     26  C   UNL     1       2.440  -3.672   0.134  0.00  0.00    +0.001 A 
ATOM     27  C   UNL     1       3.138  -4.061   1.276  0.00  0.00    +0.001 A 
ATOM     28  C   UNL     1       3.383  -3.179   2.282  0.00  0.00    +0.008 A 
ENDBRANCH  18  19
ENDBRANCH   3  18
TORSDOF 2
