REMARK  Name = ZINC39847456
REMARK  16 active torsions:
REMARK  status: ('A' for Active; 'I' for Inactive)
REMARK    1  A    between atoms: C_1  and  C_2
REMARK    2  A    between atoms: C_2  and  N_3
REMARK    3  A    between atoms: N_3  and  C_4
REMARK    4  A    between atoms: N_3  and  C_6
REMARK    5  A    between atoms: C_4  and  C_5
REMARK    6  A    between atoms: C_6  and  C_7
REMARK    7  A    between atoms: C_7  and  N_8
REMARK    8  A    between atoms: C_9  and  C_30
REMARK    9  A    between atoms: C_11  and  C_16
REMARK   10  A    between atoms: C_16  and  C_18
REMARK   11  A    between atoms: C_23  and  O_28
REMARK   12  A    between atoms: O_28  and  C_29
REMARK   13  A    between atoms: C_33  and  C_36
REMARK   14  A    between atoms: C_36  and  C_37
REMARK   15  A    between atoms: C_36  and  C_38
REMARK   16  A    between atoms: C_36  and  C_39
REMARK                            x       y       z     vdW  Elec       q    Type
REMARK                         _______ _______ _______ _____ _____    ______ ____
ROOT
ATOM      1  N   UNL     1       1.013  -4.122  -2.997  0.00  0.00    -0.285 N 
ATOM      2  C   UNL     1       1.712  -5.234  -2.343  0.00  0.00    +0.145 C 
ATOM      3  C   UNL     1       1.230  -6.493  -3.025  0.00  0.00    +0.076 C 
ATOM      4  C   UNL     1       0.342  -6.109  -3.971  0.00  0.00    +0.249 C 
ATOM      5  C   UNL     1       0.209  -4.638  -3.944  0.00  0.00    +0.288 C 
ATOM      6  O   UNL     1      -0.517  -3.990  -4.671  0.00  0.00    -0.266 OA
ATOM      7  O   UNL     1      -0.322  -6.941  -4.807  0.00  0.00    -0.282 OA
ENDROOT
BRANCH   2   8
ATOM      8  C   UNL     1       1.368  -5.273  -0.877  0.00  0.00    -0.022 A 
ATOM      9  C   UNL     1       0.046  -5.229  -0.475  0.00  0.00    +0.006 A 
ATOM     10  C   UNL     1      -0.270  -5.265   0.870  0.00  0.00    +0.004 A 
ATOM     11  C   UNL     1       0.737  -5.344   1.814  0.00  0.00    -0.042 A 
ATOM     12  C   UNL     1       2.059  -5.389   1.413  0.00  0.00    +0.004 A 
ATOM     13  C   UNL     1       2.375  -5.357   0.068  0.00  0.00    +0.006 A 
BRANCH  11  14
ATOM     14  C   UNL     1       0.393  -5.382   3.281  0.00  0.00    -0.013 C 
ATOM     15  C   UNL     1      -0.481  -6.605   3.568  0.00  0.00    +0.015 C 
ATOM     16  C   UNL     1       1.679  -5.470   4.104  0.00  0.00    +0.015 C 
ATOM     17  C   UNL     1      -0.369  -4.110   3.659  0.00  0.00    +0.015 C 
ENDBRANCH  11  14
ENDBRANCH   2   8
BRANCH   3  18
ATOM     18  C   UNL     1       1.645  -7.866  -2.720  0.00  0.00    +0.195 C 
ATOM     19  O   UNL     1       0.843  -8.655  -2.257  0.00  0.00    -0.287 OA
BRANCH  18  20
ATOM     20  C   UNL     1       3.036  -8.291  -2.975  0.00  0.00    +0.023 A 
ATOM     21  C   UNL     1       3.950  -7.386  -3.546  0.00  0.00    +0.012 A 
ATOM     22  C   UNL     1       5.232  -7.753  -3.789  0.00  0.00    +0.009 A 
ATOM     23  C   UNL     1       5.665  -9.055  -3.471  0.00  0.00    -0.014 A 
ATOM     24  C   UNL     1       6.988  -9.455  -3.714  0.00  0.00    +0.054 A 
ATOM     25  C   UNL     1       7.381 -10.735  -3.391  0.00  0.00    +0.121 A 
ATOM     26  C   UNL     1       6.477 -11.639  -2.824  0.00  0.00    +0.046 A 
ATOM     27  C   UNL     1       5.190 -11.277  -2.577  0.00  0.00    +0.012 A 
ATOM     28  C   UNL     1       4.754  -9.977  -2.895  0.00  0.00    -0.017 A 
ATOM     29  C   UNL     1       3.434  -9.578  -2.645  0.00  0.00    +0.020 A 
BRANCH  25  30
ATOM     30  O   UNL     1       8.661 -11.123  -3.627  0.00  0.00    -0.495 OA
ATOM     31  C   UNL     1       9.008 -12.462  -3.270  0.00  0.00    +0.277 C 
ENDBRANCH  25  30
ENDBRANCH  18  20
ENDBRANCH   3  18
BRANCH   1  32
ATOM     32  C   UNL     1       1.159  -2.701  -2.670  0.00  0.00    +0.090 C 
BRANCH  32  33
ATOM     33  C   UNL     1       0.143  -2.318  -1.592  0.00  0.00    -0.060 C 
BRANCH  33  34
ATOM     34  N   UNL     1       0.322  -0.906  -1.230  0.00  0.00    +0.380 N 
ATOM     35  H   UNL     1       1.284  -0.744  -0.972  0.00  0.00    -0.082 HD
BRANCH  34  37
ATOM     36  C   UNL     1       0.278   1.404  -2.043  0.00  0.00    -0.017 C 
ATOM     37  C   UNL     1      -0.026  -0.058  -2.378  0.00  0.00    -0.082 C 
ENDBRANCH  34  37
BRANCH  34  38
ATOM     38  C   UNL     1      -0.551  -0.577  -0.095  0.00  0.00    -0.082 C 
ATOM     39  C   UNL     1      -0.096  -1.354   1.141  0.00  0.00    -0.017 C 
ENDBRANCH  34  38
ENDBRANCH  33  34
ENDBRANCH  32  33
ENDBRANCH   1  32
TORSDOF 10
