REMARK  Name = ZINC43093818
REMARK  6 active torsions:
REMARK  status: ('A' for Active; 'I' for Inactive)
REMARK    1  A    between atoms: C_1  and  C_2
REMARK    2  A    between atoms: C_2  and  C_3
REMARK    3  A    between atoms: C_3  and  C_5
REMARK    4  A    between atoms: C_3  and  N_20
REMARK    5  A    between atoms: C_5  and  C_7
REMARK    6  A    between atoms: C_5  and  N_14
REMARK                            x       y       z     vdW  Elec       q    Type
REMARK                         _______ _______ _______ _____ _____    ______ ____
ROOT
ATOM      1  C   UNL     1       0.849  -2.021  -1.205  0.00  0.00    +0.124 C 
ENDROOT
BRANCH   1   2
ATOM      2  C   UNL     1       1.585  -2.524   0.010  0.00  0.00    -0.011 A 
ATOM      3  C   UNL     1       2.938  -2.277   0.150  0.00  0.00    +0.007 A 
ATOM      4  C   UNL     1       3.613  -2.739   1.265  0.00  0.00    +0.000 A 
ATOM      5  C   UNL     1       2.935  -3.447   2.240  0.00  0.00    +0.001 A 
ATOM      6  C   UNL     1       1.583  -3.694   2.101  0.00  0.00    +0.015 A 
ATOM      7  C   UNL     1       0.906  -3.228   0.988  0.00  0.00    +0.023 A 
ATOM      8 BR   UNL     1      -0.946  -3.560   0.800  0.00  0.00    -0.050 Br
ENDBRANCH   1   2
BRANCH   1   9
ATOM      9  N   UNL     1       1.335  -2.723  -2.396  0.00  0.00    -0.264 N 
ATOM     10  C   UNL     1       2.608  -3.113  -2.623  0.00  0.00    +0.129 A 
ATOM     11  C   UNL     1       2.641  -3.725  -3.830  0.00  0.00    +0.078 A 
ATOM     12  C   UNL     1       1.345  -3.708  -4.358  0.00  0.00    +0.154 A 
ATOM     13  N   UNL     1       0.561  -3.112  -3.496  0.00  0.00    -0.178 NA
ATOM     14 CL   UNL     1       4.044  -4.410  -4.590  0.00  0.00    -0.080 Cl
ENDBRANCH   1   9
BRANCH   1  15
ATOM     15  C   UNL     1       1.093  -0.519  -1.363  0.00  0.00    -0.046 C 
BRANCH  15  16
ATOM     16  N   UNL     1       0.376  -0.028  -2.547  0.00  0.00    +0.382 N 
ATOM     17  H   UNL     1       0.537   0.962  -2.652  0.00  0.00    -0.090 HD
ATOM     18  H   UNL     1       0.711  -0.512  -3.368  0.00  0.00    -0.090 HD
ATOM     19  H   UNL     1      -0.612  -0.199  -2.437  0.00  0.00    -0.090 HD
ENDBRANCH  15  16
BRANCH  15  21
ATOM     20  C   UNL     1       0.941   1.699  -0.222  0.00  0.00    +0.002 C 
ATOM     21  C   UNL     1       0.586   0.214  -0.120  0.00  0.00    -0.017 C 
ENDBRANCH  15  21
ENDBRANCH   1  15
TORSDOF 5
