REMARK  Name = ZINC22845848
REMARK  9 active torsions:
REMARK  status: ('A' for Active; 'I' for Inactive)
REMARK    1  A    between atoms: C_1  and  C_2
REMARK    2  A    between atoms: C_2  and  O_3
REMARK    3  A    between atoms: O_3  and  C_4
REMARK    4  A    between atoms: C_4  and  C_6
REMARK    5  A    between atoms: C_7  and  C_27
REMARK    6  A    between atoms: C_10  and  N_11
REMARK    7  A    between atoms: C_12  and  C_14
REMARK    8  A    between atoms: C_30  and  O_33
REMARK    9  A    between atoms: O_33  and  C_34
REMARK                            x       y       z     vdW  Elec       q    Type
REMARK                         _______ _______ _______ _____ _____    ______ ____
ROOT
ATOM      1  C   UNL     1       1.357  -0.309  -0.013  0.00  0.00    +0.095 A 
ATOM      2  C   UNL     1       2.278   0.812  -0.015  0.00  0.00    +0.005 A 
ATOM      3  C   UNL     1       1.729   2.053  -0.003  0.00  0.00    +0.056 A 
ATOM      4  S   UNL     1      -0.021   1.727   0.011  0.00  0.00    -0.080 S 
ATOM      5  C   UNL     1       0.002  -0.004   0.002  0.00  0.00    +0.086 A 
ENDROOT
BRANCH   2   6
ATOM      6  C   UNL     1       3.747   0.611  -0.030  0.00  0.00    -0.016 A 
ATOM      7  C   UNL     1       4.343  -0.252   0.888  0.00  0.00    +0.012 A 
ATOM      8  C   UNL     1       5.709  -0.442   0.868  0.00  0.00    +0.046 A 
ATOM      9  C   UNL     1       6.492   0.236  -0.058  0.00  0.00    +0.120 A 
ATOM     10  C   UNL     1       5.902   1.101  -0.969  0.00  0.00    +0.046 A 
ATOM     11  C   UNL     1       4.535   1.290  -0.958  0.00  0.00    +0.012 A 
BRANCH   9  12
ATOM     12  O   UNL     1       7.838   0.052  -0.071  0.00  0.00    -0.495 OA
ATOM     13  C   UNL     1       8.379  -0.852   0.894  0.00  0.00    +0.277 C 
ENDBRANCH   9  12
ENDBRANCH   2   6
BRANCH   5  14
ATOM     14  N   UNL     1      -1.074  -0.877   0.008  0.00  0.00    -0.279 N 
ATOM     15  C   UNL     1      -2.333  -0.395   0.023  0.00  0.00    +0.226 C 
ATOM     16  O   UNL     1      -2.523   0.803   0.030  0.00  0.00    -0.275 OA
ATOM     17  H   UNL     1      -0.901  -1.963   0.001  0.00  0.00    +0.155 HD
BRANCH  15  18
ATOM     18  C   UNL     1      -3.503  -1.344   0.029  0.00  0.00    +0.116 C 
ATOM     19  C   UNL     1      -3.457  -2.219  -1.224  0.00  0.00    +0.113 C 
ATOM     20  C   UNL     1      -3.803  -1.396  -2.436  0.00  0.00    +0.218 C 
ATOM     21  O   UNL     1      -3.254  -1.626  -3.493  0.00  0.00    -0.275 OA
ATOM     22  N   UNL     1      -4.715  -0.410  -2.361  0.00  0.00    -0.285 N 
ATOM     23  C   UNL     1      -5.346  -0.119  -1.147  0.00  0.00    +0.040 A 
ATOM     24  C   UNL     1      -4.788  -0.557   0.047  0.00  0.00    -0.014 A 
ATOM     25  C   UNL     1      -5.411  -0.273   1.246  0.00  0.00    +0.009 A 
ATOM     26  C   UNL     1      -6.590   0.449   1.259  0.00  0.00    +0.039 A 
ATOM     27  C   UNL     1      -7.150   0.889   0.071  0.00  0.00    +0.125 A 
ATOM     28  C   UNL     1      -6.530   0.606  -1.133  0.00  0.00    +0.062 A 
ATOM     29  F   UNL     1      -8.302   1.594   0.088  0.00  0.00    -0.205 F 
ATOM     30  H   UNL     1      -4.969   0.174  -3.258  0.00  0.00    +0.155 HD
ENDBRANCH  15  18
ENDBRANCH   5  14
BRANCH   1  31
ATOM     31  C   UNL     1       1.832  -1.693  -0.025  0.00  0.00    +0.342 C 
ATOM     32  O   UNL     1       2.019  -2.262  -1.084  0.00  0.00    -0.245 OA
BRANCH  31  33
ATOM     33  O   UNL     1       2.062  -2.337   1.137  0.00  0.00    -0.461 OA
BRANCH  33  35
ATOM     34  C   UNL     1       2.736  -4.269   2.458  0.00  0.00    +0.048 C 
ATOM     35  C   UNL     1       2.533  -3.708   1.049  0.00  0.00    +0.229 C 
ENDBRANCH  33  35
ENDBRANCH  31  33
ENDBRANCH   1  31
TORSDOF 7
