REMARK  Name = ZINC09309818
REMARK  9 active torsions:
REMARK  status: ('A' for Active; 'I' for Inactive)
REMARK    1  A    between atoms: C_1  and  C_2
REMARK    2  A    between atoms: C_4  and  C_18
REMARK    3  A    between atoms: C_5  and  C_17
REMARK    4  A    between atoms: N_6  and  C_7
REMARK    5  A    between atoms: C_9  and  O_15
REMARK    6  A    between atoms: C_12  and  O_13
REMARK    7  A    between atoms: O_13  and  C_14
REMARK    8  A    between atoms: O_15  and  C_16
REMARK    9  A    between atoms: C_28  and  C_30
REMARK                            x       y       z     vdW  Elec       q    Type
REMARK                         _______ _______ _______ _____ _____    ______ ____
ROOT
ATOM      1  C   UNL     1       0.130  -3.413  -1.426  0.00  0.00    +0.026 C 
ATOM      2  C   UNL     1       0.588  -3.322  -2.725  0.00  0.00    +0.081 C 
ATOM      3  C   UNL     1       1.180  -2.065  -3.261  0.00  0.00    +0.152 C 
ATOM      4  N   UNL     1       1.872  -1.229  -2.533  0.00  0.00    -0.283 NA
ATOM      5  N   UNL     1       0.920  -1.865  -4.634  0.00  0.00    -0.152 N 
ATOM      6  C   UNL     1       0.634  -2.978  -5.396  0.00  0.00    +0.181 C 
ATOM      7  N   UNL     1       0.478  -4.210  -4.982  0.00  0.00    -0.152 NA
ATOM      8  C   UNL     1       0.524  -4.472  -3.658  0.00  0.00    +0.273 C 
ATOM      9  O   UNL     1       0.509  -5.619  -3.241  0.00  0.00    -0.268 OA
ATOM     10  S   UNL     1       0.519  -2.292  -7.027  0.00  0.00    -0.038 S 
ATOM     11  C   UNL     1       0.756  -0.578  -6.577  0.00  0.00    +0.103 C 
ATOM     12  N   UNL     1       0.938  -0.653  -5.290  0.00  0.00    -0.169 NA
ATOM     13  H   UNL     1       2.206  -0.407  -2.924  0.00  0.00    +0.188 HD
ENDROOT
BRANCH   1  17
ATOM     14  C   UNL     1      -0.266   1.423  -0.017  0.00  0.00    +0.064 C 
ATOM     15  C   UNL     1      -0.171  -0.082  -0.018  0.00  0.00    +0.022 A 
ATOM     16  C   UNL     1      -0.052  -0.853  -1.111  0.00  0.00    +0.031 A 
ATOM     17  C   UNL     1       0.005  -2.243  -0.635  0.00  0.00    -0.003 A 
ATOM     18  C   UNL     1      -0.088  -2.174   0.746  0.00  0.00    +0.028 A 
ATOM     19  N   UNL     1      -0.187  -0.876   1.095  0.00  0.00    -0.314 N 
ATOM     20  C   UNL     1      -0.074  -3.347   1.693  0.00  0.00    +0.064 C 
BRANCH  19  21
ATOM     21  C   UNL     1      -0.295  -0.408   2.412  0.00  0.00    +0.092 A 
ATOM     22  C   UNL     1      -1.544  -0.257   2.996  0.00  0.00    +0.075 A 
ATOM     23  C   UNL     1      -1.648   0.206   4.298  0.00  0.00    +0.122 A 
ATOM     24  C   UNL     1      -0.504   0.520   5.017  0.00  0.00    +0.049 A 
ATOM     25  C   UNL     1       0.742   0.370   4.438  0.00  0.00    +0.051 A 
ATOM     26  C   UNL     1       0.852  -0.098   3.139  0.00  0.00    +0.144 A 
BRANCH  26  27
ATOM     27  O   UNL     1       2.079  -0.250   2.571  0.00  0.00    -0.493 OA
ATOM     28  C   UNL     1       3.212   0.087   3.375  0.00  0.00    +0.277 C 
ENDBRANCH  26  27
BRANCH  23  29
ATOM     29  O   UNL     1      -2.872   0.355   4.871  0.00  0.00    -0.495 OA
ATOM     30  C   UNL     1      -2.905   0.837   6.216  0.00  0.00    +0.277 C 
ENDBRANCH  23  29
ENDBRANCH  19  21
ENDBRANCH   1  17
BRANCH  11  31
ATOM     31  C   UNL     1       0.747   0.642  -7.462  0.00  0.00    +0.046 C 
ATOM     32  C   UNL     1       1.573   1.752  -6.808  0.00  0.00    +0.010 C 
ATOM     33  C   UNL     1       1.563   2.991  -7.706  0.00  0.00    +0.001 C 
ATOM     34  C   UNL     1       0.124   3.471  -7.897  0.00  0.00    +0.000 C 
ATOM     35  C   UNL     1      -0.702   2.362  -8.551  0.00  0.00    +0.001 C 
ATOM     36  C   UNL     1      -0.693   1.123  -7.653  0.00  0.00    +0.010 C 
ENDBRANCH  11  31
TORSDOF 5
