REMARK  Name = ZINC13498438
REMARK  11 active torsions:
REMARK  status: ('A' for Active; 'I' for Inactive)
REMARK    1  A    between atoms: C_1  and  C_2
REMARK    2  A    between atoms: C_2  and  C_3
REMARK    3  A    between atoms: C_10  and  C_15
REMARK    4  A    between atoms: C_15  and  N_72
REMARK    5  A    between atoms: C_16  and  N_72
REMARK    6  A    between atoms: C_21  and  C_23
REMARK    7  A    between atoms: C_21  and  C_33
REMARK    8  A    between atoms: C_21  and  N_72
REMARK    9  A    between atoms: N_27  and  C_28
REMARK   10  A    between atoms: C_33  and  C_34
REMARK   11  A    between atoms: C_33  and  C_35
REMARK                            x       y       z     vdW  Elec       q    Type
REMARK                         _______ _______ _______ _____ _____    ______ ____
ROOT
ATOM      1  N   UNL     1       3.006  -1.985  -0.905  0.00  0.00    +0.391 N 
ATOM      2  H   UNL     1       3.500  -1.157  -0.551  0.00  0.00    -0.080 HD
ENDROOT
BRANCH   1   3
ATOM      3  C   UNL     1       3.000  -1.945  -2.382  0.00  0.00    -0.067 C 
ATOM      4  C   UNL     1       2.110  -3.063  -2.963  0.00  0.00    -0.015 C 
ATOM      5  C   UNL     1       2.864  -3.525  -4.236  0.00  0.00    -0.002 C 
ATOM      6  C   UNL     1       4.348  -3.455  -3.799  0.00  0.00    -0.002 C 
ATOM      7  C   UNL     1       4.422  -2.194  -2.914  0.00  0.00    -0.015 C 
ENDBRANCH   1   3
BRANCH   1   8
ATOM      8  C   UNL     1       3.707  -3.199  -0.435  0.00  0.00    -0.036 C 
BRANCH   8  16
ATOM      9  C   UNL     1       1.411  -8.370  -2.939  0.00  0.00    -0.047 A 
ATOM     10  C   UNL     1       0.446  -8.599  -1.967  0.00  0.00    +0.005 A 
ATOM     11  C   UNL     1       0.306  -7.739  -0.899  0.00  0.00    +0.026 A 
ATOM     12  C   UNL     1       1.140  -6.631  -0.791  0.00  0.00    +0.049 A 
ATOM     13  C   UNL     1       2.117  -6.403  -1.778  0.00  0.00    -0.001 A 
ATOM     14  C   UNL     1       2.241  -7.289  -2.854  0.00  0.00    +0.013 A 
ATOM     15  C   UNL     1       2.990  -5.234  -1.656  0.00  0.00    +0.017 A 
ATOM     16  C   UNL     1       2.825  -4.411  -0.591  0.00  0.00    +0.001 A 
ATOM     17  C   UNL     1       1.833  -4.688   0.374  0.00  0.00    +0.251 A 
ATOM     18  O   UNL     1       1.705  -3.937   1.326  0.00  0.00    -0.268 OA
ATOM     19  N   UNL     1       1.024  -5.755   0.268  0.00  0.00    -0.322 N 
ATOM     20  H   UNL     1       0.350  -5.914   0.947  0.00  0.00    +0.169 HD
BRANCH   9  22
ATOM     21  C   UNL     1       2.535 -10.432  -3.736  0.00  0.00    +0.009 C 
ATOM     22  C   UNL     1       1.544  -9.324  -4.098  0.00  0.00    +0.032 C 
ENDBRANCH   9  22
ENDBRANCH   8  16
ENDBRANCH   1   8
BRANCH   1  23
ATOM     23  C   UNL     1       1.620  -1.972  -0.393  0.00  0.00    +0.006 C 
BRANCH  23  24
ATOM     24  C   UNL     1       0.697  -1.412  -1.444  0.00  0.00    +0.139 A 
ATOM     25  N   UNL     1       0.869  -0.307  -2.128  0.00  0.00    -0.115 NA
ATOM     26  N   UNL     1      -0.134  -0.172  -2.925  0.00  0.00    -0.023 NA
ATOM     27  N   UNL     1      -0.941  -1.162  -2.768  0.00  0.00    -0.044 NA
ATOM     28  N   UNL     1      -0.464  -1.948  -1.863  0.00  0.00    -0.228 N 
BRANCH  28  29
ATOM     29  C   UNL     1      -1.072  -3.192  -1.383  0.00  0.00    +0.111 C 
ATOM     30  C   UNL     1      -1.278  -4.168  -2.559  0.00  0.00    +0.027 C 
ATOM     31  C   UNL     1      -2.625  -4.866  -2.240  0.00  0.00    +0.002 C 
ATOM     32  C   UNL     1      -3.472  -3.717  -1.639  0.00  0.00    +0.002 C 
ATOM     33  C   UNL     1      -2.466  -2.905  -0.798  0.00  0.00    +0.027 C 
ENDBRANCH  28  29
ENDBRANCH  23  24
BRANCH  23  34
ATOM     34  C   UNL     1       1.571  -1.086   0.854  0.00  0.00    -0.024 C 
ATOM     35  C   UNL     1       2.679  -1.506   1.821  0.00  0.00    +0.006 C 
ATOM     36  C   UNL     1       1.774   0.375   0.449  0.00  0.00    +0.006 C 
ENDBRANCH  23  34
ENDBRANCH   1  23
TORSDOF 8
