REMARK  Name = ZINC20922221
REMARK  5 active torsions:
REMARK  status: ('A' for Active; 'I' for Inactive)
REMARK    1  A    between atoms: C_6  and  C_7
REMARK    2  A    between atoms: C_7  and  S_8
REMARK    3  A    between atoms: S_8  and  C_9
REMARK    4  A    between atoms: N_13  and  N_14
REMARK    5  A    between atoms: N_15  and  N_16
REMARK                            x       y       z     vdW  Elec       q    Type
REMARK                         _______ _______ _______ _____ _____    ______ ____
ROOT
ATOM      1  C   UNL     1      -0.809   3.844   1.366  0.00  0.00    +0.210 A 
ATOM      2  N   UNL     1      -0.263   4.522   0.387  0.00  0.00    -0.119 NA
ATOM      3  N   UNL     1      -0.432   5.886   0.659  0.00  0.00    -0.110 NA
ATOM      4  C   UNL     1      -1.075   5.996   1.795  0.00  0.00    +0.248 A 
ATOM      5  N   UNL     1      -1.329   4.737   2.260  0.00  0.00    -0.211 N 
ATOM      6  N   UNL     1      -1.438   7.184   2.416  0.00  0.00    -0.251 N 
ATOM      7  H   UNL     1      -1.978   7.161   3.374  0.00  0.00    +0.169 HD
ENDROOT
BRANCH   5   8
ATOM      8  N   UNL     1      -1.986   4.426   3.417  0.00  0.00    -0.294 N 
ATOM      9  H   UNL     1      -2.366   5.228   4.066  0.00  0.00    +0.163 HD
ATOM     10  H   UNL     1      -2.134   3.373   3.698  0.00  0.00    +0.163 HD
ENDBRANCH   5   8
BRANCH   6  11
ATOM     11  N   UNL     1      -1.125   8.381   1.837  0.00  0.00    -0.254 NA
ATOM     12  H   UNL     1      -1.492   9.202   2.470  0.00  0.00    +0.140 HD
ATOM     13  H   UNL     1      -0.033   8.461   1.728  0.00  0.00    +0.140 HD
ENDBRANCH   6  11
BRANCH   1  14
ATOM     14  S   UNL     1      -0.867   2.088   1.503  0.00  0.00    -0.080 S 
BRANCH  14  15
ATOM     15  C   UNL     1      -0.018   1.503   0.010  0.00  0.00    +0.112 C 
BRANCH  15  21
ATOM     16  C   UNL     1       1.057  -0.684   0.582  0.00  0.00    +0.005 A 
ATOM     17  C   UNL     1       1.074  -2.066   0.579  0.00  0.00    +0.015 A 
ATOM     18  C   UNL     1       0.040  -2.769  -0.014  0.00  0.00    +0.018 A 
ATOM     19  C   UNL     1      -1.012  -2.088  -0.599  0.00  0.00    +0.015 A 
ATOM     20  C   UNL     1      -1.031  -0.706  -0.591  0.00  0.00    +0.005 A 
ATOM     21  C   UNL     1       0.002  -0.004   0.002  0.00  0.00    -0.037 A 
ATOM     22 BR   UNL     1       0.066  -4.660  -0.024  0.00  0.00    -0.050 Br
ENDBRANCH  15  21
ENDBRANCH  14  15
ENDBRANCH   1  14
TORSDOF 5
