REMARK  Name = ZINC08136969
REMARK  5 active torsions:
REMARK  status: ('A' for Active; 'I' for Inactive)
REMARK    1  A    between atoms: C_1  and  C_2
REMARK    2  A    between atoms: C_3  and  N_11
REMARK    3  A    between atoms: C_7  and  N_8
REMARK    4  A    between atoms: C_12  and  C_14
REMARK    5  A    between atoms: C_21  and  C_24
REMARK                            x       y       z     vdW  Elec       q    Type
REMARK                         _______ _______ _______ _____ _____    ______ ____
ROOT
ATOM      1  N   UNL     1      -0.817   2.319   5.979  0.00  0.00    -0.281 N 
ATOM      2  C   UNL     1      -1.767   2.542   5.049  0.00  0.00    +0.255 C 
ATOM      3  O   UNL     1      -2.832   3.034   5.374  0.00  0.00    -0.269 OA
ATOM      4  H   UNL     1      -0.002   1.852   5.737  0.00  0.00    +0.155 HD
ENDROOT
BRANCH   2   5
ATOM      5  C   UNL     1      -1.518   2.193   3.648  0.00  0.00    +0.075 A 
ATOM      6  C   UNL     1      -2.348   2.338   2.552  0.00  0.00    +0.024 A 
ATOM      7  C   UNL     1      -1.878   1.927   1.315  0.00  0.00    -0.036 A 
ATOM      8  C   UNL     1      -0.615   1.406   1.280  0.00  0.00    -0.006 A 
ATOM      9  S   UNL     1      -0.063   1.468   2.910  0.00  0.00    -0.088 S 
ATOM     10  C   UNL     1       0.117   0.895   0.078  0.00  0.00    +0.043 C 
ATOM     11  C   UNL     1      -0.617   1.383  -1.180  0.00  0.00    +0.009 C 
ATOM     12  C   UNL     1      -2.113   1.103  -1.017  0.00  0.00    -0.009 C 
ATOM     13  C   UNL     1      -2.706   2.038   0.038  0.00  0.00    +0.039 C 
ATOM     14  C   UNL     1      -2.821   1.332  -2.353  0.00  0.00    +0.008 C 
ENDBRANCH   2   5
BRANCH   1  17
ATOM     15  C   UNL     1       0.588   0.981   8.061  0.00  0.00    +0.048 C 
ATOM     16  C   UNL     1      -0.340   2.135   8.339  0.00  0.00    +0.001 A 
ATOM     17  C   UNL     1      -1.006   2.760   7.292  0.00  0.00    +0.039 A 
ATOM     18  C   UNL     1      -1.856   3.826   7.552  0.00  0.00    +0.024 A 
ATOM     19  C   UNL     1      -2.045   4.256   8.851  0.00  0.00    +0.004 A 
ATOM     20  C   UNL     1      -1.381   3.632   9.891  0.00  0.00    +0.033 A 
ATOM     21  C   UNL     1      -0.529   2.573   9.635  0.00  0.00    +0.131 A 
BRANCH  21  22
ATOM     22  N   UNL     1       0.181   1.908  10.751  0.00  0.00    +0.057 N 
ATOM     23  O   UNL     1      -0.287   1.940  11.875  0.00  0.00    -0.126 OA
ATOM     24  O   UNL     1       1.232   1.329  10.545  0.00  0.00    -0.126 OA
ENDBRANCH  21  22
ENDBRANCH   1  17
TORSDOF 3
