REMARK  Name = ZINC38705966
REMARK  17 active torsions:
REMARK  status: ('A' for Active; 'I' for Inactive)
REMARK    1  A    between atoms: C_1  and  C_2
REMARK    2  A    between atoms: C_2  and  C_3
REMARK    3  A    between atoms: C_3  and  C_4
REMARK    4  A    between atoms: C_4  and  C_5
REMARK    5  A    between atoms: C_5  and  C_6
REMARK    6  A    between atoms: C_6  and  O_7
REMARK    7  A    between atoms: O_7  and  C_8
REMARK    8  A    between atoms: C_11  and  C_14
REMARK    9  A    between atoms: C_17  and  C_30
REMARK   10  A    between atoms: N_24  and  C_25
REMARK   11  A    between atoms: C_25  and  C_26
REMARK   12  A    between atoms: C_26  and  C_27
REMARK   13  A    between atoms: C_27  and  O_28
REMARK   14  A    between atoms: O_28  and  C_29
REMARK   15  A    between atoms: C_31  and  C_38
REMARK   16  A    between atoms: C_33  and  C_37
REMARK   17  A    between atoms: C_35  and  O_36
REMARK                            x       y       z     vdW  Elec       q    Type
REMARK                         _______ _______ _______ _____ _____    ______ ____
ROOT
ATOM      1  C   UNL     1      -4.968  -9.848   0.089  0.00  0.00    +0.141 C 
ATOM      2  C   UNL     1      -5.128 -10.527   1.421  0.00  0.00    +0.035 A 
ATOM      3  C   UNL     1      -4.581 -10.797   2.680  0.00  0.00    +0.102 A 
ATOM      4  N   UNL     1      -5.447 -11.548   3.334  0.00  0.00    -0.173 NA
ATOM      5  N   UNL     1      -6.485 -11.778   2.612  0.00  0.00    -0.272 N 
ATOM      6  H   UNL     1      -7.250 -12.307   2.889  0.00  0.00    +0.189 HD
ATOM      7  C   UNL     1      -6.353 -11.167   1.398  0.00  0.00    +0.126 A 
ATOM      8  C   UNL     1      -6.982 -10.921   0.095  0.00  0.00    +0.265 C 
ATOM      9  O   UNL     1      -8.070 -11.348  -0.242  0.00  0.00    -0.268 OA
ATOM     10  N   UNL     1      -6.185 -10.156  -0.674  0.00  0.00    -0.285 N 
ENDROOT
BRANCH   3  11
ATOM     11  C   UNL     1      -3.268 -10.326   3.188  0.00  0.00    +0.047 A 
ATOM     12  C   UNL     1      -3.173  -9.750   4.452  0.00  0.00    -0.037 A 
ATOM     13  C   UNL     1      -1.950  -9.314   4.919  0.00  0.00    +0.007 A 
ATOM     14  C   UNL     1      -0.817  -9.446   4.136  0.00  0.00    -0.047 A 
ATOM     15  C   UNL     1      -0.901 -10.016   2.879  0.00  0.00    +0.049 A 
ATOM     16  C   UNL     1      -2.122 -10.464   2.401  0.00  0.00    +0.127 A 
ATOM     17  C   UNL     1       0.514  -8.967   4.654  0.00  0.00    +0.044 C 
ATOM     18  C   UNL     1      -4.404  -9.603   5.309  0.00  0.00    +0.044 C 
BRANCH  16  19
ATOM     19  O   UNL     1      -2.204 -11.031   1.169  0.00  0.00    -0.506 OA
ATOM     20  H   UNL     1      -2.316 -10.394   0.450  0.00  0.00    +0.292 HD
ENDBRANCH  16  19
ENDBRANCH   3  11
BRANCH   1  24
ATOM     21  C   UNL     1      -4.596  -5.625   0.624  0.00  0.00    +0.121 A 
ATOM     22  C   UNL     1      -3.497  -6.375   0.228  0.00  0.00    +0.046 A 
ATOM     23  C   UNL     1      -3.620  -7.740   0.056  0.00  0.00    +0.009 A 
ATOM     24  C   UNL     1      -4.837  -8.359   0.278  0.00  0.00    -0.022 A 
ATOM     25  C   UNL     1      -5.933  -7.614   0.671  0.00  0.00    +0.009 A 
ATOM     26  C   UNL     1      -5.814  -6.249   0.850  0.00  0.00    +0.046 A 
BRANCH  21  27
ATOM     27  O   UNL     1      -4.477  -4.282   0.794  0.00  0.00    -0.492 OA
BRANCH  27  28
ATOM     28  C   UNL     1      -3.193  -3.707   0.542  0.00  0.00    +0.229 C 
BRANCH  28  29
ATOM     29  C   UNL     1      -3.254  -2.197   0.785  0.00  0.00    +0.041 C 
BRANCH  29  30
ATOM     30  C   UNL     1      -1.880  -1.582   0.515  0.00  0.00    +0.003 C 
BRANCH  30  31
ATOM     31  C   UNL     1      -1.940  -0.072   0.758  0.00  0.00    -0.000 C 
BRANCH  31  33
ATOM     32  C   UNL     1      -0.627   2.053   0.731  0.00  0.00    +0.004 C 
ATOM     33  C   UNL     1      -0.566   0.543   0.489  0.00  0.00    -0.003 C 
ENDBRANCH  31  33
ENDBRANCH  30  31
ENDBRANCH  29  30
ENDBRANCH  28  29
ENDBRANCH  27  28
ENDBRANCH  21  27
ENDBRANCH   1  24
BRANCH  10  34
ATOM     34  C   UNL     1      -6.480  -9.706  -2.037  0.00  0.00    +0.111 C 
BRANCH  34  35
ATOM     35  C   UNL     1      -5.952 -10.735  -3.039  0.00  0.00    +0.047 C 
BRANCH  35  36
ATOM     36  C   UNL     1      -6.261 -10.265  -4.462  0.00  0.00    +0.161 C 
BRANCH  36  37
ATOM     37  O   UNL     1      -5.768 -11.226  -5.398  0.00  0.00    -0.383 OA
ATOM     38  C   UNL     1      -6.005 -10.881  -6.764  0.00  0.00    +0.193 C 
ENDBRANCH  36  37
ENDBRANCH  35  36
ENDBRANCH  34  35
ENDBRANCH  10  34
TORSDOF 13
