REMARK  Name = ZINC14240257
REMARK  15 active torsions:
REMARK  status: ('A' for Active; 'I' for Inactive)
REMARK    1  A    between atoms: C_1  and  C_2
REMARK    2  A    between atoms: C_2  and  C_3
REMARK    3  A    between atoms: C_2  and  C_4
REMARK    4  A    between atoms: C_4  and  N_5
REMARK    5  A    between atoms: C_6  and  N_31
REMARK    6  A    between atoms: C_7  and  N_14
REMARK    7  A    between atoms: N_14  and  C_15
REMARK    8  A    between atoms: C_15  and  C_16
REMARK    9  A    between atoms: C_16  and  C_17
REMARK   10  A    between atoms: C_16  and  C_18
REMARK   11  A    between atoms: C_19  and  C_21
REMARK   12  A    between atoms: C_21  and  N_63
REMARK   13  A    between atoms: C_22  and  N_63
REMARK   14  A    between atoms: C_23  and  C_24
REMARK   15  A    between atoms: C_23  and  N_63
REMARK                            x       y       z     vdW  Elec       q    Type
REMARK                         _______ _______ _______ _____ _____    ______ ____
ROOT
ATOM      1  N   UNL     1       0.347   1.789  -0.440  0.00  0.00    -0.266 N 
ATOM      2  C   UNL     1      -0.871   1.275  -0.710  0.00  0.00    +0.203 C 
ATOM      3  O   UNL     1      -0.979   0.112  -1.040  0.00  0.00    -0.277 OA
ENDROOT
BRANCH   1   6
ATOM      4  N   UNL     1       2.694  -0.915   0.388  0.00  0.00    -0.280 N 
ATOM      5  C   UNL     1       1.574  -0.117   0.420  0.00  0.00    +0.127 A 
ATOM      6  C   UNL     1       1.484   0.952  -0.448  0.00  0.00    +0.140 A 
ATOM      7  C   UNL     1       2.541   1.190  -1.346  0.00  0.00    +0.277 A 
ATOM      8  O   UNL     1       2.485   2.124  -2.127  0.00  0.00    -0.266 OA
ATOM      9  N   UNL     1       3.619   0.381  -1.333  0.00  0.00    -0.273 N 
ATOM     10  H   UNL     1       4.374   0.554  -1.965  0.00  0.00    +0.173 HD
ATOM     11  C   UNL     1       3.690  -0.656  -0.480  0.00  0.00    +0.331 A 
ATOM     12  O   UNL     1       4.671  -1.374  -0.492  0.00  0.00    -0.246 OA
BRANCH   5  13
ATOM     13  N   UNL     1       0.558  -0.380   1.307  0.00  0.00    -0.343 N 
ATOM     14  H   UNL     1      -0.234   0.179   1.317  0.00  0.00    +0.144 HD
ATOM     15  H   UNL     1       0.633  -1.126   1.923  0.00  0.00    +0.144 HD
ENDBRANCH   5  13
BRANCH   4  16
ATOM     16  C   UNL     1       2.804  -2.053   1.304  0.00  0.00    +0.131 C 
BRANCH  16  18
ATOM     17  C   UNL     1       3.049  -3.679  -0.578  0.00  0.00    +0.009 C 
ATOM     18  C   UNL     1       2.209  -3.298   0.643  0.00  0.00    +0.003 C 
ATOM     19  C   UNL     1       2.210  -4.456   1.643  0.00  0.00    +0.009 C 
ENDBRANCH  16  18
ENDBRANCH   4  16
ENDBRANCH   1   6
BRANCH   1  20
ATOM     20  C   UNL     1       0.490   3.215  -0.138  0.00  0.00    +0.117 C 
BRANCH  20  21
ATOM     21  C   UNL     1       0.207   3.453   1.347  0.00  0.00    +0.001 C 
ATOM     22  C   UNL     1       1.282   2.761   2.188  0.00  0.00    +0.009 C 
ATOM     23  C   UNL     1       0.222   4.955   1.634  0.00  0.00    +0.009 C 
ENDBRANCH  20  21
ENDBRANCH   1  20
BRANCH   2  24
ATOM     24  C   UNL     1      -2.095   2.147  -0.609  0.00  0.00    +0.019 C 
BRANCH  24  26
ATOM     25  C   UNL     1      -3.527   0.304   0.035  0.00  0.00    -0.095 C 
ATOM     26  N   UNL     1      -3.282   1.348  -0.982  0.00  0.00    +0.386 N 
ATOM     27  H   UNL     1      -3.109   0.897  -1.888  0.00  0.00    -0.081 HD
BRANCH  26  28
ATOM     28  C   UNL     1      -4.465   2.226  -1.100  0.00  0.00    -0.042 C 
BRANCH  28  29
ATOM     29  C   UNL     1      -4.381   2.977  -2.404  0.00  0.00    -0.050 A 
ATOM     30  C   UNL     1      -3.985   4.302  -2.414  0.00  0.00    +0.003 A 
ATOM     31  C   UNL     1      -3.903   4.990  -3.610  0.00  0.00    +0.000 A 
ATOM     32  C   UNL     1      -4.226   4.357  -4.795  0.00  0.00    +0.001 A 
ATOM     33  C   UNL     1      -4.627   3.034  -4.786  0.00  0.00    +0.015 A 
ATOM     34  C   UNL     1      -4.705   2.344  -3.590  0.00  0.00    +0.019 A 
ATOM     35 BR   UNL     1      -5.253   0.534  -3.576  0.00  0.00    -0.050 Br
ENDBRANCH  28  29
ENDBRANCH  26  28
ENDBRANCH  24  26
ENDBRANCH   2  24
TORSDOF 10
