REMARK  Name = ZINC63985711
REMARK  10 active torsions:
REMARK  status: ('A' for Active; 'I' for Inactive)
REMARK    1  A    between atoms: C_1  and  C_2
REMARK    2  A    between atoms: C_7  and  S_12
REMARK    3  A    between atoms: S_12  and  C_13
REMARK    4  A    between atoms: C_13  and  C_14
REMARK    5  A    between atoms: C_21  and  C_28
REMARK    6  A    between atoms: N_23  and  C_24
REMARK    7  A    between atoms: C_24  and  C_25
REMARK    8  A    between atoms: C_25  and  C_26
REMARK    9  A    between atoms: C_25  and  C_27
REMARK   10  A    between atoms: N_30  and  C_31
REMARK                            x       y       z     vdW  Elec       q    Type
REMARK                         _______ _______ _______ _____ _____    ______ ____
ROOT
ATOM      1  C   UNL     1       4.241  -4.802   1.804  0.00  0.00    +0.226 C 
ATOM      2  O   UNL     1       4.268  -5.870   2.379  0.00  0.00    -0.275 OA
ATOM      3  N   UNL     1       5.393  -4.186   1.474  0.00  0.00    -0.296 N 
ATOM      4  C   UNL     1       5.382  -2.888   0.782  0.00  0.00    +0.114 C 
ATOM      5  C   UNL     1       6.007  -1.822   1.691  0.00  0.00    +0.074 C 
ATOM      6  C   UNL     1       7.271  -2.380   2.294  0.00  0.00    +0.046 A 
ATOM      7  C   UNL     1       7.574  -3.700   2.345  0.00  0.00    +0.023 A 
ATOM      8  C   UNL     1       8.821  -3.789   2.983  0.00  0.00    +0.152 A 
ATOM      9  N   UNL     1       9.188  -2.551   3.268  0.00  0.00    -0.166 NA
ATOM     10  N   UNL     1       8.290  -1.718   2.868  0.00  0.00    -0.267 N 
ATOM     11  C   UNL     1       6.697  -4.792   1.804  0.00  0.00    +0.147 C 
ENDROOT
BRANCH   8  12
ATOM     12  C   UNL     1       9.576  -5.024   3.279  0.00  0.00    +0.265 C 
ATOM     13  O   UNL     1       9.121  -6.105   2.961  0.00  0.00    -0.268 OA
ATOM     14  N   UNL     1      10.769  -4.951   3.902  0.00  0.00    -0.307 N 
ATOM     15  H   UNL     1      11.132  -4.088   4.155  0.00  0.00    +0.149 HD
BRANCH  14  16
ATOM     16  C   UNL     1      11.518  -6.176   4.195  0.00  0.00    +0.073 C 
ATOM     17  C   UNL     1      11.084  -6.745   5.562  0.00  0.00    +0.022 C 
ATOM     18  C   UNL     1      12.394  -7.299   6.175  0.00  0.00    +0.002 C 
ATOM     19  C   UNL     1      13.447  -6.251   5.737  0.00  0.00    +0.002 C 
ATOM     20  C   UNL     1      13.020  -5.861   4.306  0.00  0.00    +0.022 C 
ENDBRANCH  14  16
ENDBRANCH   8  12
BRANCH   1  21
ATOM     21  C   UNL     1       2.920  -4.166   1.458  0.00  0.00    +0.168 C 
BRANCH  21  22
ATOM     22  S   UNL     1       1.567  -5.231   2.029  0.00  0.00    -0.106 S 
BRANCH  22  29
ATOM     23  C   UNL     1      -0.018   1.503   0.010  0.00  0.00    +0.044 C 
ATOM     24  C   UNL     1       0.002  -0.004   0.002  0.00  0.00    -0.048 A 
ATOM     25  C   UNL     1       0.005  -0.672  -1.235  0.00  0.00    +0.005 A 
ATOM     26  C   UNL     1       0.022  -2.017  -1.335  0.00  0.00    +0.028 A 
ATOM     27  C   UNL     1       0.040  -2.834  -0.114  0.00  0.00    +0.061 A 
ATOM     28  N   UNL     1       0.057  -4.120   0.090  0.00  0.00    -0.355 N 
ATOM     29  C   UNL     1       0.067  -4.335   1.542  0.00  0.00    +0.236 C 
ATOM     30  N   UNL     1       0.053  -3.002   2.159  0.00  0.00    -0.355 N 
ATOM     31  C   UNL     1       0.037  -2.127   1.195  0.00  0.00    +0.061 A 
ATOM     32  C   UNL     1       0.022  -0.657   1.181  0.00  0.00    +0.030 A 
ATOM     33  H   UNL     1       0.062  -4.809  -0.593  0.00  0.00    +0.162 HD
ATOM     34  H   UNL     1       0.055  -2.810   3.109  0.00  0.00    +0.162 HD
ENDBRANCH  22  29
ENDBRANCH  21  22
ENDBRANCH   1  21
BRANCH  10  35
ATOM     35  C   UNL     1       8.368  -0.263   3.018  0.00  0.00    +0.146 C 
BRANCH  35  36
ATOM     36  C   UNL     1       7.736   0.147   4.349  0.00  0.00    +0.004 C 
ATOM     37  C   UNL     1       8.563  -0.423   5.503  0.00  0.00    +0.009 C 
ATOM     38  C   UNL     1       7.705   1.674   4.450  0.00  0.00    +0.009 C 
ENDBRANCH  35  36
ENDBRANCH  10  35
TORSDOF 7
