REMARK  Name = ZINC21894537
REMARK  7 active torsions:
REMARK  status: ('A' for Active; 'I' for Inactive)
REMARK    1  A    between atoms: C_1  and  C_2
REMARK    2  A    between atoms: C_5  and  N_9
REMARK    3  A    between atoms: N_16  and  C_17
REMARK    4  A    between atoms: C_17  and  C_18
REMARK    5  A    between atoms: C_18  and  C_19
REMARK    6  A    between atoms: C_22  and  S_25
REMARK    7  A    between atoms: S_25  and  N_28
REMARK                            x       y       z     vdW  Elec       q    Type
REMARK                         _______ _______ _______ _____ _____    ______ ____
ROOT
ATOM      1  N   UNL     1      -3.645   1.604   0.028  0.00  0.00    -0.280 N 
ATOM      2  C   UNL     1      -3.580   2.943   0.288  0.00  0.00    +0.114 A 
ATOM      3  C   UNL     1      -2.396   3.591   0.288  0.00  0.00    +0.131 A 
ATOM      4  N   UNL     1      -1.250   2.958   0.036  0.00  0.00    -0.234 NA
ATOM      5  C   UNL     1      -1.237   1.668  -0.223  0.00  0.00    +0.185 A 
ATOM      6  C   UNL     1      -2.504   0.930  -0.238  0.00  0.00    +0.296 A 
ATOM      7  O   UNL     1      -2.527  -0.266  -0.480  0.00  0.00    -0.264 OA
ATOM      8  N   UNL     1      -0.039   1.016  -0.485  0.00  0.00    -0.324 N 
ATOM      9  H   UNL     1      -0.035  -0.064  -0.696  0.00  0.00    +0.148 HD
ENDROOT
BRANCH   1  14
ATOM     10  C   UNL     1      -8.640  -1.087   0.033  0.00  0.00    +0.045 C 
ATOM     11  C   UNL     1      -7.313  -0.372   0.032  0.00  0.00    -0.032 A 
ATOM     12  C   UNL     1      -7.036   0.566  -0.945  0.00  0.00    +0.007 A 
ATOM     13  C   UNL     1      -5.821   1.222  -0.949  0.00  0.00    +0.026 A 
ATOM     14  C   UNL     1      -4.877   0.940   0.030  0.00  0.00    +0.051 A 
ATOM     15  C   UNL     1      -5.155  -0.006   1.007  0.00  0.00    +0.046 A 
ATOM     16  C   UNL     1      -6.375  -0.656   1.009  0.00  0.00    +0.046 A 
ATOM     17 CL   UNL     1      -6.728  -1.834   2.234  0.00  0.00    -0.083 Cl
ENDBRANCH   1  14
BRANCH   8  18
ATOM     18  C   UNL     1       1.220   1.765  -0.479  0.00  0.00    +0.108 C 
BRANCH  18  19
ATOM     19  C   UNL     1       2.378   0.819  -0.801  0.00  0.00    +0.054 C 
BRANCH  19  20
ATOM     20  C   UNL     1       3.673   1.590  -0.795  0.00  0.00    -0.046 A 
ATOM     21  C   UNL     1       4.136   2.172  -1.960  0.00  0.00    +0.005 A 
ATOM     22  C   UNL     1       5.322   2.883  -1.954  0.00  0.00    +0.029 A 
ATOM     23  C   UNL     1       6.049   3.004  -0.784  0.00  0.00    +0.105 A 
ATOM     24  C   UNL     1       5.588   2.417   0.380  0.00  0.00    +0.029 A 
ATOM     25  C   UNL     1       4.401   1.710   0.374  0.00  0.00    +0.005 A 
BRANCH  23  26
ATOM     26  S   UNL     1       7.562   3.906  -0.777  0.00  0.00    +0.056 S 
ATOM     27  O   UNL     1       7.497   4.817  -1.866  0.00  0.00    -0.153 OA
ATOM     28  O   UNL     1       7.774   4.333   0.562  0.00  0.00    -0.153 OA
BRANCH  26  29
ATOM     29  N   UNL     1       8.774   2.834  -1.129  0.00  0.00    -0.204 NA
ATOM     30  H   UNL     1       9.739   3.360  -1.134  0.00  0.00    +0.144 HD
ATOM     31  H   UNL     1       8.593   2.389  -2.119  0.00  0.00    +0.144 HD
ENDBRANCH  26  29
ENDBRANCH  23  26
ENDBRANCH  19  20
ENDBRANCH  18  19
ENDBRANCH   8  18
TORSDOF 6
