REMARK  Name = ZINC49192379
REMARK  11 active torsions:
REMARK  status: ('A' for Active; 'I' for Inactive)
REMARK    1  A    between atoms: C_1  and  C_2
REMARK    2  A    between atoms: C_2  and  C_3
REMARK    3  A    between atoms: C_3  and  C_4
REMARK    4  A    between atoms: C_4  and  C_5
REMARK    5  A    between atoms: C_5  and  C_6
REMARK    6  A    between atoms: C_6  and  C_7
REMARK    7  A    between atoms: C_7  and  C_9
REMARK    8  A    between atoms: C_7  and  N_10
REMARK    9  A    between atoms: N_10  and  S_11
REMARK   10  A    between atoms: S_11  and  C_14
REMARK   11  A    between atoms: C_17  and  N_21
REMARK                            x       y       z     vdW  Elec       q    Type
REMARK                         _______ _______ _______ _____ _____    ______ ____
ROOT
ATOM      1  S   UNL     1      -6.571  -4.013  -1.238  0.00  0.00    +0.060 S 
ATOM      2  O   UNL     1      -7.018  -3.777  -2.566  0.00  0.00    -0.153 OA
ATOM      3  O   UNL     1      -7.069  -5.082  -0.445  0.00  0.00    -0.153 OA
ENDROOT
BRANCH   1   4
ATOM      4  C   UNL     1      -6.875  -2.531  -0.334  0.00  0.00    +0.119 A 
ATOM      5  C   UNL     1      -7.496  -2.591   0.900  0.00  0.00    +0.031 A 
ATOM      6  C   UNL     1      -7.736  -1.431   1.611  0.00  0.00    +0.025 A 
ATOM      7  C   UNL     1      -7.352  -0.204   1.086  0.00  0.00    +0.026 A 
ATOM      8  C   UNL     1      -6.728  -0.146  -0.154  0.00  0.00    +0.040 A 
ATOM      9  C   UNL     1      -6.486  -1.311  -0.858  0.00  0.00    +0.046 A 
ATOM     10 BR   UNL     1      -5.629  -1.236  -2.542  0.00  0.00    -0.048 Br
BRANCH   7  11
ATOM     11  N   UNL     1      -7.594   0.971   1.802  0.00  0.00    -0.358 N 
ATOM     12  H   UNL     1      -8.030   0.929   2.667  0.00  0.00    +0.142 HD
ATOM     13  H   UNL     1      -7.325   1.827   1.435  0.00  0.00    +0.142 HD
ENDBRANCH   7  11
ENDBRANCH   1   4
BRANCH   1  14
ATOM     14  N   UNL     1      -4.929  -4.209  -1.319  0.00  0.00    -0.187 NA
ATOM     15  H   UNL     1      -4.475  -4.153  -2.174  0.00  0.00    +0.148 HD
BRANCH  14  16
ATOM     16  C   UNL     1      -4.161  -4.468  -0.098  0.00  0.00    +0.073 C 
ATOM     17  C   UNL     1      -3.981  -5.977   0.081  0.00  0.00    +0.025 C 
BRANCH  16  18
ATOM     18  C   UNL     1      -2.789  -3.800  -0.207  0.00  0.00    +0.020 C 
BRANCH  18  19
ATOM     19  C   UNL     1      -2.963  -2.281  -0.261  0.00  0.00    +0.002 C 
BRANCH  19  20
ATOM     20  C   UNL     1      -1.591  -1.614  -0.370  0.00  0.00    +0.000 C 
BRANCH  20  21
ATOM     21  C   UNL     1      -1.766  -0.095  -0.423  0.00  0.00    -0.000 C 
BRANCH  21  23
ATOM     22  C   UNL     1      -0.569   2.092  -0.586  0.00  0.00    +0.004 C 
ATOM     23  C   UNL     1      -0.394   0.573  -0.532  0.00  0.00    -0.003 C 
ENDBRANCH  21  23
ENDBRANCH  20  21
ENDBRANCH  19  20
ENDBRANCH  18  19
ENDBRANCH  16  18
ENDBRANCH  14  16
ENDBRANCH   1  14
TORSDOF 9
