REMARK  Name = ZINC02253256
REMARK  6 active torsions:
REMARK  status: ('A' for Active; 'I' for Inactive)
REMARK    1  A    between atoms: C_9  and  C_22
REMARK    2  A    between atoms: C_10  and  N_21
REMARK    3  A    between atoms: N_11  and  N_14
REMARK    4  A    between atoms: C_15  and  C_16
REMARK    5  A    between atoms: N_24  and  C_25
REMARK    6  A    between atoms: C_25  and  C_26
REMARK                            x       y       z     vdW  Elec       q    Type
REMARK                         _______ _______ _______ _____ _____    ______ ____
ROOT
ATOM      1  C   UNL     1      -9.681   5.910  -3.834  0.00  0.00    +0.002 A 
ATOM      2  C   UNL     1     -10.830   5.876  -3.044  0.00  0.00    +0.002 A 
ATOM      3  C   UNL     1     -10.960   4.971  -2.038  0.00  0.00    +0.030 A 
ATOM      4  C   UNL     1      -9.925   4.052  -1.783  0.00  0.00    +0.092 A 
ATOM      5  C   UNL     1      -8.758   4.086  -2.587  0.00  0.00    +0.090 A 
ATOM      6  C   UNL     1      -8.660   5.037  -3.619  0.00  0.00    +0.030 A 
ATOM      7  N   UNL     1      -7.759   3.222  -2.366  0.00  0.00    -0.241 NA
ATOM      8  C   UNL     1      -7.865   2.342  -1.391  0.00  0.00    +0.124 A 
ATOM      9  C   UNL     1      -7.001   1.267  -0.875  0.00  0.00    +0.105 A 
ATOM     10  C   UNL     1      -7.692   0.677   0.178  0.00  0.00    +0.134 A 
ATOM     11  N   UNL     1      -8.899   1.284   0.355  0.00  0.00    -0.198 N 
ATOM     12  C   UNL     1      -9.073   2.300  -0.564  0.00  0.00    +0.183 A 
ATOM     13  N   UNL     1     -10.046   3.157  -0.795  0.00  0.00    -0.224 NA
ENDROOT
BRANCH   9  14
ATOM     14  C   UNL     1      -5.716   0.907  -1.355  0.00  0.00    +0.250 C 
ATOM     15  O   UNL     1      -5.606   0.070  -2.232  0.00  0.00    -0.270 OA
ATOM     16  N   UNL     1      -4.617   1.492  -0.839  0.00  0.00    -0.309 N 
ATOM     17  H   UNL     1      -4.704   2.158  -0.140  0.00  0.00    +0.149 HD
BRANCH  16  18
ATOM     18  C   UNL     1      -3.289   1.120  -1.334  0.00  0.00    +0.136 C 
BRANCH  18  19
ATOM     19  C   UNL     1      -2.223   1.924  -0.587  0.00  0.00    +0.135 C 
ATOM     20  C   UNL     1      -0.833   1.634  -1.185  0.00  0.00    +0.035 C 
ATOM     21  C   UNL     1      -0.013   1.086   0.008  0.00  0.00    +0.031 C 
ATOM     22  C   UNL     1      -0.810   1.621   1.224  0.00  0.00    +0.160 C 
ATOM     23  O   UNL     1      -2.186   1.524   0.793  0.00  0.00    -0.375 OA
ENDBRANCH  18  19
ENDBRANCH  16  18
ENDBRANCH   9  14
BRANCH  10  24
ATOM     24  N   UNL     1      -7.224  -0.369   0.933  0.00  0.00    -0.342 N 
ATOM     25  H   UNL     1      -6.352  -0.750   0.746  0.00  0.00    +0.144 HD
ATOM     26  H   UNL     1      -7.766  -0.728   1.654  0.00  0.00    +0.144 HD
ENDBRANCH  10  24
BRANCH  11  27
ATOM     27  N   UNL     1      -9.835   0.926   1.334  0.00  0.00    -0.171 NA
ATOM     28  C   UNL     1      -9.798   1.489   2.506  0.00  0.00    +0.148 C 
BRANCH  28  29
ATOM     29  C   UNL     1     -10.777   1.114   3.531  0.00  0.00    +0.032 A 
ATOM     30  C   UNL     1     -10.911   1.587   4.825  0.00  0.00    +0.017 A 
ATOM     31  C   UNL     1     -11.920   1.076   5.606  0.00  0.00    +0.008 A 
ATOM     32  C   UNL     1     -12.749   0.131   5.089  0.00  0.00    +0.046 A 
ATOM     33  S   UNL     1     -12.114  -0.065   3.432  0.00  0.00    -0.096 S 
ENDBRANCH  28  29
ENDBRANCH  11  27
TORSDOF 6
