REMARK  Name = ZINC28296658
REMARK  14 active torsions:
REMARK  status: ('A' for Active; 'I' for Inactive)
REMARK    1  A    between atoms: C_1  and  C_2
REMARK    2  A    between atoms: C_2  and  CA_3
REMARK    3  A    between atoms: CA_3  and  C_5
REMARK    4  A    between atoms: CA_3  and  N_7
REMARK    5  A    between atoms: C_5  and  O_6
REMARK    6  A    between atoms: N_7  and  C_8
REMARK    7  A    between atoms: C_8  and  C_9
REMARK    8  A    between atoms: C_9  and  C_11
REMARK    9  A    between atoms: C_9  and  O_35
REMARK   10  A    between atoms: C_11  and  N_12
REMARK   11  A    between atoms: C_14  and  C_34
REMARK   12  A    between atoms: C_16  and  C_33
REMARK   13  A    between atoms: C_19  and  C_27
REMARK   14  A    between atoms: C_20  and  C_21
REMARK                            x       y       z     vdW  Elec       q    Type
REMARK                         _______ _______ _______ _____ _____    ______ ____
ROOT
ATOM      1  N   UNL     1       1.357   4.899  -6.135  0.00  0.00    -0.337 N 
ATOM      2  C   UNL     1       0.658   3.982  -6.891  0.00  0.00    +0.053 A 
ATOM      3  C   UNL     1       0.493   2.603  -6.792  0.00  0.00    -0.026 A 
ATOM      4  C   UNL     1      -0.290   1.940  -7.711  0.00  0.00    +0.008 A 
ATOM      5  C   UNL     1      -0.923   2.633  -8.734  0.00  0.00    -0.049 A 
ATOM      6  C   UNL     1      -0.778   3.987  -8.846  0.00  0.00    +0.014 A 
ATOM      7  C   UNL     1       0.011   4.679  -7.925  0.00  0.00    +0.009 A 
ATOM      8  C   UNL     1       0.370   6.095  -7.758  0.00  0.00    +0.015 A 
ATOM      9  C   UNL     1       1.190   6.162  -6.651  0.00  0.00    +0.058 A 
ATOM     10  C   UNL     1      -1.775   1.887  -9.728  0.00  0.00    +0.044 C 
ATOM     11  C   UNL     1       1.173   1.837  -5.687  0.00  0.00    +0.046 C 
ENDROOT
BRANCH   9  12
ATOM     12  C   UNL     1       1.794   7.395  -6.107  0.00  0.00    -0.001 A 
ATOM     13  C   UNL     1       1.603   7.737  -4.766  0.00  0.00    +0.010 A 
ATOM     14  C   UNL     1       2.174   8.887  -4.263  0.00  0.00    +0.001 A 
ATOM     15  C   UNL     1       2.925   9.707  -5.087  0.00  0.00    +0.000 A 
ATOM     16  C   UNL     1       3.114   9.377  -6.417  0.00  0.00    +0.001 A 
ATOM     17  C   UNL     1       2.553   8.227  -6.932  0.00  0.00    +0.010 A 
ENDBRANCH   9  12
BRANCH   8  18
ATOM     18  C   UNL     1      -0.064   7.225  -8.608  0.00  0.00    -0.015 A 
ATOM     19  C   UNL     1      -0.882   8.225  -8.081  0.00  0.00    +0.008 A 
ATOM     20  C   UNL     1      -1.278   9.280  -8.878  0.00  0.00    +0.001 A 
ATOM     21  C   UNL     1      -0.876   9.340 -10.200  0.00  0.00    +0.000 A 
ATOM     22  C   UNL     1      -0.069   8.349 -10.730  0.00  0.00    +0.001 A 
ATOM     23  C   UNL     1       0.339   7.293  -9.943  0.00  0.00    +0.008 A 
ENDBRANCH   8  18
BRANCH   1  24
ATOM     24  C   UNL     1       2.164   4.575  -4.957  0.00  0.00    +0.151 C 
BRANCH  24  25
ATOM     25  C   UNL     1       3.553   4.113  -5.402  0.00  0.00    +0.117 C 
BRANCH  25  26
ATOM     26  O   UNL     1       4.223   5.189  -6.062  0.00  0.00    -0.392 OA
ATOM     27  H   UNL     1       3.788   5.634  -6.969  0.00  0.00    +0.210 HD
ENDBRANCH  25  26
BRANCH  25  28
ATOM     28  C   UNL     1       4.364   3.682  -4.178  0.00  0.00    -0.049 C 
BRANCH  28  29
ATOM     29  N   UNL     1       5.697   3.239  -4.605  0.00  0.00    +0.384 N 
ATOM     30  H1  UNL     1       6.199   4.073  -5.118  0.00  0.00    -0.085 HD
ATOM     31  H2  UNL     1       5.583   2.396  -5.302  0.00  0.00    -0.085 HD
BRANCH  29  32
ATOM     32  CA  UNL     1       6.506   2.817  -3.454  0.00  0.00    -0.046 C 
BRANCH  32  34
ATOM     33  C   UNL     1       6.896   0.548  -4.426  0.00  0.00    +0.002 C 
ATOM     34  C   UNL     1       7.573   1.823  -3.917  0.00  0.00    -0.017 C 
ENDBRANCH  32  34
BRANCH  32  35
ATOM     35  C   UNL     1       7.183   4.038  -2.830  0.00  0.00    +0.140 C 
BRANCH  35  36
ATOM     36  O   UNL     1       8.114   4.594  -3.761  0.00  0.00    -0.397 OA
ATOM     37  H   UNL     1       8.700   5.484  -3.489  0.00  0.00    +0.209 HD
ENDBRANCH  35  36
ENDBRANCH  32  35
ENDBRANCH  29  32
ENDBRANCH  28  29
ENDBRANCH  25  28
ENDBRANCH  24  25
ENDBRANCH   1  24
TORSDOF 11
