REMARK  Name = ZINC40172270
REMARK  8 active torsions:
REMARK  status: ('A' for Active; 'I' for Inactive)
REMARK    1  A    between atoms: C_1  and  C_2
REMARK    2  A    between atoms: C_2  and  S_3
REMARK    3  A    between atoms: S_3  and  C_4
REMARK    4  A    between atoms: N_8  and  C_9
REMARK    5  A    between atoms: C_9  and  C_11
REMARK    6  A    between atoms: C_9  and  C_12
REMARK    7  A    between atoms: C_17  and  C_20
REMARK    8  A    between atoms: C_23  and  C_26
REMARK                            x       y       z     vdW  Elec       q    Type
REMARK                         _______ _______ _______ _____ _____    ______ ____
ROOT
ATOM      1  C   UNL     1       1.261  -3.492  -4.663  0.00  0.00    +0.241 C 
ATOM      2  O   UNL     1       0.245  -4.127  -4.477  0.00  0.00    -0.273 OA
ATOM      3  N   UNL     1       1.723  -3.312  -5.917  0.00  0.00    -0.263 N 
ATOM      4  C   UNL     1       1.035  -3.854  -6.995  0.00  0.00    +0.165 A 
ATOM      5  N   UNL     1       1.321  -3.796  -8.283  0.00  0.00    -0.225 NA
ATOM      6  C   UNL     1       0.546  -4.377  -9.186  0.00  0.00    +0.080 A 
ATOM      7  C   UNL     1      -0.572  -5.050  -8.778  0.00  0.00    +0.076 A 
ATOM      8  S   UNL     1      -0.468  -4.821  -7.007  0.00  0.00    -0.060 S 
ATOM      9  H   UNL     1       2.536  -2.804  -6.066  0.00  0.00    +0.157 HD
ENDROOT
BRANCH   6  10
ATOM     10  C   UNL     1       0.887  -4.298 -10.627  0.00  0.00    +0.001 A 
ATOM     11  C   UNL     1       0.066  -4.906 -11.575  0.00  0.00    +0.010 A 
ATOM     12  C   UNL     1       0.389  -4.829 -12.915  0.00  0.00    +0.004 A 
ATOM     13  C   UNL     1       1.525  -4.151 -13.317  0.00  0.00    -0.050 A 
ATOM     14  C   UNL     1       2.345  -3.547 -12.381  0.00  0.00    +0.004 A 
ATOM     15  C   UNL     1       2.028  -3.611 -11.039  0.00  0.00    +0.010 A 
ATOM     16  C   UNL     1       1.873  -4.072 -14.782  0.00  0.00    +0.044 C 
ENDBRANCH   6  10
BRANCH   1  17
ATOM     17  C   UNL     1       2.008  -2.904  -3.494  0.00  0.00    +0.175 C 
ATOM     18  C   UNL     1       3.425  -3.480  -3.452  0.00  0.00    +0.041 C 
BRANCH  17  23
ATOM     19  C   UNL     1       0.792  -2.345  -1.354  0.00  0.00    +0.194 A 
ATOM     20  N   UNL     1       0.241  -3.024  -0.377  0.00  0.00    -0.121 NA
ATOM     21  N   UNL     1       0.411  -4.388  -0.649  0.00  0.00    -0.113 NA
ATOM     22  C   UNL     1       1.060  -4.497  -1.782  0.00  0.00    +0.216 A 
ATOM     23  N   UNL     1       1.308  -3.238  -2.250  0.00  0.00    -0.279 N 
ATOM     24  N   UNL     1       1.426  -5.686  -2.401  0.00  0.00    -0.328 N 
ATOM     25  H   UNL     1       1.200  -6.535  -1.992  0.00  0.00    +0.145 HD
ATOM     26  H   UNL     1       1.907  -5.665  -3.243  0.00  0.00    +0.145 HD
BRANCH  19  27
ATOM     27  S   UNL     1       0.851  -0.589  -1.490  0.00  0.00    -0.086 S 
BRANCH  27  29
ATOM     28  C   UNL     1      -0.019   1.526   0.010  0.00  0.00    +0.016 C 
ATOM     29  C   UNL     1       0.002  -0.004   0.002  0.00  0.00    +0.074 C 
ENDBRANCH  27  29
ENDBRANCH  19  27
ENDBRANCH  17  23
ENDBRANCH   1  17
TORSDOF 5
