REMARK  Name = ZINC02135514
REMARK  6 active torsions:
REMARK  status: ('A' for Active; 'I' for Inactive)
REMARK    1  A    between atoms: C_1  and  C_2
REMARK    2  A    between atoms: C_7  and  C_8
REMARK    3  A    between atoms: N_10  and  N_11
REMARK    4  A    between atoms: N_11  and  C_12
REMARK    5  A    between atoms: C_12  and  N_14
REMARK    6  A    between atoms: C_15  and  C_17
REMARK                            x       y       z     vdW  Elec       q    Type
REMARK                         _______ _______ _______ _____ _____    ______ ____
ROOT
ATOM      1  C   UNL     1       0.797  -0.642   5.982  0.00  0.00    +0.153 C 
ATOM      2  S   UNL     1       0.930   0.203   7.465  0.00  0.00    -0.017 S 
ENDROOT
BRANCH   1   3
ATOM      3  N   UNL     1       0.915  -1.984   5.958  0.00  0.00    -0.263 N 
ATOM      4  C   UNL     1       1.138  -2.662   7.102  0.00  0.00    +0.251 C 
ATOM      5  O   UNL     1       1.232  -2.062   8.155  0.00  0.00    -0.270 OA
ATOM      6  H   UNL     1       0.840  -2.463   5.118  0.00  0.00    +0.157 HD
BRANCH   4   7
ATOM      7  C   UNL     1       1.268  -4.132   7.075  0.00  0.00    +0.055 A 
ATOM      8  C   UNL     1       1.165  -4.824   5.866  0.00  0.00    +0.016 A 
ATOM      9  C   UNL     1       1.287  -6.197   5.848  0.00  0.00    +0.021 A 
ATOM     10  C   UNL     1       1.510  -6.892   7.026  0.00  0.00    +0.042 A 
ATOM     11  C   UNL     1       1.613  -6.213   8.228  0.00  0.00    +0.040 A 
ATOM     12  C   UNL     1       1.499  -4.838   8.260  0.00  0.00    +0.054 A 
ATOM     13 CL   UNL     1       1.635  -3.987   9.767  0.00  0.00    -0.083 Cl
ATOM     14 CL   UNL     1       1.662  -8.621   6.994  0.00  0.00    -0.083 Cl
ENDBRANCH   4   7
ENDBRANCH   1   3
BRANCH   1  15
ATOM     15  N   UNL     1       0.574   0.035   4.838  0.00  0.00    -0.245 N 
ATOM     16  H   UNL     1       0.489   1.002   4.856  0.00  0.00    +0.172 HD
BRANCH  15  19
ATOM     17  C   UNL     1       0.243   0.022   2.481  0.00  0.00    +0.260 C 
ATOM     18  O   UNL     1       0.136   1.232   2.502  0.00  0.00    -0.269 OA
ATOM     19  N   UNL     1       0.466  -0.656   3.624  0.00  0.00    -0.231 N 
ATOM     20  H   UNL     1       0.551  -1.622   3.607  0.00  0.00    +0.173 HD
BRANCH  17  27
ATOM     21  C   UNL     1      -0.513   1.452   0.082  0.00  0.00    +0.044 C 
ATOM     22  C   UNL     1      -0.235  -0.028   0.036  0.00  0.00    -0.038 A 
ATOM     23  C   UNL     1      -0.335  -0.714  -1.157  0.00  0.00    +0.004 A 
ATOM     24  C   UNL     1      -0.080  -2.073  -1.200  0.00  0.00    +0.000 A 
ATOM     25  C   UNL     1       0.275  -2.754  -0.049  0.00  0.00    +0.001 A 
ATOM     26  C   UNL     1       0.377  -2.081   1.150  0.00  0.00    +0.013 A 
ATOM     27  C   UNL     1       0.128  -0.708   1.200  0.00  0.00    +0.041 A 
ENDBRANCH  17  27
ENDBRANCH  15  19
ENDBRANCH   1  15
TORSDOF 5
