REMARK  Name = ZINC07796051
REMARK  6 active torsions:
REMARK  status: ('A' for Active; 'I' for Inactive)
REMARK    1  A    between atoms: C_1  and  C_2
REMARK    2  A    between atoms: C_4  and  C_23
REMARK    3  A    between atoms: C_5  and  C_9
REMARK    4  A    between atoms: C_6  and  C_8
REMARK    5  A    between atoms: C_15  and  C_17
REMARK    6  A    between atoms: C_19  and  C_22
REMARK                            x       y       z     vdW  Elec       q    Type
REMARK                         _______ _______ _______ _____ _____    ______ ____
ROOT
ATOM      1  C   UNL     1       5.434  -5.279  -0.032  0.00  0.00    +0.081 A 
ATOM      2  C   UNL     1       4.672  -6.179  -0.726  0.00  0.00    +0.076 A 
ATOM      3  S   UNL     1       3.028  -5.608  -0.315  0.00  0.00    -0.060 S 
ATOM      4  C   UNL     1       3.521  -4.237   0.722  0.00  0.00    +0.165 A 
ATOM      5  N   UNL     1       4.837  -4.331   0.674  0.00  0.00    -0.225 NA
ATOM      6  N   UNL     1       2.729  -3.321   1.401  0.00  0.00    -0.259 N 
ATOM      7  C   UNL     1       1.386  -3.398   1.318  0.00  0.00    +0.271 C 
ATOM      8  O   UNL     1       0.868  -4.270   0.649  0.00  0.00    -0.268 OA
ATOM      9  H   UNL     1       3.143  -2.625   1.935  0.00  0.00    +0.157 HD
ENDROOT
BRANCH   1  14
ATOM     10  C   UNL     1      11.181  -5.610  -0.181  0.00  0.00    +0.044 C 
ATOM     11  C   UNL     1       9.677  -5.524  -0.142  0.00  0.00    -0.050 A 
ATOM     12  C   UNL     1       9.047  -4.329  -0.442  0.00  0.00    +0.007 A 
ATOM     13  C   UNL     1       7.670  -4.244  -0.407  0.00  0.00    -0.041 A 
ATOM     14  C   UNL     1       6.914  -5.365  -0.071  0.00  0.00    +0.007 A 
ATOM     15  C   UNL     1       7.553  -6.565   0.235  0.00  0.00    -0.041 A 
ATOM     16  C   UNL     1       8.931  -6.640   0.192  0.00  0.00    +0.007 A 
ATOM     17  C   UNL     1       6.742  -7.779   0.607  0.00  0.00    +0.044 C 
ATOM     18  C   UNL     1       6.986  -2.941  -0.734  0.00  0.00    +0.044 C 
ENDBRANCH   1  14
BRANCH   7  19
ATOM     19  C   UNL     1       0.541  -2.420   2.043  0.00  0.00    +0.168 A 
ATOM     20  C   UNL     1      -0.881  -2.364   2.060  0.00  0.00    +0.080 A 
ATOM     21  C   UNL     1      -1.156  -1.305   2.856  0.00  0.00    +0.135 A 
ATOM     22  O   UNL     1       0.023  -0.807   3.254  0.00  0.00    -0.359 OA
ATOM     23  N   UNL     1       0.953  -1.431   2.798  0.00  0.00    -0.073 NA
ATOM     24  C   UNL     1      -2.522  -0.784   3.219  0.00  0.00    +0.089 C 
ENDBRANCH   7  19
TORSDOF 2
