REMARK  Name = ZINC64061429
REMARK  8 active torsions:
REMARK  status: ('A' for Active; 'I' for Inactive)
REMARK    1  A    between atoms: C_1  and  C_2
REMARK    2  A    between atoms: C_4  and  C_24
REMARK    3  A    between atoms: C_6  and  C_9
REMARK    4  A    between atoms: C_14  and  N_15
REMARK    5  A    between atoms: C_16  and  C_18
REMARK    6  A    between atoms: C_24  and  N_25
REMARK    7  A    between atoms: C_26  and  C_28
REMARK    8  A    between atoms: C_28  and  C_29
REMARK                            x       y       z     vdW  Elec       q    Type
REMARK                         _______ _______ _______ _____ _____    ______ ____
ROOT
ATOM      1  C   UNL     1      -0.014   1.526   0.007  0.00  0.00    +0.044 C 
ATOM      2  C   UNL     1      -0.001  -0.004   0.004  0.00  0.00    +0.164 C 
ATOM      3  C   UNL     1      -1.413  -0.543   0.063  0.00  0.00    +0.062 C 
ATOM      4  N   UNL     1      -1.449  -1.500   0.912  0.00  0.00    -0.253 NA
ATOM      5  C   UNL     1      -0.115  -1.700   1.489  0.00  0.00    +0.268 C 
ATOM      6  O   UNL     1       0.636  -0.503   1.198  0.00  0.00    -0.342 OA
ENDROOT
BRANCH   5   7
ATOM      7  C   UNL     1      -0.220  -1.898   2.979  0.00  0.00    +0.024 A 
ATOM      8  C   UNL     1      -1.400  -1.606   3.635  0.00  0.00    +0.010 A 
ATOM      9  C   UNL     1      -1.497  -1.788   5.002  0.00  0.00    +0.001 A 
ATOM     10  C   UNL     1      -0.414  -2.263   5.718  0.00  0.00    +0.002 A 
ATOM     11  C   UNL     1       0.769  -2.558   5.069  0.00  0.00    +0.024 A 
ATOM     12  C   UNL     1       0.868  -2.381   3.695  0.00  0.00    +0.041 A 
BRANCH  12  13
ATOM     13  N   UNL     1       2.063  -2.683   3.034  0.00  0.00    -0.280 N 
ATOM     14  C   UNL     1       2.920  -3.577   3.566  0.00  0.00    +0.267 C 
ATOM     15  O   UNL     1       2.610  -4.195   4.566  0.00  0.00    -0.268 OA
ATOM     16  H   UNL     1       2.275  -2.250   2.193  0.00  0.00    +0.155 HD
BRANCH  14  17
ATOM     17  C   UNL     1       4.239  -3.808   2.932  0.00  0.00    +0.126 A 
ATOM     18  C   UNL     1       5.117  -4.737   3.484  0.00  0.00    +0.033 A 
ATOM     19  C   UNL     1       6.348  -4.942   2.879  0.00  0.00    +0.004 A 
ATOM     20  C   UNL     1       6.656  -4.209   1.744  0.00  0.00    +0.020 A 
ATOM     21  C   UNL     1       5.734  -3.301   1.249  0.00  0.00    +0.111 A 
ATOM     22  N   UNL     1       4.571  -3.131   1.840  0.00  0.00    -0.250 NA
ENDBRANCH  14  17
ENDBRANCH  12  13
ENDBRANCH   5   7
BRANCH   3  23
ATOM     23  C   UNL     1      -2.582  -0.037  -0.743  0.00  0.00    +0.157 C 
BRANCH  23  24
ATOM     24  N   UNL     1      -3.779  -0.813  -0.407  0.00  0.00    -0.310 N 
ATOM     25  C   UNL     1      -4.953  -0.536  -1.008  0.00  0.00    +0.217 C 
ATOM     26  O   UNL     1      -5.018   0.355  -1.828  0.00  0.00    -0.275 OA
ATOM     27  H   UNL     1      -3.727  -1.526   0.249  0.00  0.00    +0.149 HD
BRANCH  25  28
ATOM     28  C   UNL     1      -6.184  -1.334  -0.663  0.00  0.00    +0.129 C 
BRANCH  28  29
ATOM     29  C   UNL     1      -7.352  -0.828  -1.468  0.00  0.00    -0.033 C 
ATOM     30  C   UNL     1      -7.807  -1.325  -2.642  0.00  0.00    -0.001 A 
ATOM     31  C   UNL     1      -7.365  -2.440  -3.487  0.00  0.00    +0.010 A 
ATOM     32  C   UNL     1      -8.036  -2.701  -4.632  0.00  0.00    +0.001 A 
ATOM     33  C   UNL     1      -9.138  -1.933  -5.032  0.00  0.00    +0.002 A 
ATOM     34  C   UNL     1      -9.603  -0.893  -4.308  0.00  0.00    +0.026 A 
ATOM     35  C   UNL     1      -8.974  -0.530  -3.085  0.00  0.00    +0.043 A 
ATOM     36  N   UNL     1      -9.232   0.421  -2.220  0.00  0.00    -0.380 N 
ATOM     37  C   UNL     1      -8.259   0.333  -1.125  0.00  0.00    +0.145 C 
ATOM     38  H   UNL     1      -9.948   1.071  -2.290  0.00  0.00    +0.160 HD
ENDBRANCH  28  29
ENDBRANCH  25  28
ENDBRANCH  23  24
ENDBRANCH   3  23
TORSDOF 7
