REMARK  Name = ZINC36207851
REMARK  12 active torsions:
REMARK  status: ('A' for Active; 'I' for Inactive)
REMARK    1  A    between atoms: C_1  and  O_2
REMARK    2  A    between atoms: O_2  and  C_3
REMARK    3  A    between atoms: C_6  and  C_9
REMARK    4  A    between atoms: C_18  and  C_20
REMARK    5  A    between atoms: C_20  and  N_21
REMARK    6  A    between atoms: N_21  and  C_22
REMARK    7  A    between atoms: N_21  and  C_34
REMARK    8  A    between atoms: C_22  and  C_23
REMARK    9  A    between atoms: C_23  and  C_25
REMARK   10  A    between atoms: C_23  and  O_33
REMARK   11  A    between atoms: C_25  and  O_26
REMARK   12  A    between atoms: O_26  and  C_27
REMARK                            x       y       z     vdW  Elec       q    Type
REMARK                         _______ _______ _______ _____ _____    ______ ____
ROOT
ATOM      1  C   UNL     1      -3.765  -4.328  10.453  0.00  0.00    +0.004 A 
ATOM      2  C   UNL     1      -3.521  -4.283  11.785  0.00  0.00    +0.056 A 
ATOM      3  S   UNL     1      -1.881  -4.966  11.927  0.00  0.00    -0.076 S 
ATOM      4  C   UNL     1      -1.564  -5.293  10.212  0.00  0.00    +0.116 A 
ATOM      5  C   UNL     1      -2.740  -4.870   9.570  0.00  0.00    +0.080 A 
ATOM      6  C   UNL     1      -2.760  -5.027   8.148  0.00  0.00    +0.260 A 
ATOM      7  O   UNL     1      -3.736  -4.684   7.501  0.00  0.00    -0.267 OA
ATOM      8  N   UNL     1      -1.687  -5.558   7.534  0.00  0.00    -0.312 N 
ATOM      9  H   UNL     1      -1.695  -5.667   6.571  0.00  0.00    +0.170 HD
ATOM     10  C   UNL     1      -0.592  -5.944   8.238  0.00  0.00    +0.094 A 
ATOM     11  N   UNL     1      -0.539  -5.805   9.536  0.00  0.00    -0.229 NA
ENDROOT
BRANCH   1  15
ATOM     12  C   UNL     1      -7.461  -2.928   8.882  0.00  0.00    +0.120 A 
ATOM     13  C   UNL     1      -7.454  -3.815   9.949  0.00  0.00    +0.046 A 
ATOM     14  C   UNL     1      -6.258  -4.271  10.461  0.00  0.00    +0.012 A 
ATOM     15  C   UNL     1      -5.054  -3.840   9.905  0.00  0.00    -0.016 A 
ATOM     16  C   UNL     1      -5.064  -2.949   8.833  0.00  0.00    +0.012 A 
ATOM     17  C   UNL     1      -6.264  -2.501   8.322  0.00  0.00    +0.046 A 
BRANCH  12  19
ATOM     18  C   UNL     1      -9.835  -2.960   9.002  0.00  0.00    +0.277 C 
ATOM     19  O   UNL     1      -8.642  -2.481   8.379  0.00  0.00    -0.495 OA
ENDBRANCH  12  19
ENDBRANCH   1  15
BRANCH  10  20
ATOM     20  C   UNL     1       0.588  -6.534   7.509  0.00  0.00    -0.003 C 
BRANCH  20  21
ATOM     21  N   UNL     1       1.586  -6.995   8.483  0.00  0.00    +0.388 N 
ATOM     22  H   UNL     1       1.812  -6.242   9.115  0.00  0.00    -0.081 HD
BRANCH  21  23
ATOM     23  C   UNL     1       2.800  -7.423   7.776  0.00  0.00    -0.068 C 
ATOM     24  C   UNL     1       4.118  -6.749   8.163  0.00  0.00    -0.017 C 
ATOM     25  C   UNL     1       3.454  -6.418   6.825  0.00  0.00    -0.017 C 
ENDBRANCH  21  23
BRANCH  21  26
ATOM     26  C   UNL     1       1.039  -8.126   9.245  0.00  0.00    -0.043 C 
BRANCH  26  27
ATOM     27  C   UNL     1       2.027  -8.526  10.343  0.00  0.00    +0.135 C 
BRANCH  27  28
ATOM     28  O   UNL     1       3.270  -8.908   9.749  0.00  0.00    -0.390 OA
ATOM     29  H   UNL     1       3.201  -9.656   9.140  0.00  0.00    +0.210 HD
ENDBRANCH  27  28
BRANCH  27  30
ATOM     30  C   UNL     1       1.458  -9.704  11.137  0.00  0.00    +0.258 C 
BRANCH  30  31
ATOM     31  O   UNL     1       2.325 -10.002  12.233  0.00  0.00    -0.489 OA
BRANCH  31  32
ATOM     32  C   UNL     1       1.962 -11.030  13.044  0.00  0.00    +0.121 A 
ATOM     33  C   UNL     1       0.799 -11.741  12.787  0.00  0.00    +0.045 A 
ATOM     34  C   UNL     1       0.432 -12.786  13.613  0.00  0.00    +0.004 A 
ATOM     35  C   UNL     1       1.224 -13.123  14.696  0.00  0.00    +0.000 A 
ATOM     36  C   UNL     1       2.384 -12.417  14.954  0.00  0.00    +0.004 A 
ATOM     37  C   UNL     1       2.758 -11.375  14.127  0.00  0.00    +0.045 A 
ENDBRANCH  31  32
ENDBRANCH  30  31
ENDBRANCH  27  30
ENDBRANCH  26  27
ENDBRANCH  21  26
ENDBRANCH  20  21
ENDBRANCH  10  20
TORSDOF 11
