REMARK  Name = ZINC65266012
REMARK  7 active torsions:
REMARK  status: ('A' for Active; 'I' for Inactive)
REMARK    1  A    between atoms: C_1  and  C_2
REMARK    2  A    between atoms: C_2  and  N_3
REMARK    3  A    between atoms: C_6  and  C_8
REMARK    4  A    between atoms: N_25  and  C_26
REMARK    5  A    between atoms: C_26  and  C_27
REMARK    6  A    between atoms: C_26  and  C_28
REMARK    7  A    between atoms: C_26  and  C_29
REMARK                            x       y       z     vdW  Elec       q    Type
REMARK                         _______ _______ _______ _____ _____    ______ ____
ROOT
ATOM      1  C   UNL     1      -6.883  -1.695   0.983  0.00  0.00    +0.268 C 
ATOM      2  O   UNL     1      -8.067  -1.946   0.874  0.00  0.00    -0.268 OA
ATOM      3  N   UNL     1      -6.448  -0.925   2.000  0.00  0.00    -0.294 N 
ATOM      4  C   UNL     1      -5.046  -0.538   2.248  0.00  0.00    +0.110 C 
ATOM      5  C   UNL     1      -5.133   0.768   3.080  0.00  0.00    +0.050 C 
ATOM      6  C   UNL     1      -6.371   0.494   3.952  0.00  0.00    +0.091 C 
ATOM      7  C   UNL     1      -7.295  -0.324   3.045  0.00  0.00    +0.138 C 
ATOM      8  C   UNL     1      -7.016   1.757   4.413  0.00  0.00    +0.095 C 
ATOM      9  N   UNL     1      -6.584   2.269   5.612  0.00  0.00    -0.303 N 
ATOM     10  C   UNL     1      -7.213   1.859   6.784  0.00  0.00    +0.037 A 
ATOM     11  C   UNL     1      -7.567   2.795   7.746  0.00  0.00    +0.023 A 
ATOM     12  C   UNL     1      -8.178   2.390   8.916  0.00  0.00    +0.002 A 
ATOM     13  C   UNL     1      -8.432   1.046   9.120  0.00  0.00    +0.000 A 
ATOM     14  C   UNL     1      -8.085   0.117   8.162  0.00  0.00    +0.007 A 
ATOM     15  C   UNL     1      -7.476   0.508   6.974  0.00  0.00    -0.012 A 
ATOM     16  C   UNL     1      -7.171  -0.579   5.976  0.00  0.00    +0.119 C 
ATOM     17  N   UNL     1      -5.991  -0.282   5.154  0.00  0.00    -0.299 NA
ATOM     18  N   UNL     1      -7.937   2.342   3.718  0.00  0.00    -0.370 N 
ATOM     19  H   UNL     1      -5.506  -1.129   4.899  0.00  0.00    +0.123 HD
ATOM     20  H   UNL     1      -8.393   1.858   3.012  0.00  0.00    +0.161 HD
ATOM     21  H   UNL     1      -5.852   2.904   5.642  0.00  0.00    +0.153 HD
ENDROOT
BRANCH   1  25
ATOM     22  N   UNL     1      -4.082  -2.657  -0.998  0.00  0.00    -0.270 N 
ATOM     23  C   UNL     1      -5.037  -3.298  -1.717  0.00  0.00    +0.129 A 
ATOM     24  C   UNL     1      -6.224  -3.054  -1.112  0.00  0.00    +0.091 A 
ATOM     25  C   UNL     1      -5.920  -2.235   0.002  0.00  0.00    +0.165 A 
ATOM     26  N   UNL     1      -4.615  -2.048   0.001  0.00  0.00    -0.165 NA
ATOM     27 CL   UNL     1      -7.789  -3.624  -1.601  0.00  0.00    -0.080 Cl
BRANCH  22  29
ATOM     28  C   UNL     1      -2.148  -1.221  -1.423  0.00  0.00    +0.029 C 
ATOM     29  C   UNL     1      -2.651  -2.662  -1.310  0.00  0.00    +0.140 C 
ENDBRANCH  22  29
ENDBRANCH   1  25
BRANCH  18  30
ATOM     30  C   UNL     1      -8.290   3.737   3.996  0.00  0.00    +0.031 C 
ATOM     31  C   UNL     1      -7.030   4.602   3.943  0.00  0.00    +0.033 C 
ATOM     32  C   UNL     1      -9.291   4.228   2.948  0.00  0.00    +0.033 C 
ATOM     33  C   UNL     1      -8.918   3.836   5.387  0.00  0.00    +0.033 C 
ENDBRANCH  18  30
TORSDOF 3
