REMARK  Name = ZINC03375955
REMARK  12 active torsions:
REMARK  status: ('A' for Active; 'I' for Inactive)
REMARK    1  A    between atoms: C_1  and  C_2
REMARK    2  A    between atoms: C_2  and  C_4
REMARK    3  A    between atoms: C_2  and  N_55
REMARK    4  A    between atoms: C_7  and  S_16
REMARK    5  A    between atoms: N_8  and  C_9
REMARK    6  A    between atoms: S_16  and  C_17
REMARK    7  A    between atoms: C_17  and  C_19
REMARK    8  A    between atoms: C_17  and  C_20
REMARK    9  A    between atoms: N_22  and  C_23
REMARK   10  A    between atoms: C_27  and  N_29
REMARK   11  A    between atoms: C_32  and  N_55
REMARK   12  A    between atoms: C_33  and  N_55
REMARK                            x       y       z     vdW  Elec       q    Type
REMARK                         _______ _______ _______ _____ _____    ______ ____
ROOT
ATOM      1  C   UNL     1      -0.034   1.505  -0.011  0.00  0.00    +0.125 A 
ATOM      2  N   UNL     1      -1.092   2.266  -0.007  0.00  0.00    -0.135 NA
ATOM      3  N   UNL     1      -0.747   3.504   0.008  0.00  0.00    -0.122 NA
ATOM      4  C   UNL     1       0.563   3.603   0.004  0.00  0.00    +0.197 A 
ATOM      5  N   UNL     1       1.060   2.329  -0.008  0.00  0.00    -0.275 N 
ENDROOT
BRANCH   5   6
ATOM      6  C   UNL     1       2.409   1.946  -0.017  0.00  0.00    +0.050 A 
ATOM      7  C   UNL     1       2.945   1.263   1.067  0.00  0.00    +0.028 A 
ATOM      8  C   UNL     1       4.273   0.882   1.054  0.00  0.00    +0.022 A 
ATOM      9  C   UNL     1       5.072   1.191  -0.033  0.00  0.00    +0.041 A 
ATOM     10  C   UNL     1       4.541   1.876  -1.112  0.00  0.00    +0.022 A 
ATOM     11  C   UNL     1       3.213   2.254  -1.106  0.00  0.00    +0.028 A 
ATOM     12 CL   UNL     1       6.742   0.717  -0.043  0.00  0.00    -0.084 Cl
ENDBRANCH   5   6
BRANCH   1  14
ATOM     13  C   UNL     1      -0.390  -0.504  -1.421  0.00  0.00    -0.005 C 
ATOM     14  C   UNL     1      -0.018  -0.002  -0.024  0.00  0.00    -0.003 C 
BRANCH  14  17
ATOM     15  C   UNL     1      -2.362  -0.172   0.557  0.00  0.00    -0.096 C 
ATOM     16  C   UNL     1      -0.837  -1.959   1.143  0.00  0.00    -0.096 C 
ATOM     17  N   UNL     1      -0.983  -0.498   0.979  0.00  0.00    +0.382 N 
ATOM     18  H   UNL     1      -0.793  -0.041   1.879  0.00  0.00    -0.082 HD
ENDBRANCH  14  17
ENDBRANCH   1  14
BRANCH   4  19
ATOM     19  S   UNL     1       1.501   5.094   0.013  0.00  0.00    -0.073 S 
BRANCH  19  20
ATOM     20  C   UNL     1       0.159   6.309   0.028  0.00  0.00    +0.137 C 
ATOM     21  C   UNL     1      -0.633   6.211  -1.277  0.00  0.00    +0.029 C 
BRANCH  20  22
ATOM     22  C   UNL     1       0.738   7.694   0.161  0.00  0.00    +0.230 C 
ATOM     23  O   UNL     1       1.872   7.916  -0.206  0.00  0.00    -0.274 OA
ATOM     24  N   UNL     1      -0.006   8.688   0.688  0.00  0.00    -0.285 N 
ATOM     25  H   UNL     1      -0.934   8.528   0.920  0.00  0.00    +0.155 HD
BRANCH  24  26
ATOM     26  C   UNL     1       0.561   9.949   0.901  0.00  0.00    +0.036 A 
ATOM     27  C   UNL     1       1.509  10.445   0.015  0.00  0.00    +0.023 A 
ATOM     28  C   UNL     1       2.066  11.690   0.228  0.00  0.00    +0.004 A 
ATOM     29  C   UNL     1       1.683  12.443   1.323  0.00  0.00    +0.033 A 
ATOM     30  C   UNL     1       0.740  11.952   2.207  0.00  0.00    +0.128 A 
ATOM     31  C   UNL     1       0.174  10.710   1.997  0.00  0.00    +0.056 A 
BRANCH  30  32
ATOM     32  N   UNL     1       0.332  12.762   3.377  0.00  0.00    +0.056 N 
ATOM     33  O   UNL     1       0.826  13.860   3.560  0.00  0.00    -0.126 OA
ATOM     34  O   UNL     1      -0.499  12.330   4.156  0.00  0.00    -0.126 OA
ENDBRANCH  30  32
ENDBRANCH  24  26
ENDBRANCH  20  22
ENDBRANCH  19  20
ENDBRANCH   4  19
TORSDOF 8
