REMARK  Name = ZINC02793254
REMARK  7 active torsions:
REMARK  status: ('A' for Active; 'I' for Inactive)
REMARK    1  A    between atoms: C_1  and  O_2
REMARK    2  A    between atoms: O_2  and  C_3
REMARK    3  A    between atoms: C_3  and  C_5
REMARK    4  A    between atoms: C_9  and  N_10
REMARK    5  A    between atoms: C_11  and  C_13
REMARK    6  A    between atoms: C_19  and  C_25
REMARK    7  A    between atoms: C_21  and  C_22
REMARK                            x       y       z     vdW  Elec       q    Type
REMARK                         _______ _______ _______ _____ _____    ______ ____
ROOT
ATOM      1  N   UNL     1      -2.406  -0.373   0.022  0.00  0.00    -0.275 N 
ATOM      2  C   UNL     1      -1.163  -0.892   0.008  0.00  0.00    +0.254 C 
ATOM      3  O   UNL     1      -1.008  -2.100  -0.001  0.00  0.00    -0.270 OA
ATOM      4  H   UNL     1      -2.530   0.589   0.029  0.00  0.00    +0.156 HD
ENDROOT
BRANCH   1   9
ATOM      5  C   UNL     1      -4.852  -0.872   0.047  0.00  0.00    +0.091 A 
ATOM      6  C   UNL     1      -5.826  -1.956   0.040  0.00  0.00    -0.021 A 
ATOM      7  C   UNL     1      -5.295  -3.197   0.033  0.00  0.00    -0.004 A 
ATOM      8  S   UNL     1      -3.541  -2.944   0.018  0.00  0.00    -0.077 S 
ATOM      9  C   UNL     1      -3.507  -1.213   0.027  0.00  0.00    +0.087 A 
ATOM     10  C   UNL     1      -6.024  -4.504   0.050  0.00  0.00    +0.043 C 
ATOM     11  C   UNL     1      -7.126  -4.484  -1.018  0.00  0.00    +0.005 C 
ATOM     12  C   UNL     1      -8.400  -3.933  -0.387  0.00  0.00    +0.001 C 
ATOM     13  C   UNL     1      -8.052  -2.891   0.674  0.00  0.00    +0.005 C 
ATOM     14  C   UNL     1      -7.329  -1.707   0.041  0.00  0.00    +0.037 C 
BRANCH   5  15
ATOM     15  C   UNL     1      -5.278   0.529   0.070  0.00  0.00    +0.342 C 
ATOM     16  O   UNL     1      -5.468   1.123  -0.974  0.00  0.00    -0.245 OA
BRANCH  15  18
ATOM     17  C   UNL     1      -5.883   2.547   1.195  0.00  0.00    +0.280 C 
ATOM     18  O   UNL     1      -5.460   1.159   1.248  0.00  0.00    -0.464 OA
ENDBRANCH  15  18
ENDBRANCH   5  15
ENDBRANCH   1   9
BRANCH   2  19
ATOM     19  C   UNL     1       0.002  -0.004   0.002  0.00  0.00    +0.101 A 
ATOM     20  C   UNL     1      -0.017   1.403   0.010  0.00  0.00    +0.150 A 
ATOM     21  N   UNL     1       1.215   1.839   0.000  0.00  0.00    -0.172 NA
ATOM     22  N   UNL     1       2.097   0.753  -0.014  0.00  0.00    -0.212 N 
ATOM     23  C   UNL     1       1.356  -0.395  -0.013  0.00  0.00    +0.169 A 
ATOM     24  N   UNL     1       1.945  -1.590  -0.025  0.00  0.00    -0.227 NA
ATOM     25  C   UNL     1       3.265  -1.694  -0.039  0.00  0.00    +0.075 A 
ATOM     26  C   UNL     1       4.061  -0.530  -0.040  0.00  0.00    +0.057 A 
ATOM     27  C   UNL     1       3.460   0.684  -0.028  0.00  0.00    +0.112 A 
BRANCH  25  28
ATOM     28  C   UNL     1       3.903  -3.030  -0.053  0.00  0.00    +0.000 A 
ATOM     29  C   UNL     1       5.293  -3.142  -0.073  0.00  0.00    +0.010 A 
ATOM     30  C   UNL     1       5.883  -4.389  -0.081  0.00  0.00    +0.001 A 
ATOM     31  C   UNL     1       5.097  -5.528  -0.080  0.00  0.00    +0.000 A 
ATOM     32  C   UNL     1       3.718  -5.424  -0.066  0.00  0.00    +0.001 A 
ATOM     33  C   UNL     1       3.117  -4.182  -0.052  0.00  0.00    +0.010 A 
ENDBRANCH  25  28
BRANCH  27  34
ATOM     34  C   UNL     1       4.287   1.943  -0.028  0.00  0.00    +0.390 C 
ATOM     35  F   UNL     1       5.492   1.710  -0.701  0.00  0.00    -0.202 F 
ATOM     36  F   UNL     1       3.582   2.964  -0.675  0.00  0.00    -0.202 F 
ENDBRANCH  27  34
ENDBRANCH   2  19
TORSDOF 6
