REMARK  Name = ZINC53751310
REMARK  4 active torsions:
REMARK  status: ('A' for Active; 'I' for Inactive)
REMARK    1  A    between atoms: C_4  and  C_7
REMARK    2  A    between atoms: C_7  and  C_8
REMARK    3  A    between atoms: C_7  and  C_14
REMARK    4  A    between atoms: N_19  and  N_20
REMARK                            x       y       z     vdW  Elec       q    Type
REMARK                         _______ _______ _______ _____ _____    ______ ____
ROOT
ATOM      1  C   UNL     1       3.711  -0.707  -0.038  0.00  0.00    +0.120 C 
ENDROOT
BRANCH   1   2
ATOM      2  C   UNL     1       3.671  -1.663  -1.202  0.00  0.00    +0.185 A 
ATOM      3  N   UNL     1       4.535  -1.681  -2.220  0.00  0.00    -0.177 NA
ATOM      4  C   UNL     1       4.216  -2.638  -3.062  0.00  0.00    +0.328 A 
ATOM      5  O   UNL     1       3.124  -3.261  -2.589  0.00  0.00    -0.316 OA
ATOM      6  N   UNL     1       2.792  -2.609  -1.373  0.00  0.00    -0.058 NA
ATOM      7  N   UNL     1       4.883  -2.948  -4.223  0.00  0.00    -0.235 N 
ATOM      8  H   UNL     1       5.666  -2.438  -4.484  0.00  0.00    +0.170 HD
BRANCH   7   9
ATOM      9  N   UNL     1       4.442  -3.973  -5.011  0.00  0.00    -0.253 NA
ATOM     10  H   UNL     1       5.029  -4.081  -5.825  0.00  0.00    +0.141 HD
ATOM     11  H   UNL     1       4.389  -4.834  -4.487  0.00  0.00    +0.141 HD
ENDBRANCH   7   9
ENDBRANCH   1   2
BRANCH   1  15
ATOM     12  C   UNL     1       0.074   1.530   0.090  0.00  0.00    +0.000 A 
ATOM     13  C   UNL     1       1.290   2.188   0.084  0.00  0.00    +0.000 A 
ATOM     14  C   UNL     1       2.467   1.464   0.043  0.00  0.00    +0.004 A 
ATOM     15  C   UNL     1       2.428   0.082   0.008  0.00  0.00    -0.033 A 
ATOM     16  C   UNL     1       1.212  -0.575   0.015  0.00  0.00    +0.004 A 
ATOM     17  C   UNL     1       0.035   0.149   0.055  0.00  0.00    +0.000 A 
ENDBRANCH   1  15
BRANCH   1  18
ATOM     18  C   UNL     1       3.870  -1.483   1.245  0.00  0.00    -0.033 A 
ATOM     19  C   UNL     1       3.012  -2.528   1.531  0.00  0.00    +0.004 A 
ATOM     20  C   UNL     1       3.158  -3.240   2.707  0.00  0.00    +0.000 A 
ATOM     21  C   UNL     1       4.161  -2.906   3.597  0.00  0.00    +0.000 A 
ATOM     22  C   UNL     1       5.020  -1.861   3.310  0.00  0.00    +0.000 A 
ATOM     23  C   UNL     1       4.877  -1.153   2.132  0.00  0.00    +0.004 A 
ENDBRANCH   1  18
TORSDOF 4
