REMARK  Name = ZINC64741077
REMARK  7 active torsions:
REMARK  status: ('A' for Active; 'I' for Inactive)
REMARK    1  A    between atoms: C_1  and  C_2
REMARK    2  A    between atoms: C_7  and  C_8
REMARK    3  A    between atoms: C_8  and  S_9
REMARK    4  A    between atoms: S_9  and  C_10
REMARK    5  A    between atoms: C_16  and  C_24
REMARK    6  A    between atoms: N_26  and  C_27
REMARK    7  A    between atoms: C_32  and  C_33
REMARK                            x       y       z     vdW  Elec       q    Type
REMARK                         _______ _______ _______ _____ _____    ______ ____
ROOT
ATOM      1  C   UNL     1      -1.512   1.192   4.568  0.00  0.00    +0.182 C 
ATOM      2  N   UNL     1      -0.283   1.462   4.974  0.00  0.00    -0.154 NA
ATOM      3  C   UNL     1      -0.036   2.058   6.142  0.00  0.00    +0.249 C 
ATOM      4  O   UNL     1       1.097   2.326   6.494  0.00  0.00    -0.273 OA
ATOM      5  C   UNL     1      -1.236   2.386   7.006  0.00  0.00    +0.153 C 
ATOM      6  C   UNL     1      -1.199   3.880   7.331  0.00  0.00    +0.103 C 
ATOM      7  C   UNL     1      -2.307   4.188   8.342  0.00  0.00    +0.110 C 
ATOM      8  C   UNL     1      -3.616   3.600   7.901  0.00  0.00    +0.219 C 
ATOM      9  O   UNL     1      -4.638   4.035   8.387  0.00  0.00    -0.275 OA
ATOM     10  N   UNL     1      -3.705   2.615   6.992  0.00  0.00    -0.273 N 
ATOM     11  C   UNL     1      -2.593   2.122   6.381  0.00  0.00    +0.117 C 
ATOM     12  N   UNL     1      -2.630   1.534   5.218  0.00  0.00    -0.212 NA
ATOM     13  H   UNL     1      -4.572   2.237   6.777  0.00  0.00    +0.156 HD
ENDROOT
BRANCH   6  14
ATOM     14  C   UNL     1      -1.422   4.678   6.072  0.00  0.00    +0.222 C 
ATOM     15  O   UNL     1      -1.594   4.107   5.016  0.00  0.00    -0.275 OA
ATOM     16  N   UNL     1      -1.430   6.025   6.120  0.00  0.00    -0.285 N 
ATOM     17  H   UNL     1      -1.373   6.480   6.975  0.00  0.00    +0.155 HD
BRANCH  16  18
ATOM     18  C   UNL     1      -1.522   6.766   4.937  0.00  0.00    +0.036 A 
ATOM     19  C   UNL     1      -1.097   6.215   3.735  0.00  0.00    +0.023 A 
ATOM     20  C   UNL     1      -1.188   6.949   2.570  0.00  0.00    +0.002 A 
ATOM     21  C   UNL     1      -1.702   8.233   2.598  0.00  0.00    +0.000 A 
ATOM     22  C   UNL     1      -2.125   8.785   3.793  0.00  0.00    +0.005 A 
ATOM     23  C   UNL     1      -2.042   8.053   4.961  0.00  0.00    -0.029 A 
ATOM     24  C   UNL     1      -2.511   8.653   6.262  0.00  0.00    +0.045 C 
ENDBRANCH  16  18
ENDBRANCH   6  14
BRANCH   1  25
ATOM     25  S   UNL     1      -1.692   0.321   3.047  0.00  0.00    -0.084 S 
BRANCH  25  26
ATOM     26  C   UNL     1       0.014   0.049   2.493  0.00  0.00    +0.112 C 
BRANCH  26  33
ATOM     27  C   UNL     1      -0.052   1.507  -0.001  0.00  0.00    +0.044 C 
ATOM     28  C   UNL     1      -0.028   0.001  -0.009  0.00  0.00    -0.046 A 
ATOM     29  C   UNL     1      -0.031  -0.684  -1.211  0.00  0.00    +0.003 A 
ATOM     30  C   UNL     1      -0.009  -2.066  -1.219  0.00  0.00    +0.000 A 
ATOM     31  C   UNL     1       0.018  -2.764  -0.025  0.00  0.00    +0.000 A 
ATOM     32  C   UNL     1       0.022  -2.079   1.175  0.00  0.00    +0.005 A 
ATOM     33  C   UNL     1       0.004  -0.697   1.183  0.00  0.00    -0.034 A 
ENDBRANCH  26  33
ENDBRANCH  25  26
ENDBRANCH   1  25
TORSDOF 5
