REMARK  Name = ZINC59416888
REMARK  6 active torsions:
REMARK  status: ('A' for Active; 'I' for Inactive)
REMARK    1  A    between atoms: C_2  and  C_3
REMARK    2  A    between atoms: C_3  and  N_4
REMARK    3  A    between atoms: N_4  and  C_5
REMARK    4  A    between atoms: C_5  and  C_6
REMARK    5  A    between atoms: N_8  and  C_9
REMARK    6  A    between atoms: C_10  and  N_17
REMARK                            x       y       z     vdW  Elec       q    Type
REMARK                         _______ _______ _______ _____ _____    ______ ____
ROOT
ATOM      1  C   UNL     1      -3.062  -3.023  -2.521  0.00  0.00    +0.200 C 
ATOM      2  O   UNL     1      -2.490  -2.674  -3.532  0.00  0.00    -0.278 OA
ATOM      3  N   UNL     1      -3.670  -4.224  -2.471  0.00  0.00    -0.284 N 
ATOM      4  H   UNL     1      -4.058  -4.537  -1.639  0.00  0.00    +0.155 HD
ENDROOT
BRANCH   3   5
ATOM      5  C   UNL     1      -3.743  -5.021  -3.620  0.00  0.00    +0.078 A 
ATOM      6  C   UNL     1      -4.970  -5.500  -4.058  0.00  0.00    +0.149 A 
ATOM      7  C   UNL     1      -5.039  -6.285  -5.193  0.00  0.00    +0.050 A 
ATOM      8  C   UNL     1      -3.886  -6.594  -5.893  0.00  0.00    +0.021 A 
ATOM      9  C   UNL     1      -2.661  -6.119  -5.459  0.00  0.00    +0.032 A 
ATOM     10  C   UNL     1      -2.587  -5.328  -4.328  0.00  0.00    +0.042 A 
ATOM     11 BR   UNL     1      -0.914  -4.673  -3.739  0.00  0.00    -0.048 Br
ATOM     12 BR   UNL     1      -3.985  -7.670  -7.445  0.00  0.00    -0.050 Br
BRANCH   6  13
ATOM     13  N   UNL     1      -6.204  -5.170  -3.310  0.00  0.00    +0.058 N 
ATOM     14  O   UNL     1      -7.257  -5.668  -3.631  0.00  0.00    -0.126 OA
ATOM     15  O   UNL     1      -6.158  -4.402  -2.378  0.00  0.00    -0.126 OA
ENDBRANCH   6  13
ENDBRANCH   3   5
BRANCH   1  16
ATOM     16  C   UNL     1      -3.092  -2.112  -1.321  0.00  0.00    +0.016 C 
BRANCH  16  17
ATOM     17  N   UNL     1      -2.363  -0.874  -1.627  0.00  0.00    +0.387 N 
ATOM     18  H   UNL     1      -2.800  -0.412  -2.410  0.00  0.00    -0.085 HD
ATOM     19  H   UNL     1      -1.406  -1.095  -1.857  0.00  0.00    -0.085 HD
BRANCH  17  20
ATOM     20  C   UNL     1      -2.393   0.013  -0.457  0.00  0.00    -0.055 C 
BRANCH  20  22
ATOM     21  C   UNL     1      -2.234   2.444  -0.621  0.00  0.00    +0.002 C 
ATOM     22  C   UNL     1      -1.645   1.284  -0.771  0.00  0.00    -0.054 C 
ENDBRANCH  20  22
ENDBRANCH  17  20
ENDBRANCH  16  17
ENDBRANCH   1  16
TORSDOF 6
