REMARK  Name = ZINC59516493
REMARK  6 active torsions:
REMARK  status: ('A' for Active; 'I' for Inactive)
REMARK    1  A    between atoms: C_3  and  O_22
REMARK    2  A    between atoms: C_4  and  N_11
REMARK    3  A    between atoms: C_6  and  C_7
REMARK    4  A    between atoms: C_12  and  C_13
REMARK    5  A    between atoms: C_18  and  O_19
REMARK    6  A    between atoms: O_22  and  C_23
REMARK                            x       y       z     vdW  Elec       q    Type
REMARK                         _______ _______ _______ _____ _____    ______ ____
ROOT
ATOM      1  C   UNL     1       0.304   1.022  -1.661  0.00  0.00    +0.016 A 
ATOM      2  C   UNL     1       1.331   1.846  -1.238  0.00  0.00    +0.049 A 
ATOM      3  C   UNL     1       2.417   1.312  -0.566  0.00  0.00    +0.154 A 
ATOM      4  C   UNL     1       2.471  -0.067  -0.316  0.00  0.00    +0.107 A 
ATOM      5  C   UNL     1       1.428  -0.888  -0.749  0.00  0.00    +0.043 A 
ATOM      6  C   UNL     1       0.353  -0.339  -1.417  0.00  0.00    +0.057 A 
ENDROOT
BRANCH   6   7
ATOM      7  C   UNL     1      -0.772  -1.226  -1.884  0.00  0.00    +0.417 C 
ATOM      8  F   UNL     1      -1.740  -0.450  -2.531  0.00  0.00    -0.166 F 
ATOM      9  F   UNL     1      -0.273  -2.185  -2.772  0.00  0.00    -0.166 F 
ATOM     10  F   UNL     1      -1.349  -1.867  -0.782  0.00  0.00    -0.166 F 
ENDBRANCH   6   7
BRANCH   4  11
ATOM     11  N   UNL     1       3.540  -0.605   0.346  0.00  0.00    -0.251 NA
ATOM     12  C   UNL     1       4.130  -1.669  -0.122  0.00  0.00    +0.123 C 
BRANCH  12  13
ATOM     13  C   UNL     1       5.216  -2.303   0.639  0.00  0.00    +0.037 A 
ATOM     14  C   UNL     1       5.855  -3.442   0.137  0.00  0.00    +0.033 A 
ATOM     15  C   UNL     1       6.874  -4.032   0.856  0.00  0.00    +0.043 A 
ATOM     16  C   UNL     1       7.267  -3.501   2.075  0.00  0.00    +0.043 A 
ATOM     17  C   UNL     1       6.644  -2.377   2.582  0.00  0.00    +0.084 A 
ATOM     18  C   UNL     1       5.621  -1.767   1.870  0.00  0.00    +0.144 A 
ATOM     19 CL   UNL     1       7.145  -1.722   4.110  0.00  0.00    -0.080 Cl
ATOM     20 CL   UNL     1       7.666  -5.445   0.232  0.00  0.00    -0.083 Cl
BRANCH  18  21
ATOM     21  O   UNL     1       5.012  -0.659   2.365  0.00  0.00    -0.505 OA
ATOM     22  H   UNL     1       4.246  -0.849   2.924  0.00  0.00    +0.292 HD
ENDBRANCH  18  21
ENDBRANCH  12  13
ENDBRANCH   4  11
BRANCH   3  23
ATOM     23  O   UNL     1       3.427   2.120  -0.150  0.00  0.00    -0.454 OA
BRANCH  23  24
ATOM     24  C   UNL     1       3.283   3.460  -0.322  0.00  0.00    +0.130 A 
ATOM     25  C   UNL     1       2.672   4.225   0.661  0.00  0.00    +0.048 A 
ATOM     26  C   UNL     1       2.527   5.587   0.486  0.00  0.00    +0.025 A 
ATOM     27  C   UNL     1       2.990   6.190  -0.670  0.00  0.00    +0.059 A 
ATOM     28  C   UNL     1       3.600   5.429  -1.653  0.00  0.00    +0.063 A 
ATOM     29  C   UNL     1       3.753   4.066  -1.478  0.00  0.00    +0.067 A 
ATOM     30 CL   UNL     1       4.181   6.188  -3.103  0.00  0.00    -0.082 Cl
ATOM     31 CL   UNL     1       2.806   7.902  -0.889  0.00  0.00    -0.082 Cl
ENDBRANCH  23  24
ENDBRANCH   3  23
TORSDOF 6
