REMARK  Name = ZINC03440483
REMARK  7 active torsions:
REMARK  status: ('A' for Active; 'I' for Inactive)
REMARK    1  A    between atoms: C_1  and  C_2
REMARK    2  A    between atoms: C_5  and  S_8
REMARK    3  A    between atoms: S_8  and  C_9
REMARK    4  A    between atoms: C_12  and  N_28
REMARK    5  A    between atoms: C_14  and  C_15
REMARK    6  A    between atoms: N_17  and  N_18
REMARK    7  A    between atoms: C_19  and  C_21
REMARK                            x       y       z     vdW  Elec       q    Type
REMARK                         _______ _______ _______ _____ _____    ______ ____
ROOT
ATOM      1  C   UNL     1      -1.252   3.141   0.020  0.00  0.00    +0.025 A 
ATOM      2  C   UNL     1      -0.041   3.809   0.165  0.00  0.00    +0.018 A 
ATOM      3  C   UNL     1       1.144   3.103   0.142  0.00  0.00    +0.034 A 
ATOM      4  C   UNL     1       1.138   1.726  -0.023  0.00  0.00    +0.127 A 
ATOM      5  C   UNL     1      -0.052   1.047  -0.167  0.00  0.00    +0.047 A 
ATOM      6  C   UNL     1      -1.261   1.748  -0.152  0.00  0.00    +0.054 A 
ENDROOT
BRANCH   6   7
ATOM      7  C   UNL     1      -2.537   1.028  -0.313  0.00  0.00    +0.261 C 
ATOM      8  O   UNL     1      -3.587   1.642  -0.299  0.00  0.00    -0.269 OA
ATOM      9  N   UNL     1      -2.541  -0.310  -0.474  0.00  0.00    -0.230 N 
ATOM     10  H   UNL     1      -1.703  -0.799  -0.485  0.00  0.00    +0.173 HD
BRANCH   9  11
ATOM     11  N   UNL     1      -3.754  -0.994  -0.626  0.00  0.00    -0.230 N 
ATOM     12  C   UNL     1      -3.757  -2.332  -0.788  0.00  0.00    +0.261 C 
ATOM     13  O   UNL     1      -2.708  -2.945  -0.801  0.00  0.00    -0.269 OA
ATOM     14  H   UNL     1      -4.591  -0.504  -0.616  0.00  0.00    +0.173 HD
BRANCH  12  15
ATOM     15  C   UNL     1      -5.037  -3.053  -0.948  0.00  0.00    +0.052 A 
ATOM     16  C   UNL     1      -6.245  -2.353  -0.927  0.00  0.00    +0.014 A 
ATOM     17  C   UNL     1      -7.435  -3.031  -1.083  0.00  0.00    +0.001 A 
ATOM     18  C   UNL     1      -7.436  -4.405  -1.249  0.00  0.00    +0.001 A 
ATOM     19  C   UNL     1      -6.245  -5.107  -1.265  0.00  0.00    +0.016 A 
ATOM     20  C   UNL     1      -5.045  -4.440  -1.116  0.00  0.00    +0.030 A 
ATOM     21 BR   UNL     1      -3.416  -5.401  -1.137  0.00  0.00    -0.050 Br
ENDBRANCH  12  15
ENDBRANCH   9  11
ENDBRANCH   6   7
BRANCH   4  22
ATOM     22  N   UNL     1       2.417   0.982  -0.044  0.00  0.00    +0.056 N 
ATOM     23  O   UNL     1       2.416  -0.227  -0.190  0.00  0.00    -0.126 OA
ATOM     24  O   UNL     1       3.471   1.579   0.083  0.00  0.00    -0.126 OA
ENDBRANCH   4  22
BRANCH   1  25
ATOM     25  S   UNL     1      -2.767   4.040   0.047  0.00  0.00    -0.089 S 
BRANCH  25  30
ATOM     26  C   UNL     1      -4.982   3.005   5.566  0.00  0.00    +0.044 C 
ATOM     27  C   UNL     1      -4.429   3.264   4.188  0.00  0.00    -0.050 A 
ATOM     28  C   UNL     1      -5.183   3.961   3.262  0.00  0.00    +0.004 A 
ATOM     29  C   UNL     1      -4.680   4.200   1.998  0.00  0.00    +0.015 A 
ATOM     30  C   UNL     1      -3.414   3.738   1.658  0.00  0.00    +0.013 A 
ATOM     31  C   UNL     1      -2.661   3.033   2.590  0.00  0.00    +0.015 A 
ATOM     32  C   UNL     1      -3.169   2.803   3.853  0.00  0.00    +0.004 A 
ENDBRANCH  25  30
ENDBRANCH   1  25
TORSDOF 6
