REMARK  Name = ZINC35782696
REMARK  15 active torsions:
REMARK  status: ('A' for Active; 'I' for Inactive)
REMARK    1  A    between atoms: C_1  and  C_2
REMARK    2  A    between atoms: C_2  and  C_3
REMARK    3  A    between atoms: C_2  and  N_4
REMARK    4  A    between atoms: N_4  and  C_5
REMARK    5  A    between atoms: N_4  and  C_26
REMARK    6  A    between atoms: C_5  and  C_6
REMARK    7  A    between atoms: C_7  and  C_20
REMARK    8  A    between atoms: N_9  and  C_19
REMARK    9  A    between atoms: C_10  and  O_11
REMARK   10  A    between atoms: O_11  and  C_12
REMARK   11  A    between atoms: C_26  and  C_27
REMARK   12  A    between atoms: C_27  and  C_29
REMARK   13  A    between atoms: C_27  and  O_33
REMARK   14  A    between atoms: C_29  and  C_30
REMARK   15  A    between atoms: C_30  and  C_31
REMARK                            x       y       z     vdW  Elec       q    Type
REMARK                         _______ _______ _______ _____ _____    ______ ____
ROOT
ATOM      1  C   UNL     1      -0.854  -2.291   0.907  0.00  0.00    +0.025 A 
ATOM      2  C   UNL     1       0.122  -3.304   0.977  0.00  0.00    +0.098 A 
ATOM      3  N   UNL     1       0.309  -3.604   2.245  0.00  0.00    -0.168 NA
ATOM      4  N   UNL     1      -0.536  -2.797   3.017  0.00  0.00    -0.235 N 
ATOM      5  C   UNL     1      -1.237  -1.995   2.175  0.00  0.00    +0.221 A 
ATOM      6  C   UNL     1      -0.642  -2.812   4.478  0.00  0.00    +0.176 C 
ENDROOT
BRANCH   2   7
ATOM      7  C   UNL     1       0.818  -3.925  -0.177  0.00  0.00    +0.002 A 
ATOM      8  C   UNL     1       0.108  -4.242  -1.333  0.00  0.00    +0.010 A 
ATOM      9  C   UNL     1       0.761  -4.819  -2.404  0.00  0.00    +0.001 A 
ATOM     10  C   UNL     1       2.116  -5.084  -2.330  0.00  0.00    +0.000 A 
ATOM     11  C   UNL     1       2.826  -4.771  -1.184  0.00  0.00    +0.001 A 
ATOM     12  C   UNL     1       2.185  -4.188  -0.110  0.00  0.00    +0.010 A 
ENDBRANCH   2   7
BRANCH   1  13
ATOM     13  C   UNL     1      -1.375  -1.647  -0.352  0.00  0.00    -0.035 C 
BRANCH  13  14
ATOM     14  N   UNL     1      -1.072  -0.209  -0.327  0.00  0.00    +0.386 N 
ATOM     15  H   UNL     1      -1.357   0.179   0.560  0.00  0.00    -0.081 HD
BRANCH  14  17
ATOM     16  C   UNL     1       1.119  -0.551   0.712  0.00  0.00    -0.014 C 
ATOM     17  C   UNL     1       0.372  -0.009  -0.509  0.00  0.00    -0.074 C 
ATOM     18  C   UNL     1       0.836  -0.754  -1.762  0.00  0.00    -0.014 C 
ENDBRANCH  14  17
BRANCH  14  19
ATOM     19  C   UNL     1      -1.800   0.463  -1.412  0.00  0.00    -0.046 C 
BRANCH  19  20
ATOM     20  C   UNL     1      -1.600   1.975  -1.300  0.00  0.00    +0.098 C 
BRANCH  20  21
ATOM     21  O   UNL     1      -2.120   2.433  -0.050  0.00  0.00    -0.394 OA
ATOM     22  H   UNL     1      -3.064   2.261   0.070  0.00  0.00    +0.210 HD
ENDBRANCH  20  21
BRANCH  20  23
ATOM     23  C   UNL     1      -2.335   2.674  -2.445  0.00  0.00    +0.033 C 
BRANCH  23  24
ATOM     24  C   UNL     1      -2.034   4.173  -2.406  0.00  0.00    +0.029 C 
BRANCH  24  25
ATOM     25  C   UNL     1      -2.758   4.861  -3.534  0.00  0.00    -0.034 C 
ATOM     26  C   UNL     1      -3.561   5.865  -3.282  0.00  0.00    +0.004 C 
ENDBRANCH  24  25
ENDBRANCH  23  24
ENDBRANCH  20  23
ENDBRANCH  19  20
ENDBRANCH  14  19
ENDBRANCH  13  14
ENDBRANCH   1  13
BRANCH   5  27
ATOM     27  O   UNL     1      -2.159  -1.066   2.536  0.00  0.00    -0.437 OA
BRANCH  27  28
ATOM     28  C   UNL     1      -3.443  -1.475   2.706  0.00  0.00    +0.149 A 
ATOM     29  C   UNL     1      -3.763  -2.821   2.610  0.00  0.00    +0.048 A 
ATOM     30  C   UNL     1      -5.070  -3.234   2.783  0.00  0.00    +0.004 A 
ATOM     31  C   UNL     1      -6.060  -2.307   3.053  0.00  0.00    +0.002 A 
ATOM     32  C   UNL     1      -5.745  -0.964   3.150  0.00  0.00    +0.024 A 
ATOM     33  C   UNL     1      -4.438  -0.546   2.983  0.00  0.00    +0.083 A 
ATOM     34 CL   UNL     1      -4.041   1.139   3.113  0.00  0.00    -0.080 Cl
ENDBRANCH  27  28
ENDBRANCH   5  27
TORSDOF 12
