REMARK  Name = ZINC32624605
REMARK  7 active torsions:
REMARK  status: ('A' for Active; 'I' for Inactive)
REMARK    1  A    between atoms: C_1  and  C_2
REMARK    2  A    between atoms: C_5  and  C_8
REMARK    3  A    between atoms: C_9  and  N_25
REMARK    4  A    between atoms: C_14  and  C_16
REMARK    5  A    between atoms: C_16  and  O_17
REMARK    6  A    between atoms: O_17  and  C_18
REMARK    7  A    between atoms: C_26  and  C_28
REMARK                            x       y       z     vdW  Elec       q    Type
REMARK                         _______ _______ _______ _____ _____    ______ ____
ROOT
ATOM      1  C   UNL     1      -1.407  -2.076   0.004  0.00  0.00    +0.102 A 
ATOM      2  C   UNL     1      -1.195  -0.717   0.010  0.00  0.00    +0.101 A 
ATOM      3  S   UNL     1      -2.879  -0.118   0.037  0.00  0.00    -0.037 S 
ATOM      4  C   UNL     1      -3.688  -1.712   0.028  0.00  0.00    +0.167 A 
ATOM      5  N   UNL     1      -2.658  -2.534   0.014  0.00  0.00    -0.223 NA
ATOM      6  N   UNL     1      -5.046  -2.007   0.039  0.00  0.00    -0.262 N 
ATOM      7  C   UNL     1      -5.952  -1.010   0.053  0.00  0.00    +0.256 C 
ATOM      8  O   UNL     1      -5.583   0.146   0.056  0.00  0.00    -0.272 OA
ATOM      9  H   UNL     1      -5.381  -3.055   0.037  0.00  0.00    +0.157 HD
ENDROOT
BRANCH   1  14
ATOM     10  C   UNL     1       3.044  -5.726  -0.059  0.00  0.00    +0.044 C 
ATOM     11  C   UNL     1       1.879  -4.771  -0.042  0.00  0.00    -0.050 A 
ATOM     12  C   UNL     1       0.730  -5.098   0.655  0.00  0.00    +0.004 A 
ATOM     13  C   UNL     1      -0.341  -4.227   0.674  0.00  0.00    +0.010 A 
ATOM     14  C   UNL     1      -0.262  -3.015  -0.012  0.00  0.00    +0.003 A 
ATOM     15  C   UNL     1       0.897  -2.694  -0.719  0.00  0.00    +0.010 A 
ATOM     16  C   UNL     1       1.963  -3.570  -0.725  0.00  0.00    +0.004 A 
ENDBRANCH   1  14
BRANCH   2  17
ATOM     17  N   UNL     1       0.002  -0.004   0.002  0.00  0.00    -0.272 N 
ATOM     18  C   UNL     1      -0.016   1.344   0.009  0.00  0.00    +0.284 C 
ATOM     19  O   UNL     1      -1.079   1.938   0.018  0.00  0.00    -0.266 OA
ATOM     20  H   UNL     1       0.962  -0.541  -0.010  0.00  0.00    +0.156 HD
BRANCH  18  21
ATOM     21  C   UNL     1       1.243   2.094   0.001  0.00  0.00    +0.189 A 
ATOM     22  C   UNL     1       1.367   3.454   0.008  0.00  0.00    +0.054 A 
ATOM     23  C   UNL     1       2.743   3.734  -0.003  0.00  0.00    +0.042 A 
ATOM     24  C   UNL     1       3.390   2.547  -0.015  0.00  0.00    +0.196 A 
ATOM     25  O   UNL     1       2.483   1.562  -0.007  0.00  0.00    -0.458 OA
ENDBRANCH  18  21
ENDBRANCH   2  17
BRANCH   7  26
ATOM     26  C   UNL     1      -7.425  -1.329   0.066  0.00  0.00    +0.324 C 
BRANCH  26  27
ATOM     27  O   UNL     1      -8.176  -0.114   0.080  0.00  0.00    -0.483 OA
BRANCH  27  28
ATOM     28  C   UNL     1      -9.531  -0.226   0.092  0.00  0.00    +0.121 A 
ATOM     29  C   UNL     1     -10.124  -1.480   0.085  0.00  0.00    +0.047 A 
ATOM     30  C   UNL     1     -11.501  -1.592   0.102  0.00  0.00    +0.023 A 
ATOM     31  C   UNL     1     -12.288  -0.454   0.116  0.00  0.00    +0.041 A 
ATOM     32  C   UNL     1     -11.698   0.797   0.117  0.00  0.00    +0.023 A 
ATOM     33  C   UNL     1     -10.322   0.913   0.105  0.00  0.00    +0.047 A 
ATOM     34 CL   UNL     1     -14.018  -0.597   0.132  0.00  0.00    -0.084 Cl
ENDBRANCH  27  28
ENDBRANCH  26  27
ENDBRANCH   7  26
TORSDOF 6
