REMARK  Name = ZINC40321283
REMARK  7 active torsions:
REMARK  status: ('A' for Active; 'I' for Inactive)
REMARK    1  A    between atoms: C_4  and  C_7
REMARK    2  A    between atoms: C_7  and  N_8
REMARK    3  A    between atoms: C_9  and  C_11
REMARK    4  A    between atoms: C_15  and  N_16
REMARK    5  A    between atoms: C_17  and  C_19
REMARK    6  A    between atoms: C_22  and  S_24
REMARK    7  A    between atoms: S_24  and  C_27
REMARK                            x       y       z     vdW  Elec       q    Type
REMARK                         _______ _______ _______ _____ _____    ______ ____
ROOT
ATOM      1  C   UNL     1       5.752  -1.846   2.945  0.00  0.00    +0.069 A 
ATOM      2  C   UNL     1       5.379  -3.057   3.655  0.00  0.00    -0.023 A 
ATOM      3  C   UNL     1       5.864  -3.132   4.913  0.00  0.00    -0.004 A 
ATOM      4  S   UNL     1       6.784  -1.637   5.129  0.00  0.00    -0.077 S 
ATOM      5  C   UNL     1       6.547  -0.934   3.622  0.00  0.00    +0.085 A 
ATOM      6  C   UNL     1       5.656  -4.246   5.892  0.00  0.00    +0.043 C 
ATOM      7  C   UNL     1       4.497  -5.120   5.390  0.00  0.00    +0.005 C 
ATOM      8  C   UNL     1       4.720  -5.434   3.908  0.00  0.00    +0.005 C 
ATOM      9  C   UNL     1       4.519  -4.169   3.071  0.00  0.00    +0.037 C 
ENDROOT
BRANCH   1  11
ATOM     10  N   UNL     1       4.152  -0.952   1.338  0.00  0.00    -0.307 N 
ATOM     11  C   UNL     1       5.311  -1.601   1.569  0.00  0.00    +0.247 C 
ATOM     12  O   UNL     1       5.991  -1.982   0.635  0.00  0.00    -0.270 OA
ATOM     13  H   UNL     1       3.610  -0.648   2.082  0.00  0.00    +0.149 HD
BRANCH  10  14
ATOM     14  C   UNL     1       3.711  -0.707  -0.038  0.00  0.00    +0.139 C 
BRANCH  14  18
ATOM     15  C   UNL     1      -0.017   1.378   0.010  0.00  0.00    +0.000 A 
ATOM     16  C   UNL     1       1.171   2.086   0.002  0.00  0.00    +0.000 A 
ATOM     17  C   UNL     1       2.377   1.411  -0.013  0.00  0.00    +0.005 A 
ATOM     18  C   UNL     1       2.396   0.029  -0.020  0.00  0.00    -0.030 A 
ATOM     19  C   UNL     1       1.208  -0.679  -0.012  0.00  0.00    +0.005 A 
ATOM     20  C   UNL     1       0.002  -0.004   0.002  0.00  0.00    +0.000 A 
ENDBRANCH  14  18
ENDBRANCH  10  14
ENDBRANCH   1  11
BRANCH   5  21
ATOM     21  N   UNL     1       7.033   0.278   3.162  0.00  0.00    -0.273 N 
ATOM     22  C   UNL     1       7.800   1.045   3.964  0.00  0.00    +0.284 C 
ATOM     23  O   UNL     1       8.064   0.671   5.091  0.00  0.00    -0.266 OA
ATOM     24  H   UNL     1       6.822   0.576   2.264  0.00  0.00    +0.156 HD
BRANCH  22  25
ATOM     25  C   UNL     1       8.314   2.328   3.477  0.00  0.00    +0.192 A 
ATOM     26  C   UNL     1       9.102   3.195   4.179  0.00  0.00    +0.056 A 
ATOM     27  C   UNL     1       9.355   4.286   3.332  0.00  0.00    +0.070 A 
ATOM     28  C   UNL     1       8.719   4.040   2.166  0.00  0.00    +0.246 A 
ATOM     29  O   UNL     1       8.098   2.857   2.255  0.00  0.00    -0.433 OA
BRANCH  28  30
ATOM     30  S   UNL     1       8.714   5.098   0.757  0.00  0.00    +0.058 S 
ATOM     31  O   UNL     1       7.545   4.781   0.015  0.00  0.00    -0.161 OA
ATOM     32  O   UNL     1       8.981   6.410   1.234  0.00  0.00    -0.161 OA
BRANCH  30  33
ATOM     33  C   UNL     1      10.088   4.638  -0.246  0.00  0.00    +0.097 A 
ATOM     34  C   UNL     1      11.319   5.236  -0.050  0.00  0.00    +0.027 A 
ATOM     35  C   UNL     1      12.396   4.874  -0.836  0.00  0.00    +0.002 A 
ATOM     36  C   UNL     1      12.243   3.914  -1.819  0.00  0.00    +0.000 A 
ATOM     37  C   UNL     1      11.013   3.315  -2.015  0.00  0.00    +0.002 A 
ATOM     38  C   UNL     1       9.936   3.674  -1.225  0.00  0.00    +0.027 A 
ENDBRANCH  30  33
ENDBRANCH  28  30
ENDBRANCH  22  25
ENDBRANCH   5  21
TORSDOF 7
