REMARK  Name = ZINC23600770
REMARK  9 active torsions:
REMARK  status: ('A' for Active; 'I' for Inactive)
REMARK    1  A    between atoms: C_1  and  C_2
REMARK    2  A    between atoms: C_2  and  C_4
REMARK    3  A    between atoms: C_2  and  N_14
REMARK    4  A    between atoms: C_15  and  C_17
REMARK    5  A    between atoms: C_17  and  S_18
REMARK    6  A    between atoms: S_18  and  C_19
REMARK    7  A    between atoms: C_22  and  C_30
REMARK    8  A    between atoms: N_23  and  C_24
REMARK    9  A    between atoms: C_24  and  C_25
REMARK                            x       y       z     vdW  Elec       q    Type
REMARK                         _______ _______ _______ _____ _____    ______ ____
ROOT
ATOM      1  N   UNL     1      -1.216  -5.068  -0.014  0.00  0.00    -0.312 N 
ATOM      2  C   UNL     1      -1.604  -3.777  -0.004  0.00  0.00    +0.224 C 
ATOM      3  O   UNL     1      -2.784  -3.499   0.009  0.00  0.00    -0.275 OA
ATOM      4  H   UNL     1      -0.145  -5.320  -0.025  0.00  0.00    +0.149 HD
ENDROOT
BRANCH   1   6
ATOM      5  C   UNL     1      -2.648  -6.428   1.429  0.00  0.00    +0.028 C 
ATOM      6  C   UNL     1      -2.220  -6.135  -0.011  0.00  0.00    +0.076 C 
BRANCH   6   7
ATOM      7  C   UNL     1      -1.623  -7.399  -0.632  0.00  0.00    -0.010 C 
ATOM      8  C   UNL     1      -0.406  -7.842   0.181  0.00  0.00    +0.012 C 
ATOM      9  C   UNL     1       0.191  -9.106  -0.441  0.00  0.00    -0.010 C 
ATOM     10  C   UNL     1      -0.858 -10.220  -0.437  0.00  0.00    +0.007 C 
ATOM     11  C   UNL     1      -2.075  -9.777  -1.251  0.00  0.00    -0.010 C 
ATOM     12  C   UNL     1      -2.672  -8.513  -0.629  0.00  0.00    +0.012 C 
ATOM     13  C   UNL     1      -1.647  -9.484  -2.690  0.00  0.00    +0.007 C 
ATOM     14  C   UNL     1      -0.599  -8.370  -2.694  0.00  0.00    -0.010 C 
ATOM     15  C   UNL     1       0.619  -8.813  -1.880  0.00  0.00    +0.007 C 
ATOM     16  C   UNL     1      -1.196  -7.106  -2.072  0.00  0.00    +0.012 C 
ENDBRANCH   6   7
ENDBRANCH   1   6
BRANCH   2  17
ATOM     17  C   UNL     1      -0.571  -2.680  -0.007  0.00  0.00    +0.173 C 
BRANCH  17  18
ATOM     18  S   UNL     1      -1.400  -1.071   0.009  0.00  0.00    -0.077 S 
BRANCH  18  19
ATOM     19  C   UNL     1       0.002  -0.004   0.002  0.00  0.00    +0.192 A 
ATOM     20  N   UNL     1       1.262  -0.371  -0.012  0.00  0.00    -0.122 NA
ATOM     21  N   UNL     1       2.020   0.667  -0.014  0.00  0.00    -0.133 NA
ATOM     22  C   UNL     1       1.295   1.749  -0.001  0.00  0.00    +0.138 A 
ATOM     23  N   UNL     1      -0.016   1.361   0.009  0.00  0.00    -0.298 N 
BRANCH  22  24
ATOM     24  C   UNL     1       1.806   3.167   0.001  0.00  0.00    +0.057 C 
ATOM     25  C   UNL     1       3.306   3.377  -0.218  0.00  0.00    +0.012 C 
ATOM     26  C   UNL     1       2.697   3.595   1.169  0.00  0.00    +0.012 C 
ENDBRANCH  22  24
BRANCH  23  27
ATOM     27  C   UNL     1      -1.196   2.230   0.020  0.00  0.00    +0.199 C 
BRANCH  27  28
ATOM     28  C   UNL     1      -1.593   2.520   1.444  0.00  0.00    +0.125 A 
ATOM     29  C   UNL     1      -1.149   3.548   2.191  0.00  0.00    +0.046 A 
ATOM     30  C   UNL     1      -1.778   3.439   3.453  0.00  0.00    +0.041 A 
ATOM     31  C   UNL     1      -2.561   2.346   3.405  0.00  0.00    +0.195 A 
ATOM     32  O   UNL     1      -2.446   1.794   2.186  0.00  0.00    -0.466 OA
ENDBRANCH  27  28
ENDBRANCH  23  27
ENDBRANCH  18  19
ENDBRANCH  17  18
ENDBRANCH   2  17
TORSDOF 8
