REMARK  Name = ZINC02660250
REMARK  6 active torsions:
REMARK  status: ('A' for Active; 'I' for Inactive)
REMARK    1  A    between atoms: C_7  and  C_11
REMARK    2  A    between atoms: C_11  and  C_12
REMARK    3  A    between atoms: N_16  and  C_20
REMARK    4  A    between atoms: C_20  and  C_21
REMARK    5  A    between atoms: N_23  and  C_24
REMARK    6  A    between atoms: C_25  and  C_32
REMARK                            x       y       z     vdW  Elec       q    Type
REMARK                         _______ _______ _______ _____ _____    ______ ____
ROOT
ATOM      1  C   UNL     1      -3.950   4.202  -7.234  0.00  0.00    +0.165 C 
ATOM      2  C   UNL     1      -2.751   4.073  -6.316  0.00  0.00    +0.244 C 
ATOM      3  O   UNL     1      -1.929   4.927  -6.061  0.00  0.00    -0.273 OA
ATOM      4  N   UNL     1      -2.787   2.812  -5.843  0.00  0.00    -0.216 N 
ATOM      5  C   UNL     1      -3.830   2.131  -6.332  0.00  0.00    +0.310 C 
ATOM      6  O   UNL     1      -4.071   0.973  -6.054  0.00  0.00    -0.252 OA
ATOM      7  N   UNL     1      -4.583   2.873  -7.164  0.00  0.00    -0.287 N 
ATOM      8  H   UNL     1      -5.385   2.588  -7.630  0.00  0.00    +0.151 HD
ENDROOT
BRANCH   1   9
ATOM      9  C   UNL     1      -4.906   5.281  -6.722  0.00  0.00    +0.069 C 
BRANCH   9  16
ATOM     10  C   UNL     1      -8.998   3.099  -7.405  0.00  0.00    +0.001 A 
ATOM     11  C   UNL     1      -9.724   3.629  -8.462  0.00  0.00    +0.002 A 
ATOM     12  C   UNL     1      -9.231   4.688  -9.192  0.00  0.00    +0.026 A 
ATOM     13  C   UNL     1      -7.992   5.233  -8.868  0.00  0.00    +0.047 A 
ATOM     14  C   UNL     1      -7.261   4.692  -7.796  0.00  0.00    +0.003 A 
ATOM     15  C   UNL     1      -7.780   3.618  -7.069  0.00  0.00    +0.010 A 
ATOM     16  C   UNL     1      -6.024   5.473  -7.713  0.00  0.00    -0.020 A 
ATOM     17  C   UNL     1      -6.079   6.397  -8.686  0.00  0.00    +0.087 A 
ATOM     18  N   UNL     1      -7.245   6.265  -9.389  0.00  0.00    -0.360 N 
ATOM     19  H   UNL     1      -7.508   6.819 -10.141  0.00  0.00    +0.165 HD
ENDBRANCH   9  16
ENDBRANCH   1   9
BRANCH   4  20
ATOM     20  C   UNL     1      -1.804   2.253  -4.912  0.00  0.00    +0.214 C 
BRANCH  20  21
ATOM     21  C   UNL     1      -2.258   2.497  -3.496  0.00  0.00    +0.236 C 
ATOM     22  O   UNL     1      -3.300   3.079  -3.285  0.00  0.00    -0.274 OA
ATOM     23  N   UNL     1      -1.505   2.067  -2.463  0.00  0.00    -0.278 N 
ATOM     24  H   UNL     1      -0.671   1.601  -2.632  0.00  0.00    +0.155 HD
BRANCH  23  25
ATOM     25  C   UNL     1      -1.923   2.290  -1.160  0.00  0.00    +0.084 A 
ATOM     26  C   UNL     1      -1.294   1.929   0.019  0.00  0.00    +0.068 A 
ATOM     27  C   UNL     1      -1.949   2.292   1.275  0.00  0.00    -0.023 A 
ATOM     28  C   UNL     1      -3.116   2.948   1.141  0.00  0.00    -0.004 A 
ATOM     29  S   UNL     1      -3.358   3.087  -0.613  0.00  0.00    -0.077 S 
ATOM     30  C   UNL     1      -3.727   3.290   2.473  0.00  0.00    +0.043 C 
ATOM     31  C   UNL     1      -2.568   3.136   3.483  0.00  0.00    +0.010 C 
ATOM     32  C   UNL     1      -1.659   2.118   2.766  0.00  0.00    +0.037 C 
BRANCH  26  33
ATOM     33  C   UNL     1      -0.014   1.213   0.009  0.00  0.00    +0.244 C 
ATOM     34  O   UNL     1       0.002  -0.004   0.002  0.00  0.00    -0.270 OA
ATOM     35  N   UNL     1       1.143   1.903   0.001  0.00  0.00    -0.325 N 
ATOM     36  H   UNL     1       1.990   1.429  -0.009  0.00  0.00    +0.145 HD
ATOM     37  H   UNL     1       1.130   2.873   0.007  0.00  0.00    +0.145 HD
ENDBRANCH  26  33
ENDBRANCH  23  25
ENDBRANCH  20  21
ENDBRANCH   4  20
TORSDOF 6
