REMARK  Name = ZINC58864276
REMARK  7 active torsions:
REMARK  status: ('A' for Active; 'I' for Inactive)
REMARK    1  A    between atoms: C_1  and  C_2
REMARK    2  A    between atoms: C_5  and  S_8
REMARK    3  A    between atoms: S_8  and  C_9
REMARK    4  A    between atoms: C_9  and  C_10
REMARK    5  A    between atoms: N_12  and  N_13
REMARK    6  A    between atoms: N_16  and  C_17
REMARK    7  A    between atoms: C_22  and  C_23
REMARK                            x       y       z     vdW  Elec       q    Type
REMARK                         _______ _______ _______ _____ _____    ______ ____
ROOT
ATOM      1  C   UNL     1       0.058  -6.482   1.871  0.00  0.00    +0.239 C 
ATOM      2  O   UNL     1       0.058  -7.180   0.879  0.00  0.00    -0.273 OA
ATOM      3  N   UNL     1       0.084  -7.048   3.094  0.00  0.00    -0.233 N 
ATOM      4  H   UNL     1       0.084  -6.489   3.887  0.00  0.00    +0.173 HD
ENDROOT
BRANCH   3   5
ATOM      5  N   UNL     1       0.112  -8.443   3.219  0.00  0.00    -0.218 N 
ATOM      6  C   UNL     1       0.139  -9.009   4.442  0.00  0.00    +0.320 C 
ATOM      7  O   UNL     1       0.163 -10.220   4.551  0.00  0.00    -0.251 OA
ATOM      8  N   UNL     1       0.138  -8.233   5.544  0.00  0.00    -0.268 N 
ATOM      9  H   UNL     1       0.113  -9.001   2.426  0.00  0.00    +0.174 HD
ATOM     10  H   UNL     1       0.201  -7.269   5.458  0.00  0.00    +0.156 HD
BRANCH   8  11
ATOM     11  C   UNL     1       0.046  -8.819   6.812  0.00  0.00    +0.038 A 
ATOM     12  C   UNL     1      -0.543 -10.068   6.961  0.00  0.00    +0.023 A 
ATOM     13  C   UNL     1      -0.631 -10.643   8.213  0.00  0.00    +0.002 A 
ATOM     14  C   UNL     1      -0.134  -9.977   9.318  0.00  0.00    +0.000 A 
ATOM     15  C   UNL     1       0.453  -8.733   9.173  0.00  0.00    +0.005 A 
ATOM     16  C   UNL     1       0.550  -8.155   7.923  0.00  0.00    -0.029 A 
ATOM     17  C   UNL     1       1.195  -6.802   7.765  0.00  0.00    +0.045 C 
ENDBRANCH   8  11
ENDBRANCH   3   5
BRANCH   1  18
ATOM     18  C   UNL     1       0.027  -4.981   1.736  0.00  0.00    +0.171 C 
BRANCH  18  19
ATOM     19  S   UNL     1      -0.004  -4.532  -0.021  0.00  0.00    -0.116 S 
BRANCH  19  24
ATOM     20  C   UNL     1      -0.121   1.502   0.014  0.00  0.00    +0.044 C 
ATOM     21  C   UNL     1      -0.092  -0.004   0.005  0.00  0.00    -0.050 A 
ATOM     22  C   UNL     1      -0.093  -0.687  -1.198  0.00  0.00    +0.004 A 
ATOM     23  C   UNL     1      -0.066  -2.068  -1.210  0.00  0.00    +0.015 A 
ATOM     24  C   UNL     1      -0.038  -2.771  -0.011  0.00  0.00    +0.008 A 
ATOM     25  C   UNL     1      -0.036  -2.081   1.195  0.00  0.00    +0.015 A 
ATOM     26  C   UNL     1      -0.057  -0.700   1.200  0.00  0.00    +0.004 A 
ENDBRANCH  19  24
ENDBRANCH  18  19
ENDBRANCH   1  18
TORSDOF 5
