REMARK  Name = ZINC00973376
REMARK  4 active torsions:
REMARK  status: ('A' for Active; 'I' for Inactive)
REMARK    1  A    between atoms: C_1  and  C_2
REMARK    2  A    between atoms: N_4  and  C_20
REMARK    3  A    between atoms: C_8  and  C_10
REMARK    4  A    between atoms: C_8  and  C_16
REMARK                            x       y       z     vdW  Elec       q    Type
REMARK                         _______ _______ _______ _____ _____    ______ ____
ROOT
ATOM      1  C   UNL     1       1.218   7.484   0.033  0.00  0.00    +0.037 C 
ATOM      2  C   UNL     1       1.251   5.995   0.262  0.00  0.00    +0.001 C 
ATOM      3  C   UNL     1       2.320   5.290  -0.098  0.00  0.00    +0.075 C 
ATOM      4  N   UNL     1       2.354   3.889  -0.005  0.00  0.00    -0.219 N 
ATOM      5  C   UNL     1       3.509   3.228   0.088  0.00  0.00    +0.313 C 
ATOM      6  O   UNL     1       3.418   2.017   0.151  0.00  0.00    -0.252 OA
ATOM      7  N   UNL     1       4.742   3.713   0.114  0.00  0.00    -0.273 N 
ATOM      8  C   UNL     1       5.081   5.137   0.170  0.00  0.00    +0.209 C 
ATOM      9  S   UNL     1       3.791   6.063  -0.725  0.00  0.00    -0.070 S 
ATOM     10  H   UNL     1       5.475   3.078   0.099  0.00  0.00    +0.152 HD
ENDROOT
BRANCH   8  11
ATOM     11  C   UNL     1       5.131   5.592   1.606  0.00  0.00    -0.005 A 
ATOM     12  C   UNL     1       5.413   4.684   2.609  0.00  0.00    +0.007 A 
ATOM     13  C   UNL     1       5.463   5.102   3.926  0.00  0.00    +0.000 A 
ATOM     14  C   UNL     1       5.222   6.426   4.240  0.00  0.00    +0.000 A 
ATOM     15  C   UNL     1       4.936   7.333   3.237  0.00  0.00    +0.000 A 
ATOM     16  C   UNL     1       4.890   6.916   1.920  0.00  0.00    +0.007 A 
ENDBRANCH   8  11
BRANCH   4  17
ATOM     17  C   UNL     1       1.151   3.172  -0.005  0.00  0.00    +0.043 A 
ATOM     18  C   UNL     1       0.545   2.829  -1.207  0.00  0.00    +0.024 A 
ATOM     19  C   UNL     1      -0.641   2.122  -1.203  0.00  0.00    +0.002 A 
ATOM     20  C   UNL     1      -1.228   1.759  -0.005  0.00  0.00    +0.000 A 
ATOM     21  C   UNL     1      -0.624   2.094   1.194  0.00  0.00    +0.002 A 
ATOM     22  C   UNL     1       0.562   2.801   1.197  0.00  0.00    +0.024 A 
ENDBRANCH   4  17
BRANCH   8  23
ATOM     23  C   UNL     1       6.439   5.371  -0.494  0.00  0.00    +0.425 C 
ATOM     24  F   UNL     1       6.744   6.736  -0.465  0.00  0.00    -0.167 F 
ATOM     25  F   UNL     1       7.425   4.658   0.196  0.00  0.00    -0.167 F 
ATOM     26  F   UNL     1       6.391   4.933  -1.822  0.00  0.00    -0.167 F 
ENDBRANCH   8  23
TORSDOF 3
