REMARK  Name = ZINC59889364
REMARK  11 active torsions:
REMARK  status: ('A' for Active; 'I' for Inactive)
REMARK    1  A    between atoms: C_1  and  C_2
REMARK    2  A    between atoms: C_2  and  C_3
REMARK    3  A    between atoms: C_3  and  C_33
REMARK    4  A    between atoms: N_4  and  N_5
REMARK    5  A    between atoms: C_8  and  S_11
REMARK    6  A    between atoms: S_11  and  C_12
REMARK    7  A    between atoms: C_12  and  C_13
REMARK    8  A    between atoms: N_15  and  C_16
REMARK    9  A    between atoms: C_19  and  S_22
REMARK   10  A    between atoms: S_22  and  N_25
REMARK   11  A    between atoms: C_29  and  C_32
REMARK                            x       y       z     vdW  Elec       q    Type
REMARK                         _______ _______ _______ _____ _____    ______ ____
ROOT
ATOM      1  C   UNL     1      -3.064  -6.705   9.228  0.00  0.00    +0.227 C 
ATOM      2  O   UNL     1      -3.068  -7.712   9.903  0.00  0.00    -0.275 OA
ATOM      3  N   UNL     1      -4.228  -6.127   8.872  0.00  0.00    -0.285 N 
ATOM      4  H   UNL     1      -4.224  -5.285   8.390  0.00  0.00    +0.155 HD
ENDROOT
BRANCH   3   5
ATOM      5  C   UNL     1      -5.442  -6.740   9.200  0.00  0.00    +0.034 A 
ATOM      6  C   UNL     1      -6.521  -6.658   8.329  0.00  0.00    +0.025 A 
ATOM      7  C   UNL     1      -7.718  -7.264   8.655  0.00  0.00    +0.030 A 
ATOM      8  C   UNL     1      -7.843  -7.953   9.847  0.00  0.00    +0.106 A 
ATOM      9  C   UNL     1      -6.772  -8.037  10.717  0.00  0.00    +0.030 A 
ATOM     10  C   UNL     1      -5.570  -7.438  10.394  0.00  0.00    +0.025 A 
BRANCH   8  11
ATOM     11  S   UNL     1      -9.373  -8.726  10.259  0.00  0.00    +0.061 S 
ATOM     12  O   UNL     1      -9.399  -8.843  11.675  0.00  0.00    -0.153 OA
ATOM     13  O   UNL     1     -10.383  -8.040   9.532  0.00  0.00    -0.153 OA
BRANCH  11  14
ATOM     14  N   UNL     1      -9.320 -10.267   9.657  0.00  0.00    -0.176 NA
ATOM     15  C   UNL     1      -9.790 -10.556   8.295  0.00  0.00    +0.109 C 
ATOM     16  C   UNL     1      -8.679 -11.286   7.534  0.00  0.00    +0.017 C 
ATOM     17  C   UNL     1      -8.252 -12.523   8.327  0.00  0.00    +0.006 C 
ATOM     18  C   UNL     1      -7.703 -12.094   9.690  0.00  0.00    +0.002 C 
ATOM     19  C   UNL     1      -8.797 -11.372  10.473  0.00  0.00    +0.112 C 
ATOM     20  C   UNL     1      -7.245 -13.329  10.468  0.00  0.00    +0.009 C 
ENDBRANCH  11  14
ENDBRANCH   8  11
ENDBRANCH   3   5
BRANCH   1  21
ATOM     21  C   UNL     1      -1.756  -6.100   8.786  0.00  0.00    +0.173 C 
BRANCH  21  22
ATOM     22  S   UNL     1      -0.382  -7.101   9.419  0.00  0.00    -0.075 S 
BRANCH  22  26
ATOM     23  N   UNL     1       4.526  -5.891   8.471  0.00  0.00    -0.205 N 
ATOM     24  C   UNL     1       3.145  -5.816   8.459  0.00  0.00    +0.232 A 
ATOM     25  N   UNL     1       2.319  -6.656   9.046  0.00  0.00    -0.186 NA
ATOM     26  C   UNL     1       1.056  -6.274   8.825  0.00  0.00    +0.211 A 
ATOM     27  N   UNL     1       1.062  -5.185   8.094  0.00  0.00    -0.144 NA
ATOM     28  N   UNL     1       2.407  -4.864   7.848  0.00  0.00    -0.245 N 
ATOM     29  H   UNL     1       5.052  -5.219   8.010  0.00  0.00    +0.177 HD
ATOM     30  H   UNL     1       2.740  -4.109   7.338  0.00  0.00    +0.192 HD
BRANCH  23  32
ATOM     31  C   UNL     1       6.443  -7.008   9.158  0.00  0.00    +0.034 C 
ATOM     32  N   UNL     1       5.165  -6.938   9.147  0.00  0.00    -0.189 NA
ATOM     33  C   UNL     1       7.261  -5.963   8.443  0.00  0.00    +0.062 C 
BRANCH  31  35
ATOM     34  C   UNL     1       7.875  -9.013   8.880  0.00  0.00    +0.010 C 
ATOM     35  C   UNL     1       7.130  -8.134   9.886  0.00  0.00    +0.049 C 
ENDBRANCH  31  35
ENDBRANCH  23  32
ENDBRANCH  22  26
ENDBRANCH  21  22
ENDBRANCH   1  21
TORSDOF 8
