REMARK  Name = ZINC09061542
REMARK  10 active torsions:
REMARK  status: ('A' for Active; 'I' for Inactive)
REMARK    1  A    between atoms: C_1  and  C_2
REMARK    2  A    between atoms: C_5  and  N_9
REMARK    3  A    between atoms: C_6  and  C_8
REMARK    4  A    between atoms: N_9  and  S_10
REMARK    5  A    between atoms: S_10  and  C_13
REMARK    6  A    between atoms: C_16  and  N_19
REMARK    7  A    between atoms: C_20  and  C_22
REMARK    8  A    between atoms: C_22  and  C_23
REMARK    9  A    between atoms: C_23  and  C_24
REMARK   10  A    between atoms: C_26  and  C_29
REMARK                            x       y       z     vdW  Elec       q    Type
REMARK                         _______ _______ _______ _____ _____    ______ ____
ROOT
ATOM      1  C   UNL     1       1.485   2.874   1.292  0.00  0.00    +0.109 A 
ATOM      2  C   UNL     1       0.972   4.155   1.200  0.00  0.00    +0.030 A 
ATOM      3  C   UNL     1       1.036   5.006   2.285  0.00  0.00    +0.025 A 
ATOM      4  C   UNL     1       1.626   4.579   3.467  0.00  0.00    +0.033 A 
ATOM      5  C   UNL     1       2.146   3.295   3.555  0.00  0.00    +0.025 A 
ATOM      6  C   UNL     1       2.074   2.446   2.468  0.00  0.00    +0.030 A 
ENDROOT
BRANCH   4   7
ATOM      7  N   UNL     1       1.697   5.441   4.567  0.00  0.00    -0.285 N 
ATOM      8  C   UNL     1       2.766   5.402   5.386  0.00  0.00    +0.218 C 
ATOM      9  O   UNL     1       3.627   4.564   5.220  0.00  0.00    -0.275 OA
ATOM     10  H   UNL     1       0.976   6.067   4.739  0.00  0.00    +0.155 HD
BRANCH   8  11
ATOM     11  C   UNL     1       2.892   6.399   6.509  0.00  0.00    +0.105 C 
BRANCH  11  12
ATOM     12  C   UNL     1       4.186   6.137   7.282  0.00  0.00    +0.108 C 
BRANCH  12  13
ATOM     13  C   UNL     1       4.312   7.134   8.404  0.00  0.00    +0.228 A 
ATOM     14  N   UNL     1       3.861   6.992   9.626  0.00  0.00    -0.191 NA
ATOM     15  C   UNL     1       4.203   8.128  10.274  0.00  0.00    +0.202 A 
ATOM     16  N   UNL     1       4.836   8.886   9.417  0.00  0.00    -0.056 NA
ATOM     17  O   UNL     1       4.910   8.328   8.343  0.00  0.00    -0.338 OA
BRANCH  15  18
ATOM     18  C   UNL     1       3.915   8.453  11.693  0.00  0.00    +0.022 A 
ATOM     19  C   UNL     1       3.222   7.546  12.492  0.00  0.00    +0.012 A 
ATOM     20  C   UNL     1       2.961   7.852  13.812  0.00  0.00    +0.001 A 
ATOM     21  C   UNL     1       3.376   9.061  14.340  0.00  0.00    +0.000 A 
ATOM     22  C   UNL     1       4.059   9.968  13.550  0.00  0.00    +0.001 A 
ATOM     23  C   UNL     1       4.330   9.670  12.230  0.00  0.00    +0.012 A 
ENDBRANCH  15  18
ENDBRANCH  12  13
ENDBRANCH  11  12
ENDBRANCH   8  11
ENDBRANCH   4   7
BRANCH   1  24
ATOM     24  S   UNL     1       1.396   1.788  -0.092  0.00  0.00    +0.072 S 
ATOM     25  O   UNL     1       2.439   0.837   0.070  0.00  0.00    -0.150 OA
ATOM     26  O   UNL     1       1.288   2.610  -1.246  0.00  0.00    -0.150 OA
BRANCH  24  27
ATOM     27  N   UNL     1      -0.029   0.955   0.030  0.00  0.00    -0.216 N 
ATOM     28  H   UNL     1      -0.021  -0.013   0.098  0.00  0.00    +0.174 HD
BRANCH  27  33
ATOM     29  C   UNL     1      -4.962   3.753   0.029  0.00  0.00    +0.044 C 
ATOM     30  C   UNL     1      -3.651   3.010   0.030  0.00  0.00    -0.050 A 
ATOM     31  C   UNL     1      -2.600   3.463  -0.747  0.00  0.00    +0.005 A 
ATOM     32  C   UNL     1      -1.398   2.784  -0.749  0.00  0.00    +0.025 A 
ATOM     33  C   UNL     1      -1.244   1.644   0.031  0.00  0.00    +0.051 A 
ATOM     34  C   UNL     1      -2.303   1.189   0.806  0.00  0.00    -0.028 A 
ATOM     35  C   UNL     1      -3.501   1.876   0.808  0.00  0.00    +0.008 A 
ATOM     36  C   UNL     1      -2.142  -0.049   1.650  0.00  0.00    +0.046 C 
ENDBRANCH  27  33
ENDBRANCH  24  27
ENDBRANCH   1  24
TORSDOF 8
