REMARK  Name = ZINC28289701
REMARK  7 active torsions:
REMARK  status: ('A' for Active; 'I' for Inactive)
REMARK    1  A    between atoms: C_1  and  C_2
REMARK    2  A    between atoms: C_6  and  C_30
REMARK    3  A    between atoms: C_7  and  C_11
REMARK    4  A    between atoms: N_13  and  C_14
REMARK    5  A    between atoms: C_14  and  C_15
REMARK    6  A    between atoms: C_15  and  C_17
REMARK    7  A    between atoms: C_15  and  N_24
REMARK                            x       y       z     vdW  Elec       q    Type
REMARK                         _______ _______ _______ _____ _____    ______ ____
ROOT
ATOM      1  C   UNL     1      -0.139   1.441   0.012  0.00  0.00    +0.094 C 
ENDROOT
BRANCH   1   4
ATOM      2  C   UNL     1      -0.297   2.278   2.295  0.00  0.00    +0.280 C 
ATOM      3  O   UNL     1       0.765   1.736   2.535  0.00  0.00    -0.267 OA
ATOM      4  N   UNL     1      -0.834   2.190   1.062  0.00  0.00    -0.310 N 
ATOM      5  H   UNL     1      -1.795   2.680   0.844  0.00  0.00    +0.149 HD
BRANCH   2  12
ATOM      6  C   UNL     1      -4.963   6.335   6.377  0.00  0.00    +0.044 C 
ATOM      7  C   UNL     1      -3.763   5.509   5.991  0.00  0.00    -0.047 A 
ATOM      8  C   UNL     1      -2.781   5.244   6.935  0.00  0.00    +0.004 A 
ATOM      9  C   UNL     1      -1.686   4.496   6.604  0.00  0.00    +0.012 A 
ATOM     10  C   UNL     1      -1.556   3.997   5.306  0.00  0.00    +0.024 A 
ATOM     11  C   UNL     1      -0.550   3.185   4.622  0.00  0.00    +0.008 A 
ATOM     12  C   UNL     1      -0.994   3.030   3.348  0.00  0.00    +0.193 A 
ATOM     13  O   UNL     1      -2.170   3.674   3.194  0.00  0.00    -0.450 OA
ATOM     14  C   UNL     1      -2.549   4.263   4.345  0.00  0.00    +0.136 A 
ATOM     15  C   UNL     1      -3.654   5.026   4.705  0.00  0.00    +0.050 A 
ATOM     16  C   UNL     1       0.723   2.634   5.211  0.00  0.00    +0.048 C 
ENDBRANCH   2  12
ENDBRANCH   1   4
BRANCH   1  17
ATOM     17  C   UNL     1      -1.034   1.349  -1.226  0.00  0.00    -0.019 C 
BRANCH  17  18
ATOM     18  C   UNL     1      -0.247   0.766  -2.372  0.00  0.00    -0.041 A 
ATOM     19  C   UNL     1      -0.425  -0.558  -2.729  0.00  0.00    +0.003 A 
ATOM     20  C   UNL     1       0.293  -1.092  -3.782  0.00  0.00    +0.000 A 
ATOM     21  C   UNL     1       1.196  -0.305  -4.473  0.00  0.00    +0.001 A 
ATOM     22  C   UNL     1       1.378   1.017  -4.114  0.00  0.00    +0.020 A 
ATOM     23  C   UNL     1       0.656   1.553  -3.063  0.00  0.00    +0.043 A 
ATOM     24 CL   UNL     1       0.884   3.214  -2.611  0.00  0.00    -0.083 Cl
ENDBRANCH  17  18
BRANCH  17  25
ATOM     25  N   UNL     1      -2.187   0.487  -0.934  0.00  0.00    +0.385 N 
ATOM     26  C   UNL     1      -3.285   1.260  -0.342  0.00  0.00    -0.078 C 
ATOM     27  C   UNL     1      -4.516   0.364  -0.186  0.00  0.00    -0.019 C 
ATOM     28  C   UNL     1      -4.164  -0.827   0.710  0.00  0.00    -0.004 C 
ATOM     29  C   UNL     1      -2.986  -1.587   0.095  0.00  0.00    -0.019 C 
ATOM     30  C   UNL     1      -1.800  -0.634  -0.069  0.00  0.00    -0.078 C 
ATOM     31  H   UNL     1      -2.546   0.068  -1.885  0.00  0.00    -0.081 HD
ENDBRANCH  17  25
ENDBRANCH   1  17
TORSDOF 5
