REMARK  Name = ZINC03641471
REMARK  5 active torsions:
REMARK  status: ('A' for Active; 'I' for Inactive)
REMARK    1  A    between atoms: C_1  and  C_2
REMARK    2  A    between atoms: C_5  and  S_8
REMARK    3  A    between atoms: S_8  and  N_11
REMARK    4  A    between atoms: N_11  and  N_12
REMARK    5  A    between atoms: C_13  and  C_24
REMARK                            x       y       z     vdW  Elec       q    Type
REMARK                         _______ _______ _______ _____ _____    ______ ____
ROOT
ATOM      1  N   UNL     1       2.500  -4.622   1.014  0.00  0.00    -0.189 N 
ATOM      2  C   UNL     1       3.240  -3.363   0.920  0.00  0.00    +0.210 C 
ATOM      3  N   UNL     1       3.446  -2.794   2.258  0.00  0.00    -0.320 N 
ATOM      4  C   UNL     1       3.849  -3.639   3.285  0.00  0.00    +0.041 A 
ATOM      5  C   UNL     1       4.621  -3.191   4.343  0.00  0.00    +0.024 A 
ATOM      6  C   UNL     1       4.997  -4.075   5.337  0.00  0.00    +0.002 A 
ATOM      7  C   UNL     1       4.609  -5.404   5.282  0.00  0.00    +0.001 A 
ATOM      8  C   UNL     1       3.838  -5.867   4.235  0.00  0.00    +0.015 A 
ATOM      9  C   UNL     1       3.451  -4.987   3.228  0.00  0.00    +0.059 A 
ATOM     10  C   UNL     1       2.617  -5.423   2.093  0.00  0.00    +0.265 C 
ATOM     11  O   UNL     1       2.043  -6.494   2.129  0.00  0.00    -0.268 OA
ATOM     12  H   UNL     1       3.305  -1.848   2.421  0.00  0.00    +0.148 HD
ENDROOT
BRANCH   2  13
ATOM     13  C   UNL     1       4.580  -3.619   0.279  0.00  0.00    -0.008 A 
ATOM     14  C   UNL     1       4.721  -4.638  -0.644  0.00  0.00    +0.007 A 
ATOM     15  C   UNL     1       5.949  -4.872  -1.233  0.00  0.00    +0.000 A 
ATOM     16  C   UNL     1       7.037  -4.087  -0.899  0.00  0.00    +0.000 A 
ATOM     17  C   UNL     1       6.895  -3.067   0.023  0.00  0.00    +0.000 A 
ATOM     18  C   UNL     1       5.666  -2.830   0.608  0.00  0.00    +0.007 A 
ENDBRANCH   2  13
BRANCH   1  19
ATOM     19  N   UNL     1       1.651  -4.999  -0.034  0.00  0.00    -0.103 NA
ATOM     20  H   UNL     1       1.993  -5.536  -0.767  0.00  0.00    +0.172 HD
BRANCH  19  21
ATOM     21  S   UNL     1       0.063  -4.530  -0.023  0.00  0.00    +0.074 S 
ATOM     22  O   UNL     1      -0.476  -4.950   1.223  0.00  0.00    -0.152 OA
ATOM     23  O   UNL     1      -0.490  -4.937  -1.267  0.00  0.00    -0.152 OA
BRANCH  21  28
ATOM     24  C   UNL     1      -0.018   1.503   0.010  0.00  0.00    +0.044 C 
ATOM     25  C   UNL     1       0.002  -0.004   0.002  0.00  0.00    -0.050 A 
ATOM     26  C   UNL     1       0.006  -0.689  -1.199  0.00  0.00    +0.005 A 
ATOM     27  C   UNL     1       0.025  -2.071  -1.206  0.00  0.00    +0.029 A 
ATOM     28  C   UNL     1       0.040  -2.768  -0.013  0.00  0.00    +0.107 A 
ATOM     29  C   UNL     1       0.037  -2.084   1.188  0.00  0.00    +0.029 A 
ATOM     30  C   UNL     1       0.023  -0.702   1.195  0.00  0.00    +0.005 A 
ENDBRANCH  21  28
ENDBRANCH  19  21
ENDBRANCH   1  19
TORSDOF 4
