REMARK  Name = ZINC44243577
REMARK  5 active torsions:
REMARK  status: ('A' for Active; 'I' for Inactive)
REMARK    1  A    between atoms: C_2  and  S_8
REMARK    2  A    between atoms: S_8  and  N_11
REMARK    3  A    between atoms: N_11  and  C_12
REMARK    4  A    between atoms: C_12  and  C_13
REMARK    5  A    between atoms: C_13  and  N_20
REMARK                            x       y       z     vdW  Elec       q    Type
REMARK                         _______ _______ _______ _____ _____    ______ ____
ROOT
ATOM      1  N   UNL     1       1.323   2.994   2.476  0.00  0.00    -0.191 NA
ATOM      2  H   UNL     1       0.859   2.814   3.309  0.00  0.00    +0.148 HD
ENDROOT
BRANCH   1   3
ATOM      3  S   UNL     1       0.889   2.189   1.096  0.00  0.00    +0.060 S 
ATOM      4  O   UNL     1       0.736   3.174   0.083  0.00  0.00    -0.153 OA
ATOM      5  O   UNL     1      -0.158   1.298   1.457  0.00  0.00    -0.153 OA
BRANCH   3   7
ATOM      6  C   UNL     1       2.378  -0.110   1.095  0.00  0.00    +0.046 A 
ATOM      7  C   UNL     1       2.261   1.189   0.623  0.00  0.00    +0.124 A 
ATOM      8  C   UNL     1       3.233   1.689  -0.222  0.00  0.00    +0.139 A 
ATOM      9  N   UNL     1       4.262   0.947  -0.581  0.00  0.00    -0.260 NA
ATOM     10  C   UNL     1       4.407  -0.292  -0.153  0.00  0.00    +0.126 A 
ATOM     11  C   UNL     1       3.474  -0.860   0.696  0.00  0.00    +0.038 A 
ATOM     12 BR   UNL     1       3.691  -2.637   1.305  0.00  0.00    -0.049 Br
ENDBRANCH   3   7
ENDBRANCH   1   3
BRANCH   1  13
ATOM     13  C   UNL     1       2.408   3.978   2.440  0.00  0.00    +0.093 C 
BRANCH  13  14
ATOM     14  C   UNL     1       2.365   4.831   3.710  0.00  0.00    -0.057 C 
ATOM     15  C   UNL     1       2.558   6.280   3.352  0.00  0.00    -0.012 C 
ATOM     16  C   UNL     1       3.338   6.463   2.036  0.00  0.00    -0.001 C 
ATOM     17  C   UNL     1       4.528   5.492   1.907  0.00  0.00    -0.000 C 
ATOM     18  C   UNL     1       5.289   5.340   3.196  0.00  0.00    -0.000 C 
ATOM     19  C   UNL     1       4.738   4.112   3.948  0.00  0.00    -0.001 C 
ATOM     20  C   UNL     1       3.503   4.405   4.659  0.00  0.00    -0.012 C 
BRANCH  14  21
ATOM     21  N   UNL     1       1.070   4.653   4.380  0.00  0.00    +0.383 N 
ATOM     22  H   UNL     1       0.949   3.682   4.625  0.00  0.00    -0.089 HD
ATOM     23  H   UNL     1       1.044   5.217   5.217  0.00  0.00    -0.089 HD
ATOM     24  H   UNL     1       0.328   4.939   3.759  0.00  0.00    -0.089 HD
ENDBRANCH  14  21
ENDBRANCH  13  14
ENDBRANCH   1  13
TORSDOF 5
