REMARK  Name = ZINC39624271
REMARK  7 active torsions:
REMARK  status: ('A' for Active; 'I' for Inactive)
REMARK    1  A    between atoms: C_1  and  C_2
REMARK    2  A    between atoms: C_2  and  C_3
REMARK    3  A    between atoms: C_2  and  C_4
REMARK    4  A    between atoms: C_4  and  N_5
REMARK    5  A    between atoms: C_6  and  C_8
REMARK    6  A    between atoms: C_19  and  C_21
REMARK    7  A    between atoms: C_27  and  C_29
REMARK                            x       y       z     vdW  Elec       q    Type
REMARK                         _______ _______ _______ _____ _____    ______ ____
ROOT
ATOM      1  C   UNL     1      -2.558  -4.183  -0.262  0.00  0.00    +0.100 C 
ATOM      2  C   UNL     1      -2.061  -4.593  -1.666  0.00  0.00    +0.121 C 
ATOM      3  N   UNL     1      -2.882  -5.775  -2.022  0.00  0.00    -0.299 N 
ATOM      4  C   UNL     1      -4.237  -5.449  -1.516  0.00  0.00    +0.115 C 
ATOM      5  C   UNL     1      -3.986  -4.745  -0.167  0.00  0.00    -0.004 C 
ATOM      6  C   UNL     1      -4.988  -3.612   0.031  0.00  0.00    -0.010 C 
ATOM      7  C   UNL     1      -6.394  -4.200   0.181  0.00  0.00    -0.082 C 
ATOM      8  N   UNL     1      -6.424  -5.113   1.329  0.00  0.00    +0.379 N 
ATOM      9  C   UNL     1      -5.526  -6.250   1.090  0.00  0.00    -0.082 C 
ATOM     10  C   UNL     1      -4.084  -5.748   0.978  0.00  0.00    -0.010 C 
ATOM     11  C   UNL     1      -2.487  -6.893  -2.662  0.00  0.00    +0.236 C 
ATOM     12  O   UNL     1      -3.284  -7.780  -2.883  0.00  0.00    -0.274 OA
ATOM     13  H   UNL     1      -6.127  -4.620   2.158  0.00  0.00    -0.086 HD
ATOM     14  H   UNL     1      -7.365  -5.452   1.463  0.00  0.00    -0.086 HD
ENDROOT
BRANCH  11  15
ATOM     15  C   UNL     1      -1.053  -7.042  -3.103  0.00  0.00    +0.162 C 
ATOM     16  C   UNL     1      -0.826  -6.269  -4.420  0.00  0.00    +0.033 C 
ATOM     17  C   UNL     1       0.130  -7.202  -5.209  0.00  0.00    +0.021 C 
ATOM     18  C   UNL     1      -0.383  -8.602  -4.789  0.00  0.00    +0.109 C 
ATOM     19  N   UNL     1      -0.755  -8.457  -3.367  0.00  0.00    -0.283 N 
ATOM     20  C   UNL     1      -0.813  -9.454  -2.461  0.00  0.00    +0.320 C 
ATOM     21  O   UNL     1      -1.133  -9.215  -1.316  0.00  0.00    -0.266 OA
BRANCH  20  22
ATOM     22  C   UNL     1      -0.480 -10.865  -2.872  0.00  0.00    +0.470 C 
ATOM     23  F   UNL     1      -0.611 -11.715  -1.768  0.00  0.00    -0.162 F 
ATOM     24  F   UNL     1      -1.356 -11.276  -3.882  0.00  0.00    -0.162 F 
ATOM     25  F   UNL     1       0.835 -10.915  -3.346  0.00  0.00    -0.162 F 
ENDBRANCH  20  22
ENDBRANCH  11  15
BRANCH   1  27
ATOM     26  N   UNL     1      -2.404  -2.109   1.079  0.00  0.00    -0.315 N 
ATOM     27  C   UNL     1      -2.575  -2.682  -0.130  0.00  0.00    +0.218 C 
ATOM     28  O   UNL     1      -2.742  -1.988  -1.111  0.00  0.00    -0.275 OA
ATOM     29  H   UNL     1      -2.271  -2.664   1.863  0.00  0.00    +0.149 HD
BRANCH  26  30
ATOM     30  C   UNL     1      -2.421  -0.650   1.207  0.00  0.00    +0.107 C 
BRANCH  30  32
ATOM     31  C   UNL     1      -2.100   1.257   2.788  0.00  0.00    +0.009 C 
ATOM     32  C   UNL     1      -2.207  -0.265   2.672  0.00  0.00    -0.000 C 
ATOM     33  C   UNL     1      -3.390  -0.758   3.508  0.00  0.00    +0.009 C 
ENDBRANCH  30  32
ENDBRANCH  26  30
ENDBRANCH   1  27
TORSDOF 5
