REMARK  Name = ZINC02907770
REMARK  15 active torsions:
REMARK  status: ('A' for Active; 'I' for Inactive)
REMARK    1  A    between atoms: C_1  and  C_2
REMARK    2  A    between atoms: C_2  and  C_3
REMARK    3  A    between atoms: C_3  and  C_4
REMARK    4  A    between atoms: C_4  and  C_5
REMARK    5  A    between atoms: C_5  and  C_6
REMARK    6  A    between atoms: C_5  and  C_13
REMARK    7  A    between atoms: C_5  and  O_28
REMARK    8  A    between atoms: C_13  and  C_15
REMARK    9  A    between atoms: C_13  and  C_22
REMARK   10  A    between atoms: C_15  and  N_16
REMARK   11  A    between atoms: N_16  and  C_17
REMARK   12  A    between atoms: C_17  and  C_18
REMARK   13  A    between atoms: C_18  and  C_19
REMARK   14  A    between atoms: C_19  and  C_20
REMARK   15  A    between atoms: C_20  and  O_21
REMARK                            x       y       z     vdW  Elec       q    Type
REMARK                         _______ _______ _______ _____ _____    ______ ____
ROOT
ATOM      1  C   UNL     1       0.377  -1.628  -3.874  0.00  0.00    +0.038 C 
ENDROOT
BRANCH   1   2
ATOM      2  C   UNL     1      -0.958  -2.267  -3.589  0.00  0.00    -0.043 A 
ATOM      3  C   UNL     1      -1.487  -2.223  -2.313  0.00  0.00    +0.004 A 
ATOM      4  C   UNL     1      -2.711  -2.809  -2.051  0.00  0.00    +0.000 A 
ATOM      5  C   UNL     1      -3.408  -3.438  -3.067  0.00  0.00    +0.000 A 
ATOM      6  C   UNL     1      -2.879  -3.480  -4.344  0.00  0.00    +0.000 A 
ATOM      7  C   UNL     1      -1.657  -2.891  -4.606  0.00  0.00    +0.004 A 
ENDBRANCH   1   2
BRANCH   1   8
ATOM      8  C   UNL     1       1.419  -2.166  -2.892  0.00  0.00    +0.096 C 
BRANCH   8   9
ATOM      9  C   UNL     1       2.700  -1.386  -3.041  0.00  0.00    -0.016 A 
ATOM     10  C   UNL     1       3.190  -1.095  -4.300  0.00  0.00    +0.007 A 
ATOM     11  C   UNL     1       4.364  -0.379  -4.437  0.00  0.00    +0.015 A 
ATOM     12  C   UNL     1       5.049   0.047  -3.314  0.00  0.00    +0.018 A 
ATOM     13  C   UNL     1       4.558  -0.243  -2.054  0.00  0.00    +0.015 A 
ATOM     14  C   UNL     1       3.381  -0.955  -1.917  0.00  0.00    +0.007 A 
ATOM     15 BR   UNL     1       6.656   1.027  -3.501  0.00  0.00    -0.050 Br
ENDBRANCH   8   9
BRANCH   8  16
ATOM     16  O   UNL     1       0.931  -2.029  -1.556  0.00  0.00    -0.383 OA
ATOM     17  H   UNL     1       0.740  -1.117  -1.298  0.00  0.00    +0.211 HD
ENDBRANCH   8  16
BRANCH   8  18
ATOM     18  C   UNL     1       1.685  -3.643  -3.188  0.00  0.00    +0.040 C 
BRANCH  18  19
ATOM     19  C   UNL     1       0.435  -4.462  -2.861  0.00  0.00    +0.003 C 
BRANCH  19  21
ATOM     20  C   UNL     1      -0.503  -6.771  -2.684  0.00  0.00    +0.004 C 
ATOM     21  C   UNL     1       0.748  -5.952  -3.011  0.00  0.00    -0.003 C 
ENDBRANCH  19  21
ENDBRANCH  18  19
ENDBRANCH   8  18
ENDBRANCH   1   8
BRANCH   1  22
ATOM     22  C   UNL     1       0.261  -0.111  -3.714  0.00  0.00    -0.071 C 
BRANCH  22  23
ATOM     23  N   UNL     1      -0.617   0.426  -4.763  0.00  0.00    +0.380 N 
ATOM     24  H   UNL     1      -0.228   0.212  -5.669  0.00  0.00    -0.086 HD
ATOM     25  H   UNL     1      -1.532   0.009  -4.682  0.00  0.00    -0.086 HD
BRANCH  23  26
ATOM     26  C   UNL     1      -0.728   1.883  -4.609  0.00  0.00    -0.083 C 
BRANCH  26  27
ATOM     27  C   UNL     1      -1.642   2.442  -5.701  0.00  0.00    -0.017 C 
BRANCH  27  28
ATOM     28  C   UNL     1      -1.758   3.960  -5.541  0.00  0.00    +0.026 C 
BRANCH  28  29
ATOM     29  C   UNL     1      -2.672   4.519  -6.633  0.00  0.00    +0.156 C 
BRANCH  29  30
ATOM     30  O   UNL     1      -2.780   5.936  -6.484  0.00  0.00    -0.395 OA
ATOM     31  H   UNL     1      -3.346   6.359  -7.144  0.00  0.00    +0.209 HD
ENDBRANCH  29  30
ENDBRANCH  28  29
ENDBRANCH  27  28
ENDBRANCH  26  27
ENDBRANCH  23  26
ENDBRANCH  22  23
ENDBRANCH   1  22
TORSDOF 14
