REMARK  Name = ZINC41158196
REMARK  4 active torsions:
REMARK  status: ('A' for Active; 'I' for Inactive)
REMARK    1  A    between atoms: C_1  and  C_2
REMARK    2  A    between atoms: C_7  and  C_14
REMARK    3  A    between atoms: C_14  and  N_15
REMARK    4  A    between atoms: C_16  and  C_18
REMARK                            x       y       z     vdW  Elec       q    Type
REMARK                         _______ _______ _______ _____ _____    ______ ____
ROOT
ATOM      1  C   UNL     1       0.096  -6.383   1.200  0.00  0.00    +0.145 C 
ENDROOT
BRANCH   1   8
ATOM      2  C   UNL     1      -0.018   1.503   0.010  0.00  0.00    +0.044 C 
ATOM      3  C   UNL     1       0.002  -0.004   0.002  0.00  0.00    -0.048 A 
ATOM      4  C   UNL     1       0.006  -0.684  -1.208  0.00  0.00    +0.004 A 
ATOM      5  C   UNL     1       0.024  -2.050  -1.238  0.00  0.00    +0.010 A 
ATOM      6  C   UNL     1       0.040  -2.769  -0.039  0.00  0.00    -0.001 A 
ATOM      7  C   UNL     1       0.060  -4.233  -0.034  0.00  0.00    +0.020 A 
ATOM      8  C   UNL     1       0.075  -4.877   1.159  0.00  0.00    +0.034 A 
ATOM      9  C   UNL     1       0.070  -4.142   2.364  0.00  0.00    +0.254 A 
ATOM     10  O   UNL     1       0.084  -4.740   3.426  0.00  0.00    -0.268 OA
ATOM     11  N   UNL     1       0.052  -2.797   2.370  0.00  0.00    -0.322 N 
ATOM     12  H   UNL     1       0.050  -2.323   3.216  0.00  0.00    +0.169 HD
ATOM     13  C   UNL     1       0.036  -2.083   1.190  0.00  0.00    +0.049 A 
ATOM     14  C   UNL     1       0.023  -0.692   1.196  0.00  0.00    +0.029 A 
ENDBRANCH   1   8
BRANCH   1  15
ATOM     15  N   UNL     1       1.479  -6.850   1.326  0.00  0.00    -0.311 N 
ATOM     16  C   UNL     1       1.742  -8.170   1.382  0.00  0.00    +0.219 C 
ATOM     17  O   UNL     1       0.835  -8.973   1.327  0.00  0.00    -0.275 OA
ATOM     18  H   UNL     1       2.205  -6.208   1.370  0.00  0.00    +0.149 HD
BRANCH  16  19
ATOM     19  C   UNL     1       3.165  -8.650   1.512  0.00  0.00    +0.048 C 
ATOM     20  C   UNL     1       3.980  -8.160   0.313  0.00  0.00    +0.019 C 
ATOM     21  C   UNL     1       5.424  -8.647   0.445  0.00  0.00    -0.009 C 
ATOM     22  C   UNL     1       5.445 -10.176   0.486  0.00  0.00    +0.007 C 
ATOM     23  C   UNL     1       4.631 -10.666   1.685  0.00  0.00    -0.009 C 
ATOM     24  C   UNL     1       3.186 -10.179   1.552  0.00  0.00    +0.019 C 
ATOM     25  C   UNL     1       5.239 -10.113   2.975  0.00  0.00    +0.007 C 
ATOM     26  C   UNL     1       5.218  -8.583   2.934  0.00  0.00    -0.009 C 
ATOM     27  C   UNL     1       6.033  -8.094   1.735  0.00  0.00    +0.007 C 
ATOM     28  C   UNL     1       3.774  -8.097   2.802  0.00  0.00    +0.019 C 
ENDBRANCH  16  19
ENDBRANCH   1  15
TORSDOF 3
