REMARK  Name = ZINC66600295
REMARK  5 active torsions:
REMARK  status: ('A' for Active; 'I' for Inactive)
REMARK    1  A    between atoms: C_1  and  C_2
REMARK    2  A    between atoms: C_2  and  C_23
REMARK    3  A    between atoms: N_13  and  C_14
REMARK    4  A    between atoms: C_14  and  C_15
REMARK    5  A    between atoms: C_15  and  C_20
REMARK                            x       y       z     vdW  Elec       q    Type
REMARK                         _______ _______ _______ _____ _____    ______ ____
ROOT
ATOM      1  C   UNL     1      -0.019   1.523   0.022  0.00  0.00    +0.015 C 
ATOM      2  C   UNL     1       0.001  -0.007   0.008  0.00  0.00    +0.012 C 
ATOM      3  C   UNL     1       0.735  -0.500  -1.244  0.00  0.00    +0.172 C 
ATOM      4  O   UNL     1       0.862  -1.924  -1.178  0.00  0.00    -0.348 OA
ATOM      5  C   UNL     1       1.553  -2.388  -0.016  0.00  0.00    +0.173 C 
ATOM      6  C   UNL     1       1.603  -3.917  -0.029  0.00  0.00    +0.084 C 
ATOM      7  C   UNL     1       2.312  -4.391  -1.301  0.00  0.00    +0.114 C 
ATOM      8  N   UNL     1       3.629  -3.743  -1.377  0.00  0.00    -0.285 N 
ATOM      9  C   UNL     1       3.702  -2.279  -1.285  0.00  0.00    +0.114 C 
ATOM     10  C   UNL     1       2.977  -1.828  -0.013  0.00  0.00    +0.084 C 
ATOM     11  C   UNL     1       4.748  -4.479  -1.529  0.00  0.00    +0.302 C 
ATOM     12  O   UNL     1       4.686  -5.693  -1.508  0.00  0.00    -0.253 OA
ATOM     13  N   UNL     1       5.937  -3.868  -1.703  0.00  0.00    -0.299 N 
ATOM     14  O   UNL     1       0.866  -1.945   1.157  0.00  0.00    -0.348 OA
ATOM     15  C   UNL     1       0.739  -0.522   1.249  0.00  0.00    +0.172 C 
ATOM     16  C   UNL     1      -1.434  -0.539   0.008  0.00  0.00    +0.015 C 
ATOM     17  H   UNL     1       5.999  -2.902  -1.647  0.00  0.00    +0.150 HD
ENDROOT
BRANCH  13  18
ATOM     18  C   UNL     1       7.136  -4.665  -1.976  0.00  0.00    +0.112 C 
BRANCH  18  19
ATOM     19  C   UNL     1       8.342  -3.735  -2.131  0.00  0.00    -0.016 C 
ATOM     20  C   UNL     1       8.137  -2.802  -3.343  0.00  0.00    +0.008 C 
ATOM     21  C   UNL     1       9.550  -2.672  -3.964  0.00  0.00    +0.001 C 
ATOM     22  C   UNL     1      10.131  -4.098  -3.796  0.00  0.00    +0.001 C 
ATOM     23  C   UNL     1       9.609  -4.558  -2.419  0.00  0.00    +0.008 C 
ATOM     24  C   UNL     1       8.532  -2.907  -0.858  0.00  0.00    +0.013 C 
ENDBRANCH  18  19
ENDBRANCH  13  18
TORSDOF 2
