REMARK  Name = ZINC20150130
REMARK  19 active torsions:
REMARK  status: ('A' for Active; 'I' for Inactive)
REMARK    1  A    between atoms: C_1  and  C_2
REMARK    2  A    between atoms: C_2  and  N_3
REMARK    3  A    between atoms: N_3  and  C_4
REMARK    4  A    between atoms: N_3  and  C_6
REMARK    5  A    between atoms: C_4  and  C_5
REMARK    6  A    between atoms: C_6  and  C_7
REMARK    7  A    between atoms: C_7  and  C_8
REMARK    8  A    between atoms: C_8  and  N_9
REMARK    9  A    between atoms: C_10  and  C_31
REMARK   10  A    between atoms: C_12  and  C_17
REMARK   11  A    between atoms: C_17  and  C_19
REMARK   12  A    between atoms: C_20  and  C_30
REMARK   13  A    between atoms: C_21  and  C_26
REMARK   14  A    between atoms: C_24  and  C_25
REMARK   15  A    between atoms: C_26  and  O_28
REMARK   16  A    between atoms: O_28  and  C_29
REMARK   17  A    between atoms: C_34  and  C_37
REMARK   18  A    between atoms: C_37  and  C_38
REMARK   19  A    between atoms: C_37  and  C_39
REMARK                            x       y       z     vdW  Elec       q    Type
REMARK                         _______ _______ _______ _____ _____    ______ ____
ROOT
ATOM      1  N   UNL     1      -3.664  -4.771  -1.798  0.00  0.00    -0.284 N 
ATOM      2  C   UNL     1      -4.253  -4.870  -0.457  0.00  0.00    +0.145 C 
ATOM      3  C   UNL     1      -5.589  -5.552  -0.634  0.00  0.00    +0.076 C 
ATOM      4  C   UNL     1      -5.726  -5.807  -1.955  0.00  0.00    +0.249 C 
ATOM      5  C   UNL     1      -4.532  -5.314  -2.671  0.00  0.00    +0.288 C 
ATOM      6  O   UNL     1      -4.357  -5.391  -3.871  0.00  0.00    -0.266 OA
ATOM      7  O   UNL     1      -6.791  -6.412  -2.530  0.00  0.00    -0.282 OA
ENDROOT
BRANCH   2   8
ATOM      8  C   UNL     1      -3.364  -5.693   0.439  0.00  0.00    -0.022 A 
ATOM      9  C   UNL     1      -2.725  -6.813  -0.060  0.00  0.00    +0.006 A 
ATOM     10  C   UNL     1      -1.910  -7.568   0.762  0.00  0.00    +0.004 A 
ATOM     11  C   UNL     1      -1.732  -7.203   2.083  0.00  0.00    -0.045 A 
ATOM     12  C   UNL     1      -2.370  -6.082   2.582  0.00  0.00    +0.004 A 
ATOM     13  C   UNL     1      -3.182  -5.325   1.759  0.00  0.00    +0.006 A 
BRANCH  11  14
ATOM     14  C   UNL     1      -0.844  -8.026   2.980  0.00  0.00    +0.013 C 
ATOM     15  C   UNL     1       0.298  -7.155   3.506  0.00  0.00    +0.012 C 
ATOM     16  C   UNL     1      -1.663  -8.560   4.157  0.00  0.00    +0.012 C 
ENDBRANCH  11  14
ENDBRANCH   2   8
BRANCH   3  17
ATOM     17  C   UNL     1      -6.553  -5.876   0.424  0.00  0.00    +0.197 C 
ATOM     18  O   UNL     1      -6.369  -6.844   1.139  0.00  0.00    -0.287 OA
BRANCH  17  19
ATOM     19  C   UNL     1      -7.743  -5.029   0.622  0.00  0.00    +0.046 A 
ATOM     20  C   UNL     1      -8.813  -5.279   1.510  0.00  0.00    -0.008 A 
ATOM     21  C   UNL     1      -9.695  -4.247   1.372  0.00  0.00    +0.128 A 
ATOM     22  N   UNL     1      -9.197  -3.374   0.428  0.00  0.00    -0.352 N 
ATOM     23  H   UNL     1      -9.626  -2.554   0.139  0.00  0.00    +0.166 HD
ATOM     24  C   UNL     1      -8.020  -3.836  -0.023  0.00  0.00    +0.025 A 
ATOM     25  C   UNL     1      -7.150  -3.171  -1.059  0.00  0.00    +0.064 C 
ATOM     26  C   UNL     1      -8.955  -6.461   2.433  0.00  0.00    +0.047 C 
BRANCH  21  27
ATOM     27  C   UNL     1     -10.957  -4.092   2.103  0.00  0.00    +0.356 C 
ATOM     28  O   UNL     1     -11.295  -4.931   2.916  0.00  0.00    -0.243 OA
BRANCH  27  29
ATOM     29  O   UNL     1     -11.742  -3.020   1.874  0.00  0.00    -0.463 OA
ATOM     30  C   UNL     1     -12.957  -2.934   2.621  0.00  0.00    +0.280 C 
ENDBRANCH  27  29
ENDBRANCH  21  27
ENDBRANCH  17  19
ENDBRANCH   3  17
BRANCH   1  31
ATOM     31  C   UNL     1      -2.365  -4.179  -2.128  0.00  0.00    +0.107 C 
BRANCH  31  32
ATOM     32  C   UNL     1      -2.543  -2.687  -2.418  0.00  0.00    +0.000 C 
BRANCH  32  33
ATOM     33  C   UNL     1      -1.187  -2.069  -2.762  0.00  0.00    -0.077 C 
BRANCH  33  34
ATOM     34  N   UNL     1      -1.374  -0.667  -3.158  0.00  0.00    +0.379 N 
ATOM     35  H   UNL     1      -2.059  -0.615  -3.897  0.00  0.00    -0.082 HD
BRANCH  34  37
ATOM     36  C   UNL     1      -2.155   1.541  -2.443  0.00  0.00    -0.017 C 
ATOM     37  C   UNL     1      -1.841   0.110  -2.002  0.00  0.00    -0.082 C 
ENDBRANCH  34  37
BRANCH  34  38
ATOM     38  C   UNL     1      -0.098  -0.118  -3.635  0.00  0.00    -0.082 C 
ATOM     39  C   UNL     1       0.320  -0.837  -4.919  0.00  0.00    -0.017 C 
ENDBRANCH  34  38
ENDBRANCH  33  34
ENDBRANCH  32  33
ENDBRANCH  31  32
ENDBRANCH   1  31
TORSDOF 12
