REMARK  Name = ZINC15473428
REMARK  11 active torsions:
REMARK  status: ('A' for Active; 'I' for Inactive)
REMARK    1  A    between atoms: C_1  and  C_2
REMARK    2  A    between atoms: C_6  and  C_35
REMARK    3  A    between atoms: C_7  and  N_8
REMARK    4  A    between atoms: C_9  and  C_11
REMARK    5  A    between atoms: C_11  and  N_12
REMARK    6  A    between atoms: N_12  and  C_13
REMARK    7  A    between atoms: C_14  and  C_16
REMARK    8  A    between atoms: C_16  and  S_17
REMARK    9  A    between atoms: S_17  and  C_18
REMARK   10  A    between atoms: C_21  and  C_29
REMARK   11  A    between atoms: N_22  and  C_23
REMARK                            x       y       z     vdW  Elec       q    Type
REMARK                         _______ _______ _______ _____ _____    ______ ____
ROOT
ATOM      1  C   UNL     1      -4.461  -3.716  -0.327  0.00  0.00    +0.173 C 
ENDROOT
BRANCH   1   4
ATOM      2  N   UNL     1      -2.245  -2.823   0.314  0.00  0.00    -0.295 N 
ATOM      3  C   UNL     1      -2.577  -3.131   1.707  0.00  0.00    +0.132 C 
ATOM      4  C   UNL     1      -3.130  -3.095  -0.665  0.00  0.00    +0.226 C 
ATOM      5  O   UNL     1      -2.856  -2.840  -1.819  0.00  0.00    -0.275 OA
BRANCH   2   6
ATOM      6  C   UNL     1      -0.952  -2.219  -0.015  0.00  0.00    +0.203 C 
BRANCH   6   8
ATOM      7  N   UNL     1      -0.002   0.053  -0.246  0.00  0.00    -0.284 N 
ATOM      8  C   UNL     1      -1.074  -0.718   0.025  0.00  0.00    +0.235 C 
ATOM      9  O   UNL     1      -2.137  -0.203   0.300  0.00  0.00    -0.274 OA
ATOM     10  H   UNL     1       0.829  -0.356  -0.536  0.00  0.00    +0.155 HD
BRANCH   7  17
ATOM     11  C   UNL     1      -2.021   1.426  -1.707  0.00  0.00    +0.045 C 
ATOM     12  C   UNL     1      -1.058   2.152  -0.804  0.00  0.00    -0.029 A 
ATOM     13  C   UNL     1      -1.143   3.523  -0.662  0.00  0.00    +0.005 A 
ATOM     14  C   UNL     1      -0.255   4.191   0.161  0.00  0.00    +0.001 A 
ATOM     15  C   UNL     1       0.717   3.489   0.850  0.00  0.00    +0.005 A 
ATOM     16  C   UNL     1       0.803   2.116   0.717  0.00  0.00    -0.029 A 
ATOM     17  C   UNL     1      -0.087   1.443  -0.110  0.00  0.00    +0.039 A 
ATOM     18  C   UNL     1       1.862   1.351   1.468  0.00  0.00    +0.045 C 
ENDBRANCH   7  17
ENDBRANCH   6   8
ENDBRANCH   2   6
ENDBRANCH   1   4
BRANCH   1  19
ATOM     19  S   UNL     1      -5.418  -3.956  -1.845  0.00  0.00    -0.076 S 
BRANCH  19  20
ATOM     20  C   UNL     1      -6.880  -4.674  -1.174  0.00  0.00    +0.197 A 
ATOM     21  N   UNL     1      -7.115  -4.925   0.095  0.00  0.00    -0.122 NA
ATOM     22  N   UNL     1      -8.279  -5.450   0.234  0.00  0.00    -0.128 NA
ATOM     23  C   UNL     1      -8.862  -5.568  -0.936  0.00  0.00    +0.169 A 
ATOM     24  N   UNL     1      -7.986  -5.069  -1.876  0.00  0.00    -0.270 N 
BRANCH  24  25
ATOM     25  C   UNL     1      -8.186  -4.986  -3.261  0.00  0.00    +0.051 A 
ATOM     26  C   UNL     1      -9.180  -4.163  -3.772  0.00  0.00    +0.026 A 
ATOM     27  C   UNL     1      -9.371  -4.079  -5.137  0.00  0.00    +0.002 A 
ATOM     28  C   UNL     1      -8.580  -4.822  -5.994  0.00  0.00    +0.000 A 
ATOM     29  C   UNL     1      -7.592  -5.646  -5.488  0.00  0.00    +0.002 A 
ATOM     30  C   UNL     1      -7.393  -5.730  -4.124  0.00  0.00    +0.026 A 
ENDBRANCH  24  25
BRANCH  23  31
ATOM     31  C   UNL     1     -10.206  -6.126  -1.197  0.00  0.00    +0.020 A 
ATOM     32  C   UNL     1     -10.581  -6.474  -2.495  0.00  0.00    +0.011 A 
ATOM     33  C   UNL     1     -11.835  -6.999  -2.731  0.00  0.00    +0.001 A 
ATOM     34  C   UNL     1     -12.725  -7.169  -1.685  0.00  0.00    +0.000 A 
ATOM     35  C   UNL     1     -12.361  -6.821  -0.396  0.00  0.00    +0.001 A 
ATOM     36  C   UNL     1     -11.108  -6.300  -0.146  0.00  0.00    +0.011 A 
ENDBRANCH  23  31
ENDBRANCH  19  20
ENDBRANCH   1  19
TORSDOF 8
