REMARK  Name = ZINC02318314
REMARK  5 active torsions:
REMARK  status: ('A' for Active; 'I' for Inactive)
REMARK    1  A    between atoms: C_9  and  C_11
REMARK    2  A    between atoms: C_11  and  C_13
REMARK    3  A    between atoms: C_11  and  C_15
REMARK    4  A    between atoms: C_15  and  C_17
REMARK    5  A    between atoms: C_22  and  N_26
REMARK                            x       y       z     vdW  Elec       q    Type
REMARK                         _______ _______ _______ _____ _____    ______ ____
ROOT
ATOM      1  C   UNL     1       4.092   0.733   1.383  0.00  0.00    +0.195 C 
ATOM      2  O   UNL     1       3.469   0.102   2.212  0.00  0.00    -0.290 OA
ENDROOT
BRANCH   1   3
ATOM      3  C   UNL     1       5.306   1.366   1.741  0.00  0.00    +0.076 A 
ATOM      4  C   UNL     1       5.938   1.381   2.962  0.00  0.00    +0.066 A 
ATOM      5  C   UNL     1       7.152   2.077   3.106  0.00  0.00    +0.008 A 
ATOM      6  C   UNL     1       7.951   2.212   4.272  0.00  0.00    +0.013 A 
ATOM      7  C   UNL     1       9.106   2.925   4.243  0.00  0.00    +0.033 A 
ATOM      8  C   UNL     1       9.550   3.547   3.082  0.00  0.00    +0.127 A 
ATOM      9  C   UNL     1       8.803   3.441   1.926  0.00  0.00    +0.048 A 
ATOM     10  C   UNL     1       7.628   2.720   1.939  0.00  0.00    +0.024 A 
ATOM     11  S   UNL     1       6.400   2.334   0.716  0.00  0.00    -0.084 S 
ATOM     12 CL   UNL     1       5.242   0.548   4.317  0.00  0.00    -0.082 Cl
BRANCH   8  13
ATOM     13  N   UNL     1      10.814   4.316   3.085  0.00  0.00    +0.056 N 
ATOM     14  O   UNL     1      11.199   4.859   2.065  0.00  0.00    -0.126 OA
ATOM     15  O   UNL     1      11.470   4.406   4.108  0.00  0.00    -0.126 OA
ENDBRANCH   8  13
ENDBRANCH   1   3
BRANCH   1  16
ATOM     16  C   UNL     1       3.571   0.843  -0.027  0.00  0.00    +0.228 C 
BRANCH  16  25
ATOM     17  C   UNL     1      -2.390  -0.028   0.025  0.00  0.00    +0.002 A 
ATOM     18  C   UNL     1      -2.408   1.359   0.033  0.00  0.00    +0.002 A 
ATOM     19  C   UNL     1      -1.243   2.072   0.030  0.00  0.00    +0.030 A 
ATOM     20  C   UNL     1      -0.017   1.401   0.010  0.00  0.00    +0.089 A 
ATOM     21  C   UNL     1       0.002  -0.004   0.002  0.00  0.00    +0.066 A 
ATOM     22  C   UNL     1      -1.193  -0.711   0.010  0.00  0.00    +0.028 A 
ATOM     23  N   UNL     1       1.334  -0.367  -0.013  0.00  0.00    -0.340 N 
ATOM     24  H   UNL     1       1.694  -1.300  -0.021  0.00  0.00    +0.167 HD
ATOM     25  C   UNL     1       2.066   0.780  -0.013  0.00  0.00    +0.133 A 
ATOM     26  N   UNL     1       1.276   1.814  -0.000  0.00  0.00    -0.231 NA
ENDBRANCH  16  25
BRANCH  16  27
ATOM     27  C   UNL     1       4.102  -0.268  -0.834  0.00  0.00    +0.082 C 
ATOM     28  N   UNL     1       4.511  -1.126  -1.456  0.00  0.00    -0.195 NA
ENDBRANCH  16  27
ENDBRANCH   1  16
TORSDOF 5
