REMARK  Name = ZINC57311622
REMARK  14 active torsions:
REMARK  status: ('A' for Active; 'I' for Inactive)
REMARK    1  A    between atoms: C_1  and  C_2
REMARK    2  A    between atoms: C_2  and  C_3
REMARK    3  A    between atoms: C_3  and  C_4
REMARK    4  A    between atoms: C_4  and  C_5
REMARK    5  A    between atoms: C_18  and  O_37
REMARK    6  A    between atoms: N_21  and  C_36
REMARK    7  A    between atoms: C_24  and  C_31
REMARK    8  A    between atoms: C_24  and  O_35
REMARK    9  A    between atoms: C_25  and  O_27
REMARK   10  A    between atoms: O_27  and  C_28
REMARK   11  A    between atoms: C_28  and  C_30
REMARK   12  A    between atoms: C_31  and  O_33
REMARK   13  A    between atoms: O_33  and  C_34
REMARK   14  A    between atoms: O_37  and  C_38
REMARK                            x       y       z     vdW  Elec       q    Type
REMARK                         _______ _______ _______ _____ _____    ______ ____
ROOT
ATOM      1  C   UNL     1       1.498  -2.579  -2.524  0.00  0.00    +0.046 C 
ATOM      2  C   UNL     1       2.879  -2.101  -2.175  0.00  0.00    -0.018 C 
ATOM      3  C   UNL     1       3.939  -2.805  -2.408  0.00  0.00    -0.015 C 
ATOM      4  C   UNL     1       3.816  -4.160  -3.027  0.00  0.00    +0.111 C 
ATOM      5  N   UNL     1       2.582  -4.840  -2.721  0.00  0.00    -0.294 NA
ATOM      6  C   UNL     1       1.343  -4.065  -2.566  0.00  0.00    +0.083 C 
ATOM      7  C   UNL     1       0.375  -4.580  -3.603  0.00  0.00    +0.037 C 
ATOM      8  C   UNL     1       1.249  -5.285  -4.656  0.00  0.00    +0.030 C 
ATOM      9  C   UNL     1       2.335  -5.907  -3.729  0.00  0.00    +0.086 C 
ATOM     10  C   UNL     1      -0.638  -5.610  -3.178  0.00  0.00    -0.017 A 
ATOM     11  C   UNL     1      -0.666  -6.548  -2.179  0.00  0.00    +0.010 A 
ATOM     12  C   UNL     1      -1.791  -7.363  -2.106  0.00  0.00    +0.046 A 
ATOM     13  C   UNL     1      -2.839  -7.232  -3.002  0.00  0.00    +0.122 A 
ATOM     14  C   UNL     1      -2.823  -6.276  -4.014  0.00  0.00    +0.069 A 
ATOM     15  C   UNL     1      -1.708  -5.456  -4.094  0.00  0.00    +0.037 A 
ATOM     16  N   UNL     1      -1.432  -4.393  -4.981  0.00  0.00    -0.325 N 
ATOM     17  C   UNL     1      -0.595  -3.524  -4.133  0.00  0.00    +0.132 C 
ATOM     18  C   UNL     1       0.074  -2.305  -4.688  0.00  0.00    +0.219 C 
ATOM     19  C   UNL     1       0.892  -1.675  -3.559  0.00  0.00    +0.232 C 
ATOM     20  C   UNL     1      -1.890  -4.226  -6.357  0.00  0.00    +0.129 C 
ENDROOT
BRANCH  18  21
ATOM     21  C   UNL     1       0.916  -2.493  -5.917  0.00  0.00    +0.345 C 
ATOM     22  O   UNL     1       2.104  -2.685  -5.812  0.00  0.00    -0.247 OA
BRANCH  21  23
ATOM     23  O   UNL     1       0.348  -2.449  -7.133  0.00  0.00    -0.466 OA
ATOM     24  C   UNL     1       1.209  -2.636  -8.258  0.00  0.00    +0.280 C 
ENDBRANCH  21  23
ENDBRANCH  18  21
BRANCH  18  25
ATOM     25  O   UNL     1      -0.962  -1.341  -5.043  0.00  0.00    -0.373 OA
ATOM     26  H   UNL     1      -0.620  -0.515  -5.413  0.00  0.00    +0.211 HD
ENDBRANCH  18  25
BRANCH  13  27
ATOM     27  O   UNL     1      -3.912  -8.060  -2.892  0.00  0.00    -0.495 OA
ATOM     28  C   UNL     1      -3.881  -9.026  -1.839  0.00  0.00    +0.277 C 
ENDBRANCH  13  27
BRANCH   1  29
ATOM     29  C   UNL     1       0.721  -2.194  -1.252  0.00  0.00    +0.016 C 
BRANCH  29  30
ATOM     30  C   UNL     1       1.429  -2.774  -0.026  0.00  0.00    +0.001 C 
BRANCH  30  32
ATOM     31  C   UNL     1       1.435  -2.870   2.470  0.00  0.00    +0.004 C 
ATOM     32  C   UNL     1       0.727  -2.290   1.244  0.00  0.00    -0.003 C 
ENDBRANCH  30  32
ENDBRANCH  29  30
ENDBRANCH   1  29
BRANCH  19  33
ATOM     33  O   UNL     1       1.947  -0.908  -4.156  0.00  0.00    -0.457 OA
BRANCH  33  34
ATOM     34  C   UNL     1       1.632   0.317  -4.605  0.00  0.00    +0.304 C 
ATOM     35  O   UNL     1       0.500   0.727  -4.497  0.00  0.00    -0.251 OA
ATOM     36  C   UNL     1       2.688   1.180  -5.245  0.00  0.00    +0.136 C 
ENDBRANCH  33  34
ENDBRANCH  19  33
TORSDOF 9
