REMARK  Name = ZINC27572384
REMARK  8 active torsions:
REMARK  status: ('A' for Active; 'I' for Inactive)
REMARK    1  A    between atoms: C_1  and  C_2
REMARK    2  A    between atoms: C_5  and  N_9
REMARK    3  A    between atoms: C_6  and  C_8
REMARK    4  A    between atoms: N_9  and  C_10
REMARK    5  A    between atoms: C_15  and  O_17
REMARK    6  A    between atoms: O_17  and  C_18
REMARK    7  A    between atoms: C_18  and  C_20
REMARK    8  A    between atoms: C_25  and  C_26
REMARK                            x       y       z     vdW  Elec       q    Type
REMARK                         _______ _______ _______ _____ _____    ______ ____
ROOT
ATOM      1  C   UNL     1      -0.058  -4.761  -1.677  0.00  0.00    +0.115 C 
ATOM      2  C   UNL     1       0.104  -4.341  -2.952  0.00  0.00    +0.149 C 
ATOM      3  C   UNL     1       0.308  -5.451  -3.793  0.00  0.00    +0.355 C 
ATOM      4  O   UNL     1       0.484  -5.382  -4.995  0.00  0.00    -0.244 OA
ATOM      5  O   UNL     1       0.284  -6.599  -3.090  0.00  0.00    -0.415 OA
ATOM      6  C   UNL     1       0.061  -6.269  -1.714  0.00  0.00    +0.418 C 
ATOM      7 CL   UNL     1       0.064  -2.686  -3.472  0.00  0.00    -0.074 Cl
ENDROOT
BRANCH   1   8
ATOM      8  N   UNL     1      -0.278  -3.980  -0.576  0.00  0.00    -0.310 N 
ATOM      9  H   UNL     1      -1.065  -3.414  -0.532  0.00  0.00    +0.152 HD
BRANCH   8  14
ATOM     10  C   UNL     1       3.408  -4.051   3.734  0.00  0.00    +0.044 C 
ATOM     11  C   UNL     1       2.428  -4.032   2.589  0.00  0.00    -0.050 A 
ATOM     12  C   UNL     1       2.723  -4.707   1.418  0.00  0.00    +0.005 A 
ATOM     13  C   UNL     1       1.828  -4.692   0.367  0.00  0.00    +0.024 A 
ATOM     14  C   UNL     1       0.630  -3.998   0.486  0.00  0.00    +0.034 A 
ATOM     15  C   UNL     1       0.337  -3.321   1.664  0.00  0.00    -0.029 A 
ATOM     16  C   UNL     1       1.235  -3.345   2.713  0.00  0.00    +0.008 A 
ATOM     17  C   UNL     1      -0.961  -2.567   1.798  0.00  0.00    +0.045 C 
ENDBRANCH   8  14
ENDBRANCH   1   8
BRANCH   6  18
ATOM     18  O   UNL     1      -1.149  -6.872  -1.253  0.00  0.00    -0.415 OA
BRANCH  18  19
ATOM     19  C   UNL     1      -1.125  -8.201  -1.032  0.00  0.00    +0.343 C 
ATOM     20  O   UNL     1      -0.104  -8.830  -1.225  0.00  0.00    -0.245 OA
BRANCH  19  21
ATOM     21  C   UNL     1      -2.340  -8.893  -0.555  0.00  0.00    +0.062 A 
ATOM     22  C   UNL     1      -3.472  -8.157  -0.199  0.00  0.00    +0.015 A 
ATOM     23  C   UNL     1      -4.603  -8.809   0.246  0.00  0.00    +0.001 A 
ATOM     24  C   UNL     1      -4.618 -10.189   0.339  0.00  0.00    +0.000 A 
ATOM     25  C   UNL     1      -3.500 -10.925  -0.011  0.00  0.00    +0.004 A 
ATOM     26  C   UNL     1      -2.364 -10.286  -0.464  0.00  0.00    -0.036 A 
ATOM     27  C   UNL     1      -1.149 -11.088  -0.851  0.00  0.00    +0.044 C 
ENDBRANCH  19  21
ENDBRANCH  18  19
ENDBRANCH   6  18
TORSDOF 5
