REMARK  Name = ZINC40011887
REMARK  10 active torsions:
REMARK  status: ('A' for Active; 'I' for Inactive)
REMARK    1  A    between atoms: C_1  and  C_2
REMARK    2  A    between atoms: C_5  and  N_9
REMARK    3  A    between atoms: C_7  and  C_8
REMARK    4  A    between atoms: C_13  and  C_15
REMARK    5  A    between atoms: C_15  and  S_16
REMARK    6  A    between atoms: S_16  and  C_17
REMARK    7  A    between atoms: C_19  and  C_30
REMARK    8  A    between atoms: C_20  and  C_29
REMARK    9  A    between atoms: N_21  and  C_22
REMARK   10  A    between atoms: C_22  and  C_23
REMARK                            x       y       z     vdW  Elec       q    Type
REMARK                         _______ _______ _______ _____ _____    ______ ____
ROOT
ATOM      1  N   UNL     1       0.059  -4.170  -0.021  0.00  0.00    -0.269 N 
ATOM      2  C   UNL     1      -0.040  -4.839  -1.187  0.00  0.00    +0.310 C 
ATOM      3  O   UNL     1      -0.054  -4.229  -2.238  0.00  0.00    -0.252 OA
ATOM      4  N   UNL     1      -0.124  -6.184  -1.187  0.00  0.00    -0.239 N 
ATOM      5  C   UNL     1      -0.223  -6.853  -2.353  0.00  0.00    +0.231 C 
ATOM      6  O   UNL     1      -0.237  -6.244  -3.401  0.00  0.00    -0.274 OA
ATOM      7  H   UNL     1       0.147  -4.658   0.812  0.00  0.00    +0.156 HD
ATOM      8  H   UNL     1      -0.113  -6.671  -0.348  0.00  0.00    +0.159 HD
ENDROOT
BRANCH   1  13
ATOM      9  C   UNL     1      -0.045   1.502   0.014  0.00  0.00    +0.044 C 
ATOM     10  C   UNL     1      -0.017  -0.004   0.005  0.00  0.00    -0.047 A 
ATOM     11  C   UNL     1      -0.754  -0.702  -0.935  0.00  0.00    +0.005 A 
ATOM     12  C   UNL     1      -0.731  -2.083  -0.946  0.00  0.00    +0.023 A 
ATOM     13  C   UNL     1       0.033  -2.771  -0.013  0.00  0.00    +0.035 A 
ATOM     14  C   UNL     1       0.772  -2.067   0.929  0.00  0.00    +0.027 A 
ATOM     15  C   UNL     1       0.749  -0.686   0.932  0.00  0.00    -0.046 A 
ATOM     16  C   UNL     1       1.555   0.078   1.950  0.00  0.00    +0.044 C 
ENDBRANCH   1  13
BRANCH   5  17
ATOM     17  C   UNL     1      -0.317  -8.357  -2.353  0.00  0.00    +0.173 C 
BRANCH  17  18
ATOM     18  S   UNL     1      -0.438  -8.955  -4.061  0.00  0.00    -0.080 S 
BRANCH  18  19
ATOM     19  C   UNL     1      -0.539 -10.706  -3.894  0.00  0.00    +0.148 A 
ATOM     20  N   UNL     1      -0.530 -11.371  -2.762  0.00  0.00    -0.338 N 
ATOM     21  C   UNL     1      -0.623 -12.686  -3.019  0.00  0.00    +0.034 A 
ATOM     22  C   UNL     1      -0.692 -12.853  -4.351  0.00  0.00    +0.037 A 
ATOM     23  N   UNL     1      -0.644 -11.599  -4.916  0.00  0.00    -0.322 N 
ATOM     24  C   UNL     1      -0.805 -14.164  -5.085  0.00  0.00    +0.065 C 
ATOM     25  C   UNL     1      -0.645 -13.787  -1.990  0.00  0.00    +0.065 C 
ATOM     26  H   UNL     1      -0.466 -10.975  -1.879  0.00  0.00    +0.168 HD
BRANCH  23  27
ATOM     27  C   UNL     1      -0.695 -11.285  -6.346  0.00  0.00    +0.155 C 
BRANCH  27  28
ATOM     28  C   UNL     1       0.726 -11.266  -6.914  0.00  0.00    +0.138 C 
ATOM     29  C   UNL     1       0.690 -11.025  -8.444  0.00  0.00    +0.035 C 
ATOM     30  C   UNL     1       2.098 -10.413  -8.680  0.00  0.00    +0.031 C 
ATOM     31  C   UNL     1       2.328  -9.612  -7.380  0.00  0.00    +0.160 C 
ATOM     32  O   UNL     1       1.464 -10.158  -6.375  0.00  0.00    -0.375 OA
ENDBRANCH  27  28
ENDBRANCH  23  27
ENDBRANCH  18  19
ENDBRANCH  17  18
ENDBRANCH   5  17
TORSDOF 6
