REMARK  Name = ZINC39554905
REMARK  3 active torsions:
REMARK  status: ('A' for Active; 'I' for Inactive)
REMARK    1  A    between atoms: C_6  and  C_7
REMARK    2  A    between atoms: C_12  and  C_15
REMARK    3  A    between atoms: C_17  and  C_21
REMARK                            x       y       z     vdW  Elec       q    Type
REMARK                         _______ _______ _______ _____ _____    ______ ____
ROOT
ATOM      1  C   UNL     1      -1.265  -0.757   0.012  0.00  0.00    +0.250 C 
ATOM      2  O   UNL     1      -1.250  -1.973   0.005  0.00  0.00    -0.270 OA
ATOM      3  N   UNL     1      -2.441  -0.098   0.029  0.00  0.00    -0.261 N 
ATOM      4  C   UNL     1      -3.635  -0.807   0.038  0.00  0.00    +0.165 A 
ATOM      5  N   UNL     1      -4.861  -0.336   0.049  0.00  0.00    -0.225 NA
ATOM      6  C   UNL     1      -5.908  -1.151   0.057  0.00  0.00    +0.082 A 
ATOM      7  C   UNL     1      -5.641  -2.491   0.053  0.00  0.00    +0.077 A 
ATOM      8  S   UNL     1      -3.856  -2.475   0.032  0.00  0.00    -0.060 S 
ATOM      9  H   UNL     1      -2.453   0.872   0.034  0.00  0.00    +0.157 HD
ENDROOT
BRANCH   1  15
ATOM     10  C   UNL     1      -0.017   1.394   0.010  0.00  0.00    +0.014 A 
ATOM     11  C   UNL     1       1.169   2.094   0.002  0.00  0.00    +0.017 A 
ATOM     12  C   UNL     1       2.379   1.414  -0.014  0.00  0.00    +0.030 A 
ATOM     13  C   UNL     1       2.413   0.014  -0.025  0.00  0.00    +0.048 A 
ATOM     14  C   UNL     1       1.220  -0.689  -0.015  0.00  0.00    +0.037 A 
ATOM     15  C   UNL     1       0.002  -0.004   0.002  0.00  0.00    +0.039 A 
ATOM     16  N   UNL     1       3.618  -0.684  -0.052  0.00  0.00    -0.284 N 
ATOM     17  C   UNL     1       4.805  -0.221   0.328  0.00  0.00    +0.227 C 
ATOM     18  O   UNL     1       5.761  -0.963   0.251  0.00  0.00    -0.275 OA
ATOM     19  C   UNL     1       5.028   1.173   0.847  0.00  0.00    +0.170 C 
ATOM     20  S   UNL     1       3.901   2.308  -0.019  0.00  0.00    -0.114 S 
ATOM     21  H   UNL     1       3.588  -1.597  -0.380  0.00  0.00    +0.155 HD
ENDBRANCH   1  15
BRANCH   6  22
ATOM     22  C   UNL     1      -7.300  -0.633   0.070  0.00  0.00    +0.019 A 
ATOM     23  C   UNL     1      -7.687   0.717  -0.030  0.00  0.00    +0.042 A 
ATOM     24  C   UNL     1      -9.053   0.751   0.024  0.00  0.00    +0.102 A 
ATOM     25  N   UNL     1      -9.505  -0.543   0.153  0.00  0.00    -0.356 N 
ATOM     26  H   UNL     1     -10.435  -0.812   0.214  0.00  0.00    +0.165 HD
ATOM     27  C   UNL     1      -8.439  -1.379   0.175  0.00  0.00    +0.093 A 
BRANCH  24  28
ATOM     28  C   UNL     1      -9.889   1.954  -0.045  0.00  0.00    +0.258 C 
ATOM     29  O   UNL     1      -9.371   3.050  -0.159  0.00  0.00    -0.269 OA
ATOM     30  N   UNL     1     -11.231   1.847   0.020  0.00  0.00    -0.324 N 
ATOM     31  H   UNL     1     -11.644   0.974   0.111  0.00  0.00    +0.145 HD
ATOM     32  H   UNL     1     -11.784   2.643  -0.025  0.00  0.00    +0.145 HD
ENDBRANCH  24  28
ENDBRANCH   6  22
TORSDOF 3
