REMARK  Name = ZINC39693547
REMARK  12 active torsions:
REMARK  status: ('A' for Active; 'I' for Inactive)
REMARK    1  A    between atoms: C_1  and  C_2
REMARK    2  A    between atoms: C_2  and  C_3
REMARK    3  A    between atoms: C_2  and  C_4
REMARK    4  A    between atoms: C_2  and  O_5
REMARK    5  A    between atoms: O_5  and  C_6
REMARK    6  A    between atoms: N_8  and  C_9
REMARK    7  A    between atoms: C_9  and  C_10
REMARK    8  A    between atoms: C_10  and  N_11
REMARK    9  A    between atoms: C_12  and  C_14
REMARK   10  A    between atoms: C_25  and  C_27
REMARK   11  A    between atoms: C_30  and  O_34
REMARK   12  A    between atoms: O_34  and  C_35
REMARK                            x       y       z     vdW  Elec       q    Type
REMARK                         _______ _______ _______ _____ _____    ______ ____
ROOT
ATOM      1  C   UNL     1       8.682   0.105  -5.217  0.00  0.00    +0.100 C 
ATOM      2  C   UNL     1       9.267  -0.583  -3.963  0.00  0.00    +0.121 C 
ATOM      3  N   UNL     1       9.784  -1.882  -4.456  0.00  0.00    -0.296 N 
ATOM      4  C   UNL     1      10.386  -1.564  -5.773  0.00  0.00    +0.115 C 
ATOM      5  C   UNL     1       9.422  -0.538  -6.402  0.00  0.00    -0.004 C 
ATOM      6  C   UNL     1      10.206   0.519  -7.173  0.00  0.00    -0.010 C 
ATOM      7  C   UNL     1      10.885  -0.134  -8.380  0.00  0.00    -0.082 C 
ATOM      8  N   UNL     1       9.868  -0.746  -9.245  0.00  0.00    +0.379 N 
ATOM      9  C   UNL     1       9.182  -1.826  -8.524  0.00  0.00    -0.082 C 
ATOM     10  C   UNL     1       8.431  -1.244  -7.323  0.00  0.00    -0.010 C 
ATOM     11  C   UNL     1       9.721  -3.081  -3.844  0.00  0.00    +0.247 C 
ATOM     12  O   UNL     1       9.081  -3.208  -2.818  0.00  0.00    -0.270 OA
ATOM     13  H   UNL     1       9.195  -0.046  -9.518  0.00  0.00    -0.086 HD
ATOM     14  H   UNL     1      10.312  -1.123 -10.069  0.00  0.00    -0.086 HD
ENDROOT
BRANCH  11  15
ATOM     15  C   UNL     1      10.428  -4.241  -4.421  0.00  0.00    +0.040 A 
ATOM     16  C   UNL     1      11.490  -4.044  -5.307  0.00  0.00    +0.036 A 
ATOM     17  C   UNL     1      12.149  -5.130  -5.843  0.00  0.00    +0.085 A 
ATOM     18  C   UNL     1      11.757  -6.420  -5.503  0.00  0.00    +0.157 A 
ATOM     19  C   UNL     1      10.700  -6.620  -4.621  0.00  0.00    +0.085 A 
ATOM     20  C   UNL     1      10.041  -5.539  -4.077  0.00  0.00    +0.036 A 
ATOM     21 CL   UNL     1      10.215  -8.233  -4.201  0.00  0.00    -0.080 Cl
ATOM     22 CL   UNL     1      13.468  -4.887  -6.945  0.00  0.00    -0.080 Cl
BRANCH  18  23
ATOM     23  O   UNL     1      12.407  -7.487  -6.034  0.00  0.00    -0.492 OA
ATOM     24  C   UNL     1      13.533  -7.987  -5.309  0.00  0.00    +0.277 C 
ENDBRANCH  18  23
ENDBRANCH  11  15
BRANCH   1  26
ATOM     25  N   UNL     1       6.413   0.688  -6.009  0.00  0.00    -0.314 N 
ATOM     26  C   UNL     1       7.202  -0.158  -5.318  0.00  0.00    +0.218 C 
ATOM     27  O   UNL     1       6.721  -1.130  -4.776  0.00  0.00    -0.275 OA
ATOM     28  H   UNL     1       6.798   1.466  -6.442  0.00  0.00    +0.149 HD
BRANCH  25  29
ATOM     29  C   UNL     1       4.973   0.433  -6.106  0.00  0.00    +0.123 C 
BRANCH  29  30
ATOM     30  C   UNL     1       4.315   1.535  -6.939  0.00  0.00    +0.126 C 
BRANCH  30  33
ATOM     31  C   UNL     1       2.087   2.126  -7.728  0.00  0.00    +0.401 C 
ATOM     32  O   UNL     1       2.569   3.100  -8.271  0.00  0.00    -0.226 OA
ATOM     33  N   UNL     1       2.876   1.280  -7.037  0.00  0.00    -0.280 N 
ATOM     34  H   UNL     1       2.491   0.501  -6.604  0.00  0.00    +0.152 HD
BRANCH  31  35
ATOM     35  O   UNL     1       0.764   1.891  -7.818  0.00  0.00    -0.445 OA
BRANCH  35  37
ATOM     36  C   UNL     1       0.496   2.875 -10.009  0.00  0.00    +0.055 C 
ATOM     37  C   UNL     1      -0.012   2.829  -8.566  0.00  0.00    +0.107 C 
ATOM     38  C   UNL     1       0.117   4.216  -7.935  0.00  0.00    +0.055 C 
ATOM     39  C   UNL     1      -1.480   2.399  -8.556  0.00  0.00    +0.055 C 
ENDBRANCH  35  37
ENDBRANCH  31  35
ENDBRANCH  30  33
ENDBRANCH  29  30
ENDBRANCH  25  29
ENDBRANCH   1  26
TORSDOF 8
