REMARK  Name = ZINC14251095
REMARK  4 active torsions:
REMARK  status: ('A' for Active; 'I' for Inactive)
REMARK    1  A    between atoms: C_1  and  C_2
REMARK    2  A    between atoms: C_13  and  C_15
REMARK    3  A    between atoms: C_15  and  C_16
REMARK    4  A    between atoms: C_16  and  N_17
REMARK                            x       y       z     vdW  Elec       q    Type
REMARK                         _______ _______ _______ _____ _____    ______ ____
ROOT
ATOM      1  C   UNL     1      -4.551   3.128  -0.801  0.00  0.00    +0.116 C 
ENDROOT
BRANCH   1  13
ATOM      2  C   UNL     1      -2.887   2.451  -2.274  0.00  0.00    +0.028 C 
ATOM      3  C   UNL     1      -1.894   2.130  -1.155  0.00  0.00    +0.079 C 
ATOM      4  C   UNL     1      -1.102   0.865  -1.511  0.00  0.00    +0.027 C 
ATOM      5  C   UNL     1      -0.069   0.604  -0.415  0.00  0.00    +0.039 C 
ATOM      6  C   UNL     1      -0.725   0.616   0.941  0.00  0.00    -0.026 A 
ATOM      7  C   UNL     1      -0.085  -0.006   2.000  0.00  0.00    +0.005 A 
ATOM      8  C   UNL     1      -0.659  -0.010   3.256  0.00  0.00    +0.000 A 
ATOM      9  C   UNL     1      -1.879   0.609   3.465  0.00  0.00    +0.002 A 
ATOM     10  C   UNL     1      -2.523   1.230   2.414  0.00  0.00    +0.024 A 
ATOM     11  C   UNL     1      -1.948   1.234   1.149  0.00  0.00    +0.040 A 
ATOM     12  N   UNL     1      -2.621   1.867   0.094  0.00  0.00    -0.268 N 
ATOM     13  C   UNL     1      -3.913   2.228   0.225  0.00  0.00    +0.222 C 
ATOM     14  O   UNL     1      -4.561   1.829   1.169  0.00  0.00    -0.275 OA
ENDBRANCH   1  13
BRANCH   1  15
ATOM     15  C   UNL     1      -5.907   3.611  -0.284  0.00  0.00    +0.127 C 
BRANCH  15  16
ATOM     16  N   UNL     1      -6.528   4.486  -1.282  0.00  0.00    -0.224 N 
ATOM     17  C   UNL     1      -6.360   5.825  -1.327  0.00  0.00    +0.247 C 
ATOM     18  O   UNL     1      -5.693   6.508  -0.579  0.00  0.00    -0.273 OA
ATOM     19  C   UNL     1      -7.175   6.289  -2.506  0.00  0.00    +0.113 C 
ATOM     20  C   UNL     1      -8.255   7.287  -2.066  0.00  0.00    +0.035 C 
ATOM     21  C   UNL     1      -7.641   8.672  -2.395  0.00  0.00    +0.003 C 
ATOM     22  C   UNL     1      -6.885   8.408  -3.722  0.00  0.00    +0.003 C 
ATOM     23  C   UNL     1      -6.301   6.988  -3.551  0.00  0.00    +0.035 C 
ATOM     24  N   UNL     1      -7.773   5.064  -3.043  0.00  0.00    -0.285 N 
ATOM     25  C   UNL     1      -7.336   4.058  -2.260  0.00  0.00    +0.309 C 
ATOM     26  O   UNL     1      -7.643   2.893  -2.423  0.00  0.00    -0.252 OA
ATOM     27  H   UNL     1      -8.365   4.992  -3.808  0.00  0.00    +0.151 HD
ENDBRANCH  15  16
ENDBRANCH   1  15
TORSDOF 3
