REMARK  Name = ZINC33250942
REMARK  11 active torsions:
REMARK  status: ('A' for Active; 'I' for Inactive)
REMARK    1  A    between atoms: C_1  and  C_2
REMARK    2  A    between atoms: C_5  and  N_9
REMARK    3  A    between atoms: C_10  and  C_12
REMARK    4  A    between atoms: N_17  and  S_19
REMARK    5  A    between atoms: S_19  and  C_22
REMARK    6  A    between atoms: C_23  and  C_38
REMARK    7  A    between atoms: C_26  and  C_27
REMARK    8  A    between atoms: C_28  and  C_29
REMARK    9  A    between atoms: C_30  and  C_37
REMARK   10  A    between atoms: C_32  and  C_36
REMARK   11  A    between atoms: C_34  and  C_35
REMARK                            x       y       z     vdW  Elec       q    Type
REMARK                         _______ _______ _______ _____ _____    ______ ____
ROOT
ATOM      1  S   UNL     1      -1.382  -1.103   0.003  0.00  0.00    +0.066 S 
ATOM      2  O   UNL     1      -0.904  -2.325   0.547  0.00  0.00    -0.153 OA
ATOM      3  O   UNL     1      -2.479  -0.396   0.565  0.00  0.00    -0.153 OA
ENDROOT
BRANCH   1   8
ATOM      4  C   UNL     1      -0.540  -1.994  -3.597  0.00  0.00    +0.091 C 
ATOM      5  C   UNL     1      -1.611  -1.248  -4.395  0.00  0.00    +0.015 C 
ATOM      6  C   UNL     1      -2.122  -0.058  -3.578  0.00  0.00    +0.018 C 
ATOM      7  C   UNL     1      -2.759  -0.573  -2.279  0.00  0.00    +0.109 C 
ATOM      8  N   UNL     1      -1.776  -1.410  -1.576  0.00  0.00    -0.176 NA
ATOM      9  C   UNL     1      -1.155  -2.527  -2.299  0.00  0.00    +0.122 C 
BRANCH   4  11
ATOM     10  N   UNL     1       0.573  -2.914  -5.605  0.00  0.00    -0.285 N 
ATOM     11  C   UNL     1      -0.015  -3.146  -4.415  0.00  0.00    +0.222 C 
ATOM     12  O   UNL     1      -0.121  -4.281  -4.002  0.00  0.00    -0.275 OA
ATOM     13  H   UNL     1       0.602  -1.894  -6.015  0.00  0.00    +0.155 HD
BRANCH  10  18
ATOM     14  C   UNL     1       2.895  -7.205  -8.503  0.00  0.00    +0.047 C 
ATOM     15  C   UNL     1       2.279  -6.065  -7.734  0.00  0.00    -0.015 A 
ATOM     16  C   UNL     1       1.133  -6.275  -6.988  0.00  0.00    +0.008 A 
ATOM     17  C   UNL     1       0.566  -5.233  -6.282  0.00  0.00    +0.024 A 
ATOM     18  C   UNL     1       1.146  -3.971  -6.320  0.00  0.00    +0.036 A 
ATOM     19  C   UNL     1       2.293  -3.760  -7.074  0.00  0.00    +0.062 A 
ATOM     20  C   UNL     1       2.860  -4.809  -7.775  0.00  0.00    +0.128 A 
ATOM     21  F   UNL     1       3.979  -4.607  -8.505  0.00  0.00    -0.205 F 
ENDBRANCH  10  18
ENDBRANCH   4  11
ENDBRANCH   1   8
BRANCH   1  22
ATOM     22  C   UNL     1      -0.018   0.012  -0.009  0.00  0.00    +0.174 A 
ATOM     23  C   UNL     1       1.356  -0.297  -0.022  0.00  0.00    +0.107 A 
ATOM     24  N   UNL     1       1.995   0.839  -0.026  0.00  0.00    -0.081 NA
ATOM     25  O   UNL     1       1.241   1.784  -0.018  0.00  0.00    -0.353 OA
ATOM     26  C   UNL     1      -0.046   1.386  -0.006  0.00  0.00    +0.187 A 
ATOM     27  C   UNL     1       1.969  -1.674  -0.030  0.00  0.00    +0.071 C 
BRANCH  26  28
ATOM     28  C   UNL     1      -1.234   2.244   0.002  0.00  0.00    +0.051 C 
ATOM     29  C   UNL     1      -1.098   3.583   0.003  0.00  0.00    +0.012 C 
BRANCH  29  30
ATOM     30  C   UNL     1      -2.292   4.445   0.011  0.00  0.00    -0.019 A 
ATOM     31  C   UNL     1      -3.318   4.231  -0.914  0.00  0.00    -0.043 A 
ATOM     32  C   UNL     1      -4.436   5.039  -0.897  0.00  0.00    +0.007 A 
ATOM     33  C   UNL     1      -4.538   6.066   0.025  0.00  0.00    -0.050 A 
ATOM     34  C   UNL     1      -3.523   6.287   0.940  0.00  0.00    +0.007 A 
ATOM     35  C   UNL     1      -2.402   5.485   0.939  0.00  0.00    -0.043 A 
ATOM     36  C   UNL     1      -1.298   5.728   1.936  0.00  0.00    +0.044 C 
ATOM     37  C   UNL     1      -5.760   6.948   0.033  0.00  0.00    +0.044 C 
ATOM     38  C   UNL     1      -3.206   3.118  -1.923  0.00  0.00    +0.044 C 
ENDBRANCH  29  30
ENDBRANCH  26  28
ENDBRANCH   1  22
TORSDOF 6
