REMARK  Name = ZINC08193563
REMARK  8 active torsions:
REMARK  status: ('A' for Active; 'I' for Inactive)
REMARK    1  A    between atoms: C_1  and  C_2
REMARK    2  A    between atoms: C_7  and  N_8
REMARK    3  A    between atoms: C_9  and  S_13
REMARK    4  A    between atoms: S_13  and  C_14
REMARK    5  A    between atoms: C_14  and  C_15
REMARK    6  A    between atoms: N_17  and  C_18
REMARK    7  A    between atoms: C_18  and  C_19
REMARK    8  A    between atoms: C_19  and  N_25
REMARK                            x       y       z     vdW  Elec       q    Type
REMARK                         _______ _______ _______ _____ _____    ______ ____
ROOT
ATOM      1  C   UNL     1      -2.171  -5.454   6.521  0.00  0.00    +0.223 C 
ATOM      2  O   UNL     1      -1.309  -5.122   5.736  0.00  0.00    -0.275 OA
ATOM      3  N   UNL     1      -2.025  -5.188   7.835  0.00  0.00    -0.316 N 
ATOM      4  H   UNL     1      -2.715  -5.454   8.463  0.00  0.00    +0.149 HD
ENDROOT
BRANCH   1   5
ATOM      5  C   UNL     1      -3.406  -6.164   6.029  0.00  0.00    +0.173 C 
BRANCH   5   6
ATOM      6  S   UNL     1      -3.306  -6.373   4.230  0.00  0.00    -0.075 S 
BRANCH   6   8
ATOM      7  N   UNL     1      -5.194  -7.589   2.572  0.00  0.00    -0.187 N 
ATOM      8  C   UNL     1      -4.802  -7.206   3.814  0.00  0.00    +0.214 A 
ATOM      9  N   UNL     1      -5.750  -7.575   4.648  0.00  0.00    -0.101 NA
ATOM     10  N   UNL     1      -6.703  -8.160   4.016  0.00  0.00    -0.022 NA
ATOM     11  N   UNL     1      -6.446  -8.203   2.754  0.00  0.00    -0.038 NA
BRANCH   7  18
ATOM     12  C   UNL     1      -4.940  -9.813   0.815  0.00  0.00    +0.046 C 
ATOM     13  C   UNL     1      -4.355  -8.465   0.481  0.00  0.00    -0.025 A 
ATOM     14  C   UNL     1      -3.678  -8.280  -0.708  0.00  0.00    +0.005 A 
ATOM     15  C   UNL     1      -3.141  -7.043  -1.015  0.00  0.00    +0.000 A 
ATOM     16  C   UNL     1      -3.281  -5.988  -0.133  0.00  0.00    +0.002 A 
ATOM     17  C   UNL     1      -3.957  -6.166   1.058  0.00  0.00    +0.028 A 
ATOM     18  C   UNL     1      -4.502  -7.406   1.367  0.00  0.00    +0.073 A 
ENDBRANCH   7  18
ENDBRANCH   6   8
ENDBRANCH   5   6
ENDBRANCH   1   5
BRANCH   3  19
ATOM     19  C   UNL     1      -0.825  -4.498   8.313  0.00  0.00    +0.092 C 
BRANCH  19  20
ATOM     20  C   UNL     1      -0.853  -4.426   9.841  0.00  0.00    -0.050 C 
ATOM     21  C   UNL     1       0.337  -3.601  10.335  0.00  0.00    -0.010 C 
ATOM     22  C   UNL     1       1.639  -4.262   9.880  0.00  0.00    -0.001 C 
ATOM     23  C   UNL     1       1.724  -5.676  10.459  0.00  0.00    -0.000 C 
ATOM     24  C   UNL     1       0.534  -6.501   9.965  0.00  0.00    -0.001 C 
ATOM     25  C   UNL     1      -0.769  -5.840  10.420  0.00  0.00    -0.010 C 
BRANCH  20  26
ATOM     26  N   UNL     1      -2.104  -3.792  10.279  0.00  0.00    +0.384 N 
ATOM     27  C   UNL     1      -2.206  -2.454   9.685  0.00  0.00    -0.078 C 
ATOM     28  C   UNL     1      -3.544  -1.821  10.071  0.00  0.00    -0.019 C 
ATOM     29  C   UNL     1      -3.630  -1.712  11.596  0.00  0.00    -0.004 C 
ATOM     30  C   UNL     1      -3.448  -3.103  12.209  0.00  0.00    -0.019 C 
ATOM     31  C   UNL     1      -2.113  -3.689  11.743  0.00  0.00    -0.078 C 
ATOM     32  H   UNL     1      -2.887  -4.352   9.977  0.00  0.00    -0.081 HD
ENDBRANCH  20  26
ENDBRANCH  19  20
ENDBRANCH   3  19
TORSDOF 7
