REMARK  Name = ZINC66761227
REMARK  5 active torsions:
REMARK  status: ('A' for Active; 'I' for Inactive)
REMARK    1  A    between atoms: C_1  and  C_2
REMARK    2  A    between atoms: C_2  and  C_3
REMARK    3  A    between atoms: C_3  and  N_4
REMARK    4  A    between atoms: C_10  and  N_13
REMARK    5  A    between atoms: C_14  and  C_16
REMARK                            x       y       z     vdW  Elec       q    Type
REMARK                         _______ _______ _______ _____ _____    ______ ____
ROOT
ATOM      1  N   UNL     1       2.318  -4.794  -4.318  0.00  0.00    -0.280 N 
ATOM      2  C   UNL     1       2.285  -5.958  -4.996  0.00  0.00    +0.265 C 
ATOM      3  O   UNL     1       2.338  -7.014  -4.395  0.00  0.00    -0.268 OA
ATOM      4  H   UNL     1       2.195  -3.955  -4.789  0.00  0.00    +0.155 HD
ENDROOT
BRANCH   2   5
ATOM      5  C   UNL     1       2.184  -5.952  -6.467  0.00  0.00    +0.105 A 
ATOM      6  C   UNL     1       2.147  -7.136  -7.128  0.00  0.00    +0.039 A 
ATOM      7  C   UNL     1       2.047  -7.140  -8.588  0.00  0.00    -0.011 A 
ATOM      8  C   UNL     1       2.005  -8.329  -9.318  0.00  0.00    +0.009 A 
ATOM      9  C   UNL     1       1.911  -8.279 -10.692  0.00  0.00    +0.001 A 
ATOM     10  C   UNL     1       1.858  -7.061 -11.355  0.00  0.00    +0.001 A 
ATOM     11  C   UNL     1       1.898  -5.874 -10.654  0.00  0.00    +0.014 A 
ATOM     12  C   UNL     1       1.993  -5.899  -9.264  0.00  0.00    +0.046 A 
ATOM     13  C   UNL     1       2.039  -4.664  -8.469  0.00  0.00    +0.257 A 
ATOM     14  O   UNL     1       1.994  -3.578  -9.018  0.00  0.00    -0.267 OA
ATOM     15  N   UNL     1       2.125  -4.743  -7.127  0.00  0.00    -0.318 N 
ATOM     16  H   UNL     1       2.151  -3.924  -6.609  0.00  0.00    +0.169 HD
ENDBRANCH   2   5
BRANCH   1  23
ATOM     17  N   UNL     1       0.758  -1.969  -1.253  0.00  0.00    +0.385 N 
ATOM     18  C   UNL     1       1.686  -2.479  -0.218  0.00  0.00    -0.042 C 
ATOM     19  C   UNL     1       2.284  -3.743  -0.794  0.00  0.00    -0.061 A 
ATOM     20  C   UNL     1       2.949  -4.800  -0.201  0.00  0.00    +0.002 A 
ATOM     21  C   UNL     1       3.405  -5.854  -0.970  0.00  0.00    +0.002 A 
ATOM     22  C   UNL     1       3.197  -5.856  -2.336  0.00  0.00    +0.023 A 
ATOM     23  C   UNL     1       2.529  -4.796  -2.936  0.00  0.00    +0.035 A 
ATOM     24  C   UNL     1       2.072  -3.739  -2.161  0.00  0.00    -0.041 A 
ATOM     25  C   UNL     1       1.329  -2.473  -2.522  0.00  0.00    -0.040 C 
ATOM     26  H   UNL     1      -0.171  -2.338  -1.111  0.00  0.00    -0.081 HD
BRANCH  17  27
ATOM     27  C   UNL     1       0.735  -0.500  -1.245  0.00  0.00    -0.078 C 
BRANCH  27  29
ATOM     28  C   UNL     1       0.005   1.522   0.028  0.00  0.00    +0.002 C 
ATOM     29  C   UNL     1       0.028  -0.007   0.020  0.00  0.00    -0.022 C 
ENDBRANCH  27  29
ENDBRANCH  17  27
ENDBRANCH   1  23
TORSDOF 4
