REMARK  Name = ZINC39665125
REMARK  8 active torsions:
REMARK  status: ('A' for Active; 'I' for Inactive)
REMARK    1  A    between atoms: C_1  and  C_2
REMARK    2  A    between atoms: C_2  and  C_4
REMARK    3  A    between atoms: C_2  and  O_32
REMARK    4  A    between atoms: C_4  and  N_5
REMARK    5  A    between atoms: C_6  and  C_8
REMARK    6  A    between atoms: C_19  and  C_21
REMARK    7  A    between atoms: C_24  and  C_28
REMARK    8  A    between atoms: O_32  and  C_33
REMARK                            x       y       z     vdW  Elec       q    Type
REMARK                         _______ _______ _______ _____ _____    ______ ____
ROOT
ATOM      1  C   UNL     1       2.236  -3.046   2.651  0.00  0.00    +0.100 C 
ATOM      2  C   UNL     1       0.832  -3.692   2.660  0.00  0.00    +0.121 C 
ATOM      3  N   UNL     1       0.932  -4.792   3.649  0.00  0.00    -0.296 N 
ATOM      4  C   UNL     1       1.763  -4.231   4.741  0.00  0.00    +0.115 C 
ATOM      5  C   UNL     1       2.843  -3.402   4.018  0.00  0.00    -0.004 C 
ATOM      6  C   UNL     1       4.110  -4.231   3.834  0.00  0.00    -0.010 C 
ATOM      7  C   UNL     1       4.727  -4.524   5.205  0.00  0.00    -0.082 C 
ATOM      8  N   UNL     1       5.040  -3.260   5.882  0.00  0.00    +0.379 N 
ATOM      9  C   UNL     1       3.804  -2.510   6.139  0.00  0.00    -0.082 C 
ATOM     10  C   UNL     1       3.149  -2.132   4.807  0.00  0.00    -0.010 C 
ATOM     11  C   UNL     1       0.391  -6.024   3.572  0.00  0.00    +0.247 C 
ATOM     12  O   UNL     1      -0.178  -6.375   2.557  0.00  0.00    -0.270 OA
ATOM     13  H   UNL     1       5.501  -3.455   6.758  0.00  0.00    -0.086 HD
ATOM     14  H   UNL     1       5.651  -2.709   5.298  0.00  0.00    -0.086 HD
ENDROOT
BRANCH  11  15
ATOM     15  C   UNL     1       0.490  -6.948   4.722  0.00  0.00    +0.040 A 
ATOM     16  C   UNL     1       0.686  -6.445   6.009  0.00  0.00    +0.014 A 
ATOM     17  C   UNL     1       0.777  -7.312   7.079  0.00  0.00    +0.016 A 
ATOM     18  C   UNL     1       0.673  -8.677   6.879  0.00  0.00    +0.090 A 
ATOM     19  C   UNL     1       0.479  -9.183   5.604  0.00  0.00    +0.136 A 
ATOM     20  C   UNL     1       0.381  -8.325   4.525  0.00  0.00    +0.052 A 
ATOM     21  F   UNL     1       0.380 -10.517   5.416  0.00  0.00    -0.205 F 
BRANCH  18  22
ATOM     22  C   UNL     1       0.774  -9.617   8.053  0.00  0.00    +0.420 C 
ATOM     23  F   UNL     1       0.968  -8.879   9.226  0.00  0.00    -0.166 F 
ATOM     24  F   UNL     1      -0.408 -10.358   8.159  0.00  0.00    -0.166 F 
ATOM     25  F   UNL     1       1.854 -10.486   7.863  0.00  0.00    -0.166 F 
ENDBRANCH  18  22
ENDBRANCH  11  15
BRANCH   1  27
ATOM     26  N   UNL     1       3.102  -0.862   1.878  0.00  0.00    -0.312 N 
ATOM     27  C   UNL     1       2.124  -1.551   2.499  0.00  0.00    +0.218 C 
ATOM     28  O   UNL     1       1.155  -0.968   2.936  0.00  0.00    -0.275 OA
ATOM     29  H   UNL     1       3.877  -1.329   1.529  0.00  0.00    +0.149 HD
BRANCH  26  30
ATOM     30  C   UNL     1       2.993   0.592   1.730  0.00  0.00    +0.148 C 
BRANCH  30  32
ATOM     31  C   UNL     1       4.112   2.641   0.841  0.00  0.00    +0.053 C 
ATOM     32  C   UNL     1       4.226   1.123   0.995  0.00  0.00    +0.187 C 
BRANCH  32  33
ATOM     33  O   UNL     1       5.400   0.806   1.744  0.00  0.00    -0.488 OA
BRANCH  33  34
ATOM     34  C   UNL     1       6.533   0.550   1.038  0.00  0.00    +0.121 A 
ATOM     35  C   UNL     1       7.672   0.100   1.690  0.00  0.00    +0.045 A 
ATOM     36  C   UNL     1       8.821  -0.160   0.969  0.00  0.00    +0.004 A 
ATOM     37  C   UNL     1       8.837   0.029  -0.401  0.00  0.00    +0.000 A 
ATOM     38  C   UNL     1       7.704   0.478  -1.053  0.00  0.00    +0.004 A 
ATOM     39  C   UNL     1       6.550   0.733  -0.337  0.00  0.00    +0.045 A 
ENDBRANCH  33  34
ENDBRANCH  32  33
ENDBRANCH  30  32
ENDBRANCH  26  30
ENDBRANCH   1  27
TORSDOF 7
