REMARK  Name = ZINC24090369
REMARK  8 active torsions:
REMARK  status: ('A' for Active; 'I' for Inactive)
REMARK    1  A    between atoms: C_1  and  C_2
REMARK    2  A    between atoms: C_2  and  C_4
REMARK    3  A    between atoms: C_2  and  S_18
REMARK    4  A    between atoms: N_6  and  C_7
REMARK    5  A    between atoms: C_10  and  O_13
REMARK    6  A    between atoms: O_13  and  C_14
REMARK    7  A    between atoms: S_18  and  C_19
REMARK    8  A    between atoms: C_22  and  C_25
REMARK                            x       y       z     vdW  Elec       q    Type
REMARK                         _______ _______ _______ _____ _____    ______ ____
ROOT
ATOM      1  C   UNL     1       0.818  -6.890   1.273  0.00  0.00    +0.029 C 
ATOM      2  C   UNL     1       1.588  -6.961  -0.047  0.00  0.00    +0.137 C 
ENDROOT
BRANCH   2   3
ATOM      3  C   UNL     1       2.209  -8.327  -0.193  0.00  0.00    +0.230 C 
ATOM      4  O   UNL     1       3.357  -8.511   0.152  0.00  0.00    -0.274 OA
ATOM      5  N   UNL     1       1.489  -9.343  -0.707  0.00  0.00    -0.285 N 
ATOM      6  H   UNL     1       0.426  -9.197  -0.949  0.00  0.00    +0.155 HD
BRANCH   5   7
ATOM      7  C   UNL     1       2.094 -10.587  -0.932  0.00  0.00    +0.034 A 
ATOM      8  C   UNL     1       1.711 -11.358  -2.021  0.00  0.00    +0.027 A 
ATOM      9  C   UNL     1       2.311 -12.581  -2.246  0.00  0.00    +0.048 A 
ATOM     10  C   UNL     1       3.289 -13.044  -1.378  0.00  0.00    +0.130 A 
ATOM     11  C   UNL     1       3.669 -12.276  -0.287  0.00  0.00    +0.048 A 
ATOM     12  C   UNL     1       3.073 -11.050  -0.064  0.00  0.00    +0.027 A 
BRANCH  10  13
ATOM     13  O   UNL     1       3.876 -14.251  -1.597  0.00  0.00    -0.406 OA
BRANCH  13  14
ATOM     14  C   UNL     1       3.437 -14.989  -2.739  0.00  0.00    +0.575 C 
ATOM     15  F   UNL     1       3.673 -14.240  -3.897  0.00  0.00    -0.133 F 
ATOM     16  F   UNL     1       4.139 -16.196  -2.813  0.00  0.00    -0.133 F 
ATOM     17  F   UNL     1       2.067 -15.252  -2.626  0.00  0.00    -0.133 F 
ENDBRANCH  13  14
ENDBRANCH  10  13
ENDBRANCH   5   7
ENDBRANCH   2   3
BRANCH   2  18
ATOM     18  S   UNL     1       2.889  -5.703  -0.056  0.00  0.00    -0.074 S 
BRANCH  18  19
ATOM     19  C   UNL     1       1.902  -4.243  -0.028  0.00  0.00    +0.185 A 
ATOM     20  N   UNL     1       2.359  -2.956  -0.030  0.00  0.00    -0.201 NA
ATOM     21  H   UNL     1      -0.150  -5.004   0.006  0.00  0.00    +0.191 HD
ATOM     22  C   UNL     1       1.235  -2.163   0.000  0.00  0.00    +0.183 A 
ATOM     23  N   UNL     1       0.197  -2.966   0.020  0.00  0.00    -0.152 NA
ATOM     24  N   UNL     1       0.589  -4.190  -0.001  0.00  0.00    -0.253 N 
BRANCH  22  25
ATOM     25  C   UNL     1       1.203  -0.685   0.009  0.00  0.00    +0.035 A 
ATOM     26  C   UNL     1       2.394   0.043  -0.004  0.00  0.00    +0.013 A 
ATOM     27  C   UNL     1       2.357   1.421   0.004  0.00  0.00    +0.001 A 
ATOM     28  C   UNL     1       1.143   2.084   0.023  0.00  0.00    +0.001 A 
ATOM     29  C   UNL     1      -0.042   1.370   0.036  0.00  0.00    +0.016 A 
ATOM     30  C   UNL     1      -0.019  -0.010   0.029  0.00  0.00    +0.029 A 
ATOM     31 BR   UNL     1      -1.640  -0.985   0.045  0.00  0.00    -0.050 Br
ENDBRANCH  22  25
ENDBRANCH  18  19
ENDBRANCH   2  18
TORSDOF 7
