REMARK  Name = ZINC35921299
REMARK  11 active torsions:
REMARK  status: ('A' for Active; 'I' for Inactive)
REMARK    1  A    between atoms: C_1  and  C_2
REMARK    2  A    between atoms: C_2  and  C_3
REMARK    3  A    between atoms: N_5  and  C_6
REMARK    4  A    between atoms: N_5  and  C_27
REMARK    5  A    between atoms: C_6  and  C_7
REMARK    6  A    between atoms: N_10  and  C_12
REMARK    7  A    between atoms: N_21  and  C_23
REMARK    8  A    between atoms: C_23  and  C_24
REMARK    9  A    between atoms: C_27  and  C_28
REMARK   10  A    between atoms: C_28  and  C_29
REMARK   11  A    between atoms: C_28  and  C_30
REMARK                            x       y       z     vdW  Elec       q    Type
REMARK                         _______ _______ _______ _____ _____    ______ ____
ROOT
ATOM      1  C   UNL     1      -3.265  -2.376  -1.375  0.00  0.00    +0.082 A 
ATOM      2  C   UNL     1      -3.927  -1.375  -2.079  0.00  0.00    -0.018 A 
ATOM      3  C   UNL     1      -4.229  -1.861  -3.313  0.00  0.00    +0.045 A 
ATOM      4  N   UNL     1      -3.770  -3.120  -3.385  0.00  0.00    -0.236 N 
ATOM      5  N   UNL     1      -3.163  -3.425  -2.157  0.00  0.00    -0.169 NA
ATOM      6  C   UNL     1      -4.961  -1.052  -4.356  0.00  0.00    +0.037 C 
ATOM      7  C   UNL     1      -5.595   0.154  -3.648  0.00  0.00    -0.072 C 
ATOM      8  N   UNL     1      -4.587   0.829  -2.820  0.00  0.00    +0.383 N 
ATOM      9  C   UNL     1      -4.282   0.019  -1.629  0.00  0.00    -0.039 C 
ATOM     10  H   UNL     1      -3.745   0.960  -3.360  0.00  0.00    -0.081 HD
ENDROOT
BRANCH   4  11
ATOM     11  C   UNL     1      -3.873  -3.976  -4.491  0.00  0.00    +0.067 A 
ATOM     12  C   UNL     1      -3.621  -3.494  -5.769  0.00  0.00    +0.028 A 
ATOM     13  C   UNL     1      -3.723  -4.339  -6.857  0.00  0.00    +0.003 A 
ATOM     14  C   UNL     1      -4.075  -5.664  -6.675  0.00  0.00    +0.020 A 
ATOM     15  C   UNL     1      -4.326  -6.147  -5.403  0.00  0.00    +0.043 A 
ATOM     16  C   UNL     1      -4.221  -5.307  -4.310  0.00  0.00    +0.047 A 
ATOM     17 CL   UNL     1      -4.768  -7.811  -5.179  0.00  0.00    -0.083 Cl
ENDBRANCH   4  11
BRANCH   1  18
ATOM     18  C   UNL     1      -2.749  -2.271   0.037  0.00  0.00    +0.165 C 
BRANCH  18  21
ATOM     19  C   UNL     1      -3.682  -4.157   1.265  0.00  0.00    +0.216 C 
ATOM     20  O   UNL     1      -2.885  -4.881   0.705  0.00  0.00    -0.276 OA
ATOM     21  N   UNL     1      -3.731  -2.846   0.960  0.00  0.00    -0.295 N 
BRANCH  19  23
ATOM     22  C   UNL     1      -4.355  -6.225   2.457  0.00  0.00    +0.013 C 
ATOM     23  C   UNL     1      -4.616  -4.726   2.301  0.00  0.00    +0.092 C 
ENDBRANCH  19  23
BRANCH  21  24
ATOM     24  C   UNL     1      -4.766  -1.994   1.551  0.00  0.00    +0.111 C 
BRANCH  24  25
ATOM     25  C   UNL     1      -4.253  -1.407   2.867  0.00  0.00    +0.000 C 
ATOM     26  C   UNL     1      -3.075  -0.473   2.584  0.00  0.00    +0.009 C 
ATOM     27  C   UNL     1      -5.376  -0.620   3.546  0.00  0.00    +0.009 C 
ENDBRANCH  24  25
ENDBRANCH  21  24
ENDBRANCH  18  21
ENDBRANCH   1  18
BRANCH   8  28
ATOM     28  C   UNL     1      -5.101   2.139  -2.400  0.00  0.00    -0.075 C 
BRANCH  28  29
ATOM     29  C   UNL     1      -5.283   3.034  -3.627  0.00  0.00    -0.028 C 
ATOM     30  C   UNL     1      -4.427   4.298  -3.713  0.00  0.00    +0.002 C 
ATOM     31  C   UNL     1      -5.923   4.407  -3.412  0.00  0.00    +0.002 C 
ENDBRANCH  28  29
ENDBRANCH   8  28
TORSDOF 8
