REMARK  Name = ZINC32971066
REMARK  4 active torsions:
REMARK  status: ('A' for Active; 'I' for Inactive)
REMARK    1  A    between atoms: C_3  and  N_16
REMARK    2  A    between atoms: C_5  and  S_7
REMARK    3  A    between atoms: S_7  and  N_10
REMARK    4  A    between atoms: C_17  and  C_19
REMARK                            x       y       z     vdW  Elec       q    Type
REMARK                         _______ _______ _______ _____ _____    ______ ____
ROOT
ATOM      1  C   UNL     1       2.599   2.433  -3.844  0.00  0.00    +0.004 A 
ATOM      2  C   UNL     1       3.467   1.363  -3.954  0.00  0.00    +0.023 A 
ATOM      3  C   UNL     1       3.708   0.551  -2.853  0.00  0.00    +0.036 A 
ATOM      4  C   UNL     1       3.080   0.821  -1.644  0.00  0.00    +0.052 A 
ATOM      5  C   UNL     1       2.210   1.888  -1.542  0.00  0.00    +0.110 A 
ATOM      6  C   UNL     1       1.972   2.695  -2.640  0.00  0.00    +0.029 A 
ENDROOT
BRANCH   3   7
ATOM      7  N   UNL     1       4.586  -0.532  -2.961  0.00  0.00    -0.281 N 
ATOM      8  C   UNL     1       4.653  -1.233  -4.110  0.00  0.00    +0.248 C 
ATOM      9  O   UNL     1       4.014  -0.873  -5.080  0.00  0.00    -0.270 OA
ATOM     10  H   UNL     1       5.221  -0.812  -2.108  0.00  0.00    +0.155 HD
BRANCH   8  11
ATOM     11  C   UNL     1       5.502  -2.436  -4.191  0.00  0.00    +0.039 A 
ATOM     12  C   UNL     1       6.241  -2.845  -3.077  0.00  0.00    +0.014 A 
ATOM     13  C   UNL     1       7.027  -3.973  -3.154  0.00  0.00    +0.017 A 
ATOM     14  C   UNL     1       7.095  -4.695  -4.338  0.00  0.00    +0.030 A 
ATOM     15  C   UNL     1       6.367  -4.293  -5.464  0.00  0.00    +0.048 A 
ATOM     16  C   UNL     1       5.571  -3.162  -5.383  0.00  0.00    +0.037 A 
ATOM     17  N   UNL     1       6.430  -5.000  -6.662  0.00  0.00    -0.284 N 
ATOM     18  C   UNL     1       6.796  -6.270  -6.808  0.00  0.00    +0.227 C 
ATOM     19  O   UNL     1       6.788  -6.743  -7.925  0.00  0.00    -0.275 OA
ATOM     20  C   UNL     1       7.220  -7.152  -5.666  0.00  0.00    +0.170 C 
ATOM     21  S   UNL     1       8.104  -6.140  -4.441  0.00  0.00    -0.114 S 
ATOM     22  H   UNL     1       6.162  -4.505  -7.607  0.00  0.00    +0.155 HD
ENDBRANCH   8  11
ENDBRANCH   3   7
BRANCH   5  23
ATOM     23  S   UNL     1       1.408   2.227  -0.010  0.00  0.00    +0.073 S 
ATOM     24  O   UNL     1       1.068   3.607  -0.026  0.00  0.00    -0.150 OA
ATOM     25  O   UNL     1       2.217   1.654   1.007  0.00  0.00    -0.150 OA
BRANCH  23  26
ATOM     26  N   UNL     1      -0.020   1.387  -0.009  0.00  0.00    -0.205 N 
ATOM     27  C   UNL     1      -0.009   0.017  -0.018  0.00  0.00    +0.088 C 
ATOM     28  N   UNL     1       1.058  -0.703  -0.028  0.00  0.00    -0.375 N 
ATOM     29  C   UNL     1       0.760  -2.140  -0.034  0.00  0.00    +0.114 C 
ATOM     30  C   UNL     1      -0.727  -2.243  -0.446  0.00  0.00    +0.028 C 
ATOM     31  C   UNL     1      -1.248  -0.849  -0.012  0.00  0.00    +0.072 C 
ATOM     32  H   UNL     1      -0.977   1.930  -0.001  0.00  0.00    +0.175 HD
ATOM     33  H   UNL     1       2.047  -0.221  -0.031  0.00  0.00    +0.161 HD
ENDBRANCH  23  26
ENDBRANCH   5  23
TORSDOF 4
