REMARK  Name = ZINC39734787
REMARK  10 active torsions:
REMARK  status: ('A' for Active; 'I' for Inactive)
REMARK    1  A    between atoms: C_1  and  N_2
REMARK    2  A    between atoms: N_2  and  S_3
REMARK    3  A    between atoms: S_3  and  C_6
REMARK    4  A    between atoms: C_6  and  C_7
REMARK    5  A    between atoms: C_12  and  C_13
REMARK    6  A    between atoms: C_13  and  N_14
REMARK    7  A    between atoms: N_14  and  C_15
REMARK    8  A    between atoms: C_15  and  C_17
REMARK    9  A    between atoms: C_15  and  C_23
REMARK   10  A    between atoms: C_23  and  C_25
REMARK                            x       y       z     vdW  Elec       q    Type
REMARK                         _______ _______ _______ _____ _____    ______ ____
ROOT
ATOM      1  C   UNL     1       3.131   3.270  -3.328  0.00  0.00    +0.032 C 
ENDROOT
BRANCH   1   2
ATOM      2  C   UNL     1       3.114   3.569  -4.805  0.00  0.00    -0.054 A 
ATOM      3  C   UNL     1       4.179   3.188  -5.600  0.00  0.00    +0.002 A 
ATOM      4  C   UNL     1       4.163   3.463  -6.955  0.00  0.00    +0.000 A 
ATOM      5  C   UNL     1       3.083   4.118  -7.515  0.00  0.00    +0.000 A 
ATOM      6  C   UNL     1       2.017   4.498  -6.720  0.00  0.00    +0.000 A 
ATOM      7  C   UNL     1       2.031   4.220  -5.366  0.00  0.00    +0.002 A 
ENDBRANCH   1   2
BRANCH   1   8
ATOM      8  N   UNL     1       3.698   1.933  -3.106  0.00  0.00    +0.391 N 
ATOM      9  H   UNL     1       3.785   1.765  -2.115  0.00  0.00    -0.084 HD
ATOM     10  H   UNL     1       4.608   1.878  -3.538  0.00  0.00    -0.084 HD
BRANCH   8  11
ATOM     11  C   UNL     1       2.812   0.921  -3.698  0.00  0.00    -0.045 C 
BRANCH  11  17
ATOM     12  C   UNL     1       3.233  -1.075  -2.247  0.00  0.00    -0.024 A 
ATOM     13  C   UNL     1       3.762  -2.335  -2.040  0.00  0.00    +0.005 A 
ATOM     14  C   UNL     1       4.456  -2.969  -3.053  0.00  0.00    +0.000 A 
ATOM     15  C   UNL     1       4.621  -2.342  -4.274  0.00  0.00    +0.000 A 
ATOM     16  C   UNL     1       4.092  -1.082  -4.482  0.00  0.00    +0.002 A 
ATOM     17  C   UNL     1       3.394  -0.450  -3.470  0.00  0.00    -0.060 A 
BRANCH  12  18
ATOM     18  C   UNL     1       2.477  -0.384  -1.142  0.00  0.00    +0.220 C 
BRANCH  18  19
ATOM     19  S   UNL     1       0.718  -0.816  -1.251  0.00  0.00    +0.033 S 
ATOM     20  O   UNL     1       0.532  -2.191  -0.946  0.00  0.00    -0.158 OA
ATOM     21  O   UNL     1       0.147  -0.250  -2.423  0.00  0.00    -0.158 OA
BRANCH  19  23
ATOM     22  C   UNL     1      -0.018   1.461   0.010  0.00  0.00    +0.127 C 
ATOM     23  N   UNL     1       0.002  -0.004   0.002  0.00  0.00    -0.197 NA
ATOM     24  H   UNL     1      -0.404  -0.499   0.731  0.00  0.00    +0.147 HD
ENDBRANCH  19  23
ENDBRANCH  18  19
ENDBRANCH  12  18
ENDBRANCH  11  17
ENDBRANCH   8  11
ENDBRANCH   1   8
BRANCH   1  25
ATOM     25  C   UNL     1       3.973   4.297  -2.617  0.00  0.00    +0.152 C 
ATOM     26  O   UNL     1       5.115   4.033  -2.301  0.00  0.00    -0.294 OA
BRANCH  25  27
ATOM     27  C   UNL     1       3.434   5.567  -2.318  0.00  0.00    +0.022 C 
ATOM     28  C   UNL     1       4.070   6.616  -1.680  0.00  0.00    +0.006 A 
ATOM     29  C   UNL     1       5.372   6.773  -1.148  0.00  0.00    +0.010 A 
ATOM     30  C   UNL     1       5.734   7.937  -0.564  0.00  0.00    +0.001 A 
ATOM     31  C   UNL     1       4.859   9.030  -0.456  0.00  0.00    +0.002 A 
ATOM     32  C   UNL     1       3.596   8.984  -0.930  0.00  0.00    +0.026 A 
ATOM     33  C   UNL     1       3.120   7.752  -1.581  0.00  0.00    +0.043 A 
ATOM     34  N   UNL     1       1.976   7.438  -2.117  0.00  0.00    -0.380 N 
ATOM     35  C   UNL     1       2.041   6.067  -2.633  0.00  0.00    +0.152 C 
ATOM     36  H   UNL     1       1.202   8.021  -2.170  0.00  0.00    +0.160 HD
ENDBRANCH  25  27
ENDBRANCH   1  25
TORSDOF 9
