REMARK  Name = ZINC40050205
REMARK  9 active torsions:
REMARK  status: ('A' for Active; 'I' for Inactive)
REMARK    1  A    between atoms: C_1  and  C_2
REMARK    2  A    between atoms: C_2  and  C_3
REMARK    3  A    between atoms: C_12  and  C_13
REMARK    4  A    between atoms: N_16  and  S_19
REMARK    5  A    between atoms: S_19  and  C_22
REMARK    6  A    between atoms: C_25  and  O_32
REMARK    7  A    between atoms: C_26  and  N_28
REMARK    8  A    between atoms: C_29  and  C_31
REMARK    9  A    between atoms: O_32  and  C_33
REMARK                            x       y       z     vdW  Elec       q    Type
REMARK                         _______ _______ _______ _____ _____    ______ ____
ROOT
ATOM      1  C   UNL     1      -5.174  -1.576  -3.053  0.00  0.00    -0.040 C 
ATOM      2  C   UNL     1      -5.414  -2.867  -3.079  0.00  0.00    -0.006 C 
ATOM      3  C   UNL     1      -6.703  -3.459  -3.576  0.00  0.00    +0.137 C 
ATOM      4  N   UNL     1      -7.690  -2.385  -3.755  0.00  0.00    -0.173 NA
ATOM      5  C   UNL     1      -7.227  -1.140  -4.391  0.00  0.00    +0.114 C 
ATOM      6  C   UNL     1      -6.151  -0.525  -3.489  0.00  0.00    +0.052 C 
ENDROOT
BRANCH   1  16
ATOM      7  C   UNL     1      -1.400  -0.466   0.022  0.00  0.00    -0.024 A 
ATOM      8  C   UNL     1      -2.002  -0.812   1.212  0.00  0.00    +0.005 A 
ATOM      9  C   UNL     1      -3.300  -1.302   1.232  0.00  0.00    +0.001 A 
ATOM     10  C   UNL     1      -4.006  -1.450   0.059  0.00  0.00    +0.010 A 
ATOM     11  C   UNL     1      -3.411  -1.103  -1.153  0.00  0.00    +0.007 A 
ATOM     12  C   UNL     1      -2.098  -0.602  -1.174  0.00  0.00    +0.050 A 
ATOM     13  N   UNL     1      -1.777  -0.342  -2.489  0.00  0.00    -0.360 N 
ATOM     14  H   UNL     1      -0.926   0.009  -2.793  0.00  0.00    +0.165 HD
ATOM     15  C   UNL     1      -2.829  -0.652  -3.301  0.00  0.00    +0.091 A 
ATOM     16  C   UNL     1      -3.858  -1.130  -2.555  0.00  0.00    +0.003 A 
BRANCH   7  18
ATOM     17  C   UNL     1      -0.021   1.595   0.030  0.00  0.00    +0.009 C 
ATOM     18  C   UNL     1       0.010   0.066   0.016  0.00  0.00    +0.034 C 
ENDBRANCH   7  18
ENDBRANCH   1  16
BRANCH   4  19
ATOM     19  S   UNL     1      -9.261  -2.568  -3.263  0.00  0.00    +0.061 S 
ATOM     20  O   UNL     1     -10.038  -1.667  -4.040  0.00  0.00    -0.153 OA
ATOM     21  O   UNL     1      -9.517  -3.966  -3.234  0.00  0.00    -0.153 OA
BRANCH  19  22
ATOM     22  C   UNL     1      -9.353  -2.005  -1.596  0.00  0.00    +0.107 A 
ATOM     23  C   UNL     1      -9.134  -2.889  -0.556  0.00  0.00    +0.032 A 
ATOM     24  C   UNL     1      -9.205  -2.452   0.754  0.00  0.00    +0.049 A 
ATOM     25  C   UNL     1      -9.498  -1.126   1.027  0.00  0.00    +0.141 A 
ATOM     26  C   UNL     1      -9.719  -0.235  -0.020  0.00  0.00    +0.077 A 
ATOM     27  C   UNL     1      -9.640  -0.679  -1.332  0.00  0.00    +0.055 A 
BRANCH  26  28
ATOM     28  N   UNL     1     -10.015   1.108   0.251  0.00  0.00    -0.283 N 
ATOM     29  C   UNL     1     -10.696   1.843  -0.651  0.00  0.00    +0.214 C 
ATOM     30  O   UNL     1     -11.139   1.318  -1.651  0.00  0.00    -0.276 OA
ATOM     31  C   UNL     1     -10.906   3.317  -0.418  0.00  0.00    +0.109 C 
ATOM     32  H   UNL     1      -9.731   1.508   1.087  0.00  0.00    +0.155 HD
ENDBRANCH  26  28
BRANCH  25  33
ATOM     33  O   UNL     1      -9.570  -0.695   2.315  0.00  0.00    -0.493 OA
ATOM     34  C   UNL     1      -9.332  -1.665   3.338  0.00  0.00    +0.277 C 
ENDBRANCH  25  33
ENDBRANCH  19  22
ENDBRANCH   4  19
TORSDOF 6
