REMARK  Name = ZINC12467518
REMARK  10 active torsions:
REMARK  status: ('A' for Active; 'I' for Inactive)
REMARK    1  A    between atoms: C_1  and  C_2
REMARK    2  A    between atoms: C_2  and  O_3
REMARK    3  A    between atoms: O_3  and  C_4
REMARK    4  A    between atoms: C_4  and  C_6
REMARK    5  A    between atoms: C_7  and  C_32
REMARK    6  A    between atoms: C_8  and  C_29
REMARK    7  A    between atoms: C_9  and  N_11
REMARK    8  A    between atoms: C_12  and  C_14
REMARK    9  A    between atoms: N_19  and  S_20
REMARK   10  A    between atoms: S_20  and  C_23
REMARK                            x       y       z     vdW  Elec       q    Type
REMARK                         _______ _______ _______ _____ _____    ______ ____
ROOT
ATOM      1  N   UNL     1       2.038  -1.768  -2.534  0.00  0.00    -0.278 N 
ATOM      2  C   UNL     1       1.009  -1.254  -1.832  0.00  0.00    +0.236 C 
ATOM      3  O   UNL     1      -0.130  -1.434  -2.207  0.00  0.00    -0.274 OA
ATOM      4  H   UNL     1       2.950  -1.624  -2.234  0.00  0.00    +0.155 HD
ENDROOT
BRANCH   1   8
ATOM      5  C   UNL     1       0.866  -3.832  -5.803  0.00  0.00    +0.102 A 
ATOM      6  C   UNL     1       2.224  -3.796  -5.633  0.00  0.00    -0.015 A 
ATOM      7  C   UNL     1       2.718  -3.109  -4.536  0.00  0.00    +0.069 A 
ATOM      8  C   UNL     1       1.796  -2.500  -3.680  0.00  0.00    +0.085 A 
ATOM      9  S   UNL     1       0.273  -2.897  -4.406  0.00  0.00    -0.066 S 
ATOM     10  C   UNL     1       3.150  -4.482  -6.606  0.00  0.00    +0.046 C 
BRANCH   7  11
ATOM     11  C   UNL     1       4.162  -3.023  -4.282  0.00  0.00    +0.244 C 
ATOM     12  O   UNL     1       4.712  -3.869  -3.602  0.00  0.00    -0.270 OA
ATOM     13  N   UNL     1       4.879  -2.006  -4.801  0.00  0.00    -0.325 N 
ATOM     14  H   UNL     1       4.441  -1.331  -5.343  0.00  0.00    +0.145 HD
ATOM     15  H   UNL     1       5.832  -1.949  -4.633  0.00  0.00    +0.145 HD
ENDBRANCH   7  11
BRANCH   5  16
ATOM     16  C   UNL     1       0.094  -4.480  -6.862  0.00  0.00    +0.346 C 
ATOM     17  O   UNL     1       0.666  -5.088  -7.747  0.00  0.00    -0.244 OA
BRANCH  16  18
ATOM     18  O   UNL     1      -1.253  -4.403  -6.859  0.00  0.00    -0.461 OA
BRANCH  18  20
ATOM     19  C   UNL     1      -3.451  -4.864  -7.753  0.00  0.00    +0.048 C 
ATOM     20  C   UNL     1      -1.943  -5.059  -7.925  0.00  0.00    +0.229 C 
ENDBRANCH  18  20
ENDBRANCH  16  18
ENDBRANCH   5  16
ENDBRANCH   1   8
BRANCH   2  21
ATOM     21  C   UNL     1       1.274  -0.455  -0.582  0.00  0.00    +0.166 C 
ATOM     22  C   UNL     1       2.092   0.807  -0.929  0.00  0.00    +0.031 C 
ATOM     23  C   UNL     1       1.474   1.887  -0.002  0.00  0.00    +0.019 C 
ATOM     24  C   UNL     1      -0.018   1.470   0.010  0.00  0.00    +0.110 C 
ATOM     25  N   UNL     1       0.002  -0.004   0.002  0.00  0.00    -0.164 NA
BRANCH  25  26
ATOM     26  S   UNL     1      -1.208  -0.989   0.558  0.00  0.00    +0.068 S 
ATOM     27  O   UNL     1      -0.602  -2.231   0.886  0.00  0.00    -0.152 OA
ATOM     28  O   UNL     1      -1.948  -0.229   1.504  0.00  0.00    -0.152 OA
BRANCH  26  29
ATOM     29  C   UNL     1      -2.291  -1.299  -0.797  0.00  0.00    +0.144 A 
ATOM     30  C   UNL     1      -2.243  -2.293  -1.717  0.00  0.00    +0.038 A 
ATOM     31  C   UNL     1      -3.213  -2.343  -2.701  0.00  0.00    +0.030 A 
ATOM     32  C   UNL     1      -4.177  -1.389  -2.722  0.00  0.00    +0.080 A 
ATOM     33  S   UNL     1      -3.731  -0.382  -1.317  0.00  0.00    -0.057 S 
ATOM     34 CL   UNL     1      -5.502  -1.197  -3.828  0.00  0.00    -0.076 Cl
ENDBRANCH  26  29
ENDBRANCH  25  26
ENDBRANCH   2  21
TORSDOF 8
