REMARK  Name = ZINC11307420
REMARK  7 active torsions:
REMARK  status: ('A' for Active; 'I' for Inactive)
REMARK    1  A    between atoms: C_4  and  N_7
REMARK    2  A    between atoms: C_8  and  C_28
REMARK    3  A    between atoms: C_10  and  C_12
REMARK    4  A    between atoms: C_12  and  O_14
REMARK    5  A    between atoms: O_14  and  C_15
REMARK    6  A    between atoms: C_15  and  C_16
REMARK    7  A    between atoms: C_16  and  C_18
REMARK                            x       y       z     vdW  Elec       q    Type
REMARK                         _______ _______ _______ _____ _____    ______ ____
ROOT
ATOM      1  N   UNL     1       3.622  -0.651  -0.037  0.00  0.00    -0.211 N 
ATOM      2  C   UNL     1       3.906  -1.839   0.577  0.00  0.00    +0.171 A 
ATOM      3  N   UNL     1       5.163  -2.135   0.318  0.00  0.00    -0.200 NA
ATOM      4  C   UNL     1       5.707  -1.178  -0.445  0.00  0.00    +0.260 A 
ATOM      5  N   UNL     1       4.800  -0.254  -0.691  0.00  0.00    -0.137 NA
ENDROOT
BRANCH   1   9
ATOM      6  C   UNL     1      -0.017   1.379   0.010  0.00  0.00    +0.000 A 
ATOM      7  C   UNL     1       1.170   2.089   0.002  0.00  0.00    +0.002 A 
ATOM      8  C   UNL     1       2.377   1.420  -0.013  0.00  0.00    +0.028 A 
ATOM      9  C   UNL     1       2.400   0.031  -0.021  0.00  0.00    +0.068 A 
ATOM     10  C   UNL     1       1.206  -0.680  -0.013  0.00  0.00    +0.028 A 
ATOM     11  C   UNL     1       0.002  -0.004   0.002  0.00  0.00    +0.002 A 
ENDBRANCH   1   9
BRANCH   2  12
ATOM     12  C   UNL     1       2.974  -2.643   1.383  0.00  0.00    +0.056 A 
ATOM     13  C   UNL     1       3.090  -3.946   1.796  0.00  0.00    +0.019 A 
ATOM     14  C   UNL     1       2.079  -4.493   2.551  0.00  0.00    +0.008 A 
ATOM     15  C   UNL     1       0.999  -3.729   2.865  0.00  0.00    +0.046 A 
ATOM     16  S   UNL     1       1.401  -2.174   2.086  0.00  0.00    -0.094 S 
ENDBRANCH   2  12
BRANCH   4  17
ATOM     17  C   UNL     1       7.100  -1.163  -0.938  0.00  0.00    +0.379 C 
ATOM     18  O   UNL     1       7.491  -0.241  -1.626  0.00  0.00    -0.241 OA
BRANCH  17  19
ATOM     19  O   UNL     1       7.936  -2.171  -0.624  0.00  0.00    -0.451 OA
BRANCH  19  20
ATOM     20  C   UNL     1       9.268  -2.092  -1.135  0.00  0.00    +0.312 C 
BRANCH  20  21
ATOM     21  C   UNL     1      10.052  -3.298  -0.684  0.00  0.00    +0.202 C 
ATOM     22  O   UNL     1       9.521  -4.143   0.007  0.00  0.00    -0.288 OA
BRANCH  21  23
ATOM     23  C   UNL     1      11.408  -3.445  -1.067  0.00  0.00    +0.046 A 
ATOM     24  C   UNL     1      12.150  -2.576  -1.838  0.00  0.00    +0.095 A 
ATOM     25  N   UNL     1      13.399  -3.056  -1.987  0.00  0.00    -0.360 N 
ATOM     26  H   UNL     1      14.103  -2.617  -2.490  0.00  0.00    +0.165 HD
ATOM     27  C   UNL     1      13.542  -4.259  -1.324  0.00  0.00    +0.047 A 
ATOM     28  C   UNL     1      12.313  -4.558  -0.715  0.00  0.00    +0.010 A 
ATOM     29  C   UNL     1      12.168  -5.722   0.033  0.00  0.00    +0.011 A 
ATOM     30  C   UNL     1      13.238  -6.580   0.175  0.00  0.00    +0.001 A 
ATOM     31  C   UNL     1      14.454  -6.285  -0.423  0.00  0.00    +0.002 A 
ATOM     32  C   UNL     1      14.608  -5.139  -1.173  0.00  0.00    +0.026 A 
ENDBRANCH  21  23
ENDBRANCH  20  21
ENDBRANCH  19  20
ENDBRANCH  17  19
ENDBRANCH   4  17
TORSDOF 7
