REMARK  Name = ZINC39665319
REMARK  9 active torsions:
REMARK  status: ('A' for Active; 'I' for Inactive)
REMARK    1  A    between atoms: C_1  and  C_2
REMARK    2  A    between atoms: C_2  and  C_4
REMARK    3  A    between atoms: C_2  and  O_34
REMARK    4  A    between atoms: C_4  and  N_5
REMARK    5  A    between atoms: C_6  and  C_8
REMARK    6  A    between atoms: C_19  and  C_21
REMARK    7  A    between atoms: C_26  and  S_27
REMARK    8  A    between atoms: S_27  and  C_28
REMARK    9  A    between atoms: O_34  and  C_35
REMARK                            x       y       z     vdW  Elec       q    Type
REMARK                         _______ _______ _______ _____ _____    ______ ____
ROOT
ATOM      1  C   UNL     1       0.752  -2.871   2.019  0.00  0.00    +0.100 C 
ATOM      2  C   UNL     1       1.650  -3.416   0.886  0.00  0.00    +0.121 C 
ATOM      3  N   UNL     1       2.893  -3.848   1.569  0.00  0.00    -0.296 N 
ATOM      4  C   UNL     1       2.423  -4.464   2.834  0.00  0.00    +0.115 C 
ATOM      5  C   UNL     1       1.260  -3.563   3.295  0.00  0.00    -0.004 C 
ATOM      6  C   UNL     1       1.762  -2.526   4.295  0.00  0.00    -0.010 C 
ATOM      7  C   UNL     1       2.209  -3.234   5.577  0.00  0.00    -0.082 C 
ATOM      8  N   UNL     1       1.081  -3.983   6.143  0.00  0.00    +0.379 N 
ATOM      9  C   UNL     1       0.664  -5.040   5.213  0.00  0.00    -0.082 C 
ATOM     10  C   UNL     1       0.152  -4.408   3.915  0.00  0.00    -0.010 C 
ATOM     11  C   UNL     1       4.162  -3.712   1.138  0.00  0.00    +0.249 C 
ATOM     12  O   UNL     1       4.394  -3.104   0.111  0.00  0.00    -0.270 OA
ATOM     13  H   UNL     1       1.361  -4.399   7.018  0.00  0.00    -0.086 HD
ATOM     14  H   UNL     1       0.308  -3.355   6.303  0.00  0.00    -0.086 HD
ENDROOT
BRANCH  11  15
ATOM     15  C   UNL     1       5.270  -4.301   1.912  0.00  0.00    +0.069 A 
ATOM     16  C   UNL     1       5.109  -5.526   2.569  0.00  0.00    +0.017 A 
ATOM     17  C   UNL     1       6.180  -6.036   3.281  0.00  0.00    +0.020 A 
ATOM     18  C   UNL     1       7.369  -5.329   3.325  0.00  0.00    +0.112 A 
ATOM     19  N   UNL     1       7.501  -4.176   2.700  0.00  0.00    -0.248 NA
ATOM     20  C   UNL     1       6.510  -3.644   1.999  0.00  0.00    +0.114 A 
BRANCH  20  21
ATOM     21  S   UNL     1       6.746  -2.104   1.177  0.00  0.00    -0.069 S 
BRANCH  21  22
ATOM     22  C   UNL     1       8.452  -1.742   1.431  0.00  0.00    +0.014 A 
ATOM     23  C   UNL     1       9.389  -2.094   0.468  0.00  0.00    +0.015 A 
ATOM     24  C   UNL     1      10.725  -1.808   0.670  0.00  0.00    +0.001 A 
ATOM     25  C   UNL     1      11.130  -1.173   1.830  0.00  0.00    +0.000 A 
ATOM     26  C   UNL     1      10.200  -0.821   2.791  0.00  0.00    +0.001 A 
ATOM     27  C   UNL     1       8.861  -1.098   2.593  0.00  0.00    +0.015 A 
ENDBRANCH  21  22
ENDBRANCH  20  21
ENDBRANCH  11  15
BRANCH   1  29
ATOM     28  N   UNL     1      -0.090  -0.636   2.664  0.00  0.00    -0.312 N 
ATOM     29  C   UNL     1       0.905  -1.376   2.136  0.00  0.00    +0.218 C 
ATOM     30  O   UNL     1       1.924  -0.839   1.756  0.00  0.00    -0.275 OA
ATOM     31  H   UNL     1      -0.905  -1.065   2.968  0.00  0.00    +0.149 HD
BRANCH  28  32
ATOM     32  C   UNL     1       0.059   0.817   2.778  0.00  0.00    +0.148 C 
BRANCH  32  34
ATOM     33  C   UNL     1      -1.048   2.929   3.524  0.00  0.00    +0.053 C 
ATOM     34  C   UNL     1      -1.204   1.412   3.405  0.00  0.00    +0.187 C 
BRANCH  34  35
ATOM     35  O   UNL     1      -2.331   1.112   2.580  0.00  0.00    -0.488 OA
BRANCH  35  36
ATOM     36  C   UNL     1      -3.549   1.093   3.183  0.00  0.00    +0.121 A 
ATOM     37  C   UNL     1      -4.670   0.690   2.472  0.00  0.00    +0.045 A 
ATOM     38  C   UNL     1      -5.907   0.672   3.088  0.00  0.00    +0.004 A 
ATOM     39  C   UNL     1      -6.028   1.055   4.411  0.00  0.00    +0.000 A 
ATOM     40  C   UNL     1      -4.912   1.458   5.121  0.00  0.00    +0.004 A 
ATOM     41  C   UNL     1      -3.672   1.472   4.512  0.00  0.00    +0.045 A 
ENDBRANCH  35  36
ENDBRANCH  34  35
ENDBRANCH  32  34
ENDBRANCH  28  32
ENDBRANCH   1  29
TORSDOF 8
