REMARK  Name = ZINC12309622
REMARK  13 active torsions:
REMARK  status: ('A' for Active; 'I' for Inactive)
REMARK    1  A    between atoms: C_1  and  C_2
REMARK    2  A    between atoms: C_2  and  C_3
REMARK    3  A    between atoms: C_3  and  C_4
REMARK    4  A    between atoms: C_10  and  N_11
REMARK    5  A    between atoms: N_11  and  O_12
REMARK    6  A    between atoms: O_12  and  C_13
REMARK    7  A    between atoms: C_13  and  C_14
REMARK    8  A    between atoms: N_16  and  C_17
REMARK    9  A    between atoms: C_18  and  C_25
REMARK   10  A    between atoms: C_20  and  C_24
REMARK   11  A    between atoms: C_22  and  C_23
REMARK   12  A    between atoms: N_28  and  C_33
REMARK   13  A    between atoms: N_31  and  C_32
REMARK                            x       y       z     vdW  Elec       q    Type
REMARK                         _______ _______ _______ _____ _____    ______ ____
ROOT
ATOM      1  C   UNL     1       0.599   9.285   0.334  0.00  0.00    -0.005 A 
ATOM      2  C   UNL     1       1.760   9.691   0.872  0.00  0.00    +0.090 A 
ATOM      3  N   UNL     1       2.225   9.181   2.055  0.00  0.00    -0.347 N 
ATOM      4  H   UNL     1       3.045   9.686   2.587  0.00  0.00    +0.167 HD
ATOM      5  C   UNL     1       1.704   8.055   2.611  0.00  0.00    +0.129 A 
ATOM      6  C   UNL     1       0.494   7.549   2.145  0.00  0.00    +0.106 A 
ATOM      7  C   UNL     1      -0.186   8.256   1.043  0.00  0.00    +0.082 A 
ATOM      8  C   UNL     1      -0.046   6.382   2.734  0.00  0.00    +0.268 A 
ATOM      9  O   UNL     1      -1.105   5.924   2.345  0.00  0.00    -0.267 OA
ATOM     10  N   UNL     1       0.638   5.783   3.733  0.00  0.00    -0.263 N 
ATOM     11  C   UNL     1       1.804   6.290   4.168  0.00  0.00    +0.333 A 
ATOM     12  O   UNL     1       2.392   5.727   5.072  0.00  0.00    -0.246 OA
ATOM     13  N   UNL     1       2.344   7.400   3.631  0.00  0.00    -0.282 N 
ATOM     14  C   UNL     1       3.620   7.909   4.138  0.00  0.00    +0.155 C 
ATOM     15  C   UNL     1       0.100   4.570   4.353  0.00  0.00    +0.157 C 
ENDROOT
BRANCH   7  16
ATOM     16  N   UNL     1      -1.427   7.983   0.710  0.00  0.00    -0.264 N 
ATOM     17  H   UNL     1      -1.788   8.216  -0.302  0.00  0.00    +0.194 HD
BRANCH  16  18
ATOM     18  O   UNL     1      -2.300   7.390   1.655  0.00  0.00    -0.265 OA
BRANCH  18  19
ATOM     19  C   UNL     1      -3.618   7.149   1.157  0.00  0.00    +0.288 C 
BRANCH  19  20
ATOM     20  C   UNL     1      -4.456   6.520   2.240  0.00  0.00    +0.246 C 
ATOM     21  O   UNL     1      -3.972   6.299   3.330  0.00  0.00    -0.273 OA
ATOM     22  N   UNL     1      -5.743   6.202   1.997  0.00  0.00    -0.283 N 
ATOM     23  H   UNL     1      -6.166   6.351   0.992  0.00  0.00    +0.155 HD
BRANCH  22  24
ATOM     24  C   UNL     1      -6.541   5.684   3.022  0.00  0.00    +0.039 A 
ATOM     25  C   UNL     1      -7.613   6.420   3.509  0.00  0.00    -0.029 A 
ATOM     26  C   UNL     1      -8.404   5.903   4.517  0.00  0.00    +0.008 A 
ATOM     27  C   UNL     1      -8.120   4.659   5.050  0.00  0.00    -0.050 A 
ATOM     28  C   UNL     1      -7.050   3.926   4.572  0.00  0.00    +0.008 A 
ATOM     29  C   UNL     1      -6.260   4.435   3.559  0.00  0.00    -0.029 A 
ATOM     30  C   UNL     1      -5.094   3.635   3.038  0.00  0.00    +0.045 C 
ATOM     31  C   UNL     1      -8.981   4.100   6.154  0.00  0.00    +0.044 C 
ATOM     32  C   UNL     1      -7.918   7.780   2.934  0.00  0.00    +0.045 C 
ENDBRANCH  22  24
ENDBRANCH  19  20
ENDBRANCH  18  19
ENDBRANCH  16  18
ENDBRANCH   7  16
BRANCH   1  33
ATOM     33  C   UNL     1       0.108   9.868  -0.967  0.00  0.00    +0.038 C 
BRANCH  33  35
ATOM     34  C   UNL     1       0.110  11.900  -2.421  0.00  0.00    +0.004 C 
ATOM     35  C   UNL     1       0.608  11.308  -1.101  0.00  0.00    +0.001 C 
ENDBRANCH  33  35
ENDBRANCH   1  33
TORSDOF 7
