REMARK  Name = ZINC02139544
REMARK  6 active torsions:
REMARK  status: ('A' for Active; 'I' for Inactive)
REMARK    1  A    between atoms: C_4  and  C_7
REMARK    2  A    between atoms: C_7  and  N_8
REMARK    3  A    between atoms: C_11  and  C_17
REMARK    4  A    between atoms: C_11  and  C_23
REMARK    5  A    between atoms: C_17  and  C_18
REMARK    6  A    between atoms: C_23  and  N_65
REMARK                            x       y       z     vdW  Elec       q    Type
REMARK                         _______ _______ _______ _____ _____    ______ ____
ROOT
ATOM      1  N   UNL     1       7.577   0.253   2.568  0.00  0.00    -0.221 N 
ATOM      2  C   UNL     1       6.687   0.713   3.472  0.00  0.00    +0.237 C 
ATOM      3  O   UNL     1       6.762   1.841   3.910  0.00  0.00    -0.274 OA
ATOM      4  C   UNL     1       5.588  -0.233   3.920  0.00  0.00    +0.114 C 
ATOM      5  C   UNL     1       5.603  -1.615   3.294  0.00  0.00    +0.234 C 
ATOM      6  O   UNL     1       4.768  -2.445   3.583  0.00  0.00    -0.274 OA
ATOM      7  N   UNL     1       6.577  -1.891   2.407  0.00  0.00    -0.239 N 
ATOM      8  C   UNL     1       7.507  -0.989   2.074  0.00  0.00    +0.315 C 
ATOM      9  O   UNL     1       8.349  -1.320   1.264  0.00  0.00    -0.252 OA
ATOM     10  H   UNL     1       6.606  -2.769   1.996  0.00  0.00    +0.159 HD
ENDROOT
BRANCH   1  11
ATOM     11  C   UNL     1       8.651   1.139   2.113  0.00  0.00    +0.153 C 
BRANCH  11  15
ATOM     12  C   UNL     1      12.050   0.682   4.660  0.00  0.00    +0.000 A 
ATOM     13  C   UNL     1      11.915  -0.113   3.537  0.00  0.00    +0.000 A 
ATOM     14  C   UNL     1      10.816   0.035   2.713  0.00  0.00    +0.005 A 
ATOM     15  C   UNL     1       9.850   0.978   3.012  0.00  0.00    -0.030 A 
ATOM     16  C   UNL     1       9.987   1.776   4.132  0.00  0.00    +0.005 A 
ATOM     17  C   UNL     1      11.084   1.625   4.959  0.00  0.00    +0.000 A 
ENDBRANCH  11  15
ENDBRANCH   1  11
BRANCH   4  18
ATOM     18  C   UNL     1       5.690  -0.396   5.438  0.00  0.00    +0.066 C 
BRANCH  18  19
ATOM     19  C   UNL     1       7.008  -1.036   5.787  0.00  0.00    -0.009 A 
ATOM     20  C   UNL     1       8.198  -0.447   6.058  0.00  0.00    +0.011 A 
ATOM     21  C   UNL     1       9.288  -1.242   6.358  0.00  0.00    +0.008 A 
ATOM     22  C   UNL     1       9.134  -2.589   6.372  0.00  0.00    +0.045 A 
ATOM     23  S   UNL     1       7.406  -2.768   5.960  0.00  0.00    -0.102 S 
ENDBRANCH  18  19
ENDBRANCH   4  18
BRANCH   4  24
ATOM     24  C   UNL     1       4.241   0.419   3.603  0.00  0.00    -0.053 C 
BRANCH  24  38
ATOM     25  C   UNL     1       5.232   0.908   1.451  0.00  0.00    -0.074 C 
ATOM     26  C   UNL     1       4.999   0.981  -0.050  0.00  0.00    -0.007 C 
ATOM     27  C   UNL     1       4.530  -0.372  -0.594  0.00  0.00    +0.011 C 
ATOM     28  C   UNL     1       3.262  -0.765   0.174  0.00  0.00    +0.020 C 
ATOM     29  C   UNL     1       3.627  -0.895   1.662  0.00  0.00    -0.069 C 
ATOM     30  C   UNL     1       2.244   0.346   0.050  0.00  0.00    +0.023 A 
ATOM     31  C   UNL     1       0.931   0.005   0.139  0.00  0.00    +0.022 A 
ATOM     32  C   UNL     1      -0.063   0.990   0.101  0.00  0.00    +0.007 A 
ATOM     33  C   UNL     1       0.310   2.298   0.006  0.00  0.00    +0.070 A 
ATOM     34  C   UNL     1       1.673   2.616  -0.070  0.00  0.00    +0.251 A 
ATOM     35  O   UNL     1       2.020   3.786  -0.089  0.00  0.00    -0.268 OA
ATOM     36  N   UNL     1       2.610   1.637  -0.125  0.00  0.00    -0.312 N 
ATOM     37  C   UNL     1       3.973   2.041  -0.412  0.00  0.00    +0.126 C 
ATOM     38  N   UNL     1       4.011   0.452   2.143  0.00  0.00    +0.381 N 
ATOM     39  H   UNL     1       3.248   1.108   1.941  0.00  0.00    -0.082 HD
ENDBRANCH  24  38
ENDBRANCH   4  24
TORSDOF 6
