REMARK  Name = ZINC01159136
REMARK  9 active torsions:
REMARK  status: ('A' for Active; 'I' for Inactive)
REMARK    1  A    between atoms: C_1  and  C_2
REMARK    2  A    between atoms: C_2  and  O_3
REMARK    3  A    between atoms: O_3  and  C_4
REMARK    4  A    between atoms: C_7  and  C_12
REMARK    5  A    between atoms: C_8  and  O_11
REMARK    6  A    between atoms: C_9  and  C_10
REMARK    7  A    between atoms: C_13  and  O_21
REMARK    8  A    between atoms: C_14  and  C_17
REMARK    9  A    between atoms: O_21  and  C_22
REMARK                            x       y       z     vdW  Elec       q    Type
REMARK                         _______ _______ _______ _____ _____    ______ ____
ROOT
ATOM      1  C   UNL     1       1.103  -6.021  -1.835  0.00  0.00    +0.112 A 
ATOM      2  C   UNL     1       2.268  -6.759  -1.831  0.00  0.00    +0.185 A 
ATOM      3  C   UNL     1       1.920  -8.099  -2.026  0.00  0.00    +0.208 A 
ATOM      4  N   UNL     1       0.619  -8.182  -2.144  0.00  0.00    -0.165 NA
ATOM      5  N   UNL     1       0.072  -6.899  -2.023  0.00  0.00    -0.273 N 
ATOM      6  H   UNL     1      -0.870  -6.673  -2.068  0.00  0.00    +0.189 HD
ENDROOT
BRANCH   1  10
ATOM      7  C   UNL     1       0.777  -1.810  -1.336  0.00  0.00    +0.127 A 
ATOM      8  C   UNL     1       0.241  -2.666  -0.383  0.00  0.00    +0.047 A 
ATOM      9  C   UNL     1       0.344  -4.032  -0.541  0.00  0.00    +0.017 A 
ATOM     10  C   UNL     1       0.989  -4.557  -1.662  0.00  0.00    +0.045 A 
ATOM     11  C   UNL     1       1.528  -3.692  -2.622  0.00  0.00    +0.132 A 
ATOM     12  C   UNL     1       1.415  -2.323  -2.456  0.00  0.00    +0.033 A 
ATOM     13  C   UNL     1       1.989  -1.389  -3.490  0.00  0.00    +0.051 C 
BRANCH  11  14
ATOM     14  O   UNL     1       2.158  -4.196  -3.716  0.00  0.00    -0.506 OA
ATOM     15  H   UNL     1       1.572  -4.349  -4.471  0.00  0.00    +0.292 HD
ENDBRANCH  11  14
BRANCH   7  16
ATOM     16  O   UNL     1       0.671  -0.465  -1.174  0.00  0.00    -0.492 OA
BRANCH  16  18
ATOM     17  C   UNL     1      -0.019   1.526   0.010  0.00  0.00    +0.048 C 
ATOM     18  C   UNL     1       0.002  -0.004   0.002  0.00  0.00    +0.225 C 
ENDBRANCH  16  18
ENDBRANCH   7  16
ENDBRANCH   1  10
BRANCH   3  19
ATOM     19  C   UNL     1       2.883  -9.256  -2.092  0.00  0.00    +0.439 C 
ATOM     20  F   UNL     1       3.075  -9.777  -0.807  0.00  0.00    -0.164 F 
ATOM     21  F   UNL     1       2.361 -10.251  -2.925  0.00  0.00    -0.164 F 
ATOM     22  F   UNL     1       4.109  -8.815  -2.603  0.00  0.00    -0.164 F 
ENDBRANCH   3  19
BRANCH   2  23
ATOM     23  O   UNL     1       3.529  -6.271  -1.667  0.00  0.00    -0.452 OA
BRANCH  23  24
ATOM     24  C   UNL     1       4.022  -6.190  -0.403  0.00  0.00    +0.129 A 
ATOM     25  C   UNL     1       3.248  -6.602   0.673  0.00  0.00    +0.046 A 
ATOM     26  C   UNL     1       3.752  -6.518   1.956  0.00  0.00    +0.004 A 
ATOM     27  C   UNL     1       5.026  -6.024   2.169  0.00  0.00    +0.000 A 
ATOM     28  C   UNL     1       5.798  -5.611   1.099  0.00  0.00    +0.004 A 
ATOM     29  C   UNL     1       5.301  -5.699  -0.187  0.00  0.00    +0.046 A 
ENDBRANCH  23  24
ENDBRANCH   2  23
TORSDOF 7
