REMARK  Name = ZINC40361828
REMARK  3 active torsions:
REMARK  status: ('A' for Active; 'I' for Inactive)
REMARK    1  A    between atoms: C_4  and  N_8
REMARK    2  A    between atoms: N_11  and  C_12
REMARK    3  A    between atoms: C_12  and  C_19
REMARK                            x       y       z     vdW  Elec       q    Type
REMARK                         _______ _______ _______ _____ _____    ______ ____
ROOT
ATOM      1  N   UNL     1       3.623  -0.652  -0.037  0.00  0.00    -0.268 N 
ATOM      2  C   UNL     1       3.646  -1.996   0.057  0.00  0.00    +0.305 C 
ATOM      3  O   UNL     1       2.604  -2.623   0.065  0.00  0.00    -0.252 OA
ATOM      4  N   UNL     1       4.824  -2.646   0.143  0.00  0.00    -0.281 N 
ATOM      5  H   UNL     1       4.453  -0.158  -0.126  0.00  0.00    +0.156 HD
ATOM      6  H   UNL     1       5.655  -2.145   0.137  0.00  0.00    +0.152 HD
ENDROOT
BRANCH   1  10
ATOM      7  C   UNL     1      -0.015   1.381   0.049  0.00  0.00    +0.021 A 
ATOM      8  C   UNL     1       1.082   1.956  -0.567  0.00  0.00    +0.023 A 
ATOM      9  C   UNL     1       2.290   1.285  -0.597  0.00  0.00    +0.062 A 
ATOM     10  C   UNL     1       2.401   0.031  -0.008  0.00  0.00    +0.055 A 
ATOM     11  C   UNL     1       1.298  -0.543   0.610  0.00  0.00    +0.044 A 
ATOM     12  C   UNL     1       0.093   0.134   0.636  0.00  0.00    +0.043 A 
ATOM     13 CL   UNL     1      -1.287  -0.583   1.408  0.00  0.00    -0.083 Cl
ATOM     14 CL   UNL     1       3.666   2.006  -1.371  0.00  0.00    -0.082 Cl
ENDBRANCH   1  10
BRANCH   4  15
ATOM     15  C   UNL     1       4.849  -4.107   0.246  0.00  0.00    +0.122 C 
ATOM     16  C   UNL     1       4.213  -4.710  -0.977  0.00  0.00    +0.041 C 
ATOM     17  C   UNL     1       3.458  -6.016  -0.665  0.00  0.00    +0.003 C 
ATOM     18  C   UNL     1       4.222  -6.930   0.312  0.00  0.00    +0.000 C 
ATOM     19  C   UNL     1       5.695  -6.989   0.012  0.00  0.00    +0.000 C 
ATOM     20  C   UNL     1       6.415  -5.938   0.882  0.00  0.00    +0.003 C 
ATOM     21  C   UNL     1       6.310  -4.595   0.330  0.00  0.00    +0.041 C 
BRANCH  15  22
ATOM     22  C   UNL     1       4.116  -4.531   1.449  0.00  0.00    +0.088 C 
ATOM     23  N   UNL     1       3.550  -4.858   2.378  0.00  0.00    -0.194 NA
ENDBRANCH  15  22
ENDBRANCH   4  15
TORSDOF 3
