REMARK  Name = ZINC35271065
REMARK  4 active torsions:
REMARK  status: ('A' for Active; 'I' for Inactive)
REMARK    1  A    between atoms: C_1  and  C_2
REMARK    2  A    between atoms: C_2  and  C_34
REMARK    3  A    between atoms: C_19  and  C_20
REMARK    4  A    between atoms: C_19  and  C_21
REMARK                            x       y       z     vdW  Elec       q    Type
REMARK                         _______ _______ _______ _____ _____    ______ ____
ROOT
ATOM      1  C   UNL     1       0.432   1.758   1.518  0.00  0.00    +0.060 C 
ATOM      2  C   UNL     1       0.430   0.245   1.287  0.00  0.00    +0.124 C 
ATOM      3  C   UNL     1      -0.980  -0.214   1.021  0.00  0.00    +0.020 C 
ATOM      4  C   UNL     1      -1.342  -1.457   1.340  0.00  0.00    +0.013 C 
ATOM      5  C   UNL     1      -0.331  -2.331   1.960  0.00  0.00    +0.038 A 
ATOM      6  C   UNL     1       0.828  -1.756   2.509  0.00  0.00    +0.131 A 
ATOM      7  C   UNL     1       1.807  -2.539   3.104  0.00  0.00    +0.047 A 
ATOM      8  C   UNL     1       1.688  -3.914   3.184  0.00  0.00    +0.017 A 
ATOM      9  C   UNL     1       0.535  -4.503   2.639  0.00  0.00    +0.041 A 
ATOM     10  C   UNL     1      -0.477  -3.720   2.028  0.00  0.00    +0.049 A 
ATOM     11  N   UNL     1      -1.503  -4.512   1.573  0.00  0.00    -0.330 N 
ATOM     12  C   UNL     1      -1.189  -5.906   1.875  0.00  0.00    +0.103 C 
ATOM     13  C   UNL     1       0.145  -5.906   2.578  0.00  0.00    +0.189 C 
ATOM     14  O   UNL     1       0.759  -6.864   2.999  0.00  0.00    -0.290 OA
ATOM     15  C   UNL     1      -1.117  -6.742   0.576  0.00  0.00    +0.070 C 
ATOM     16  C   UNL     1      -2.490  -7.392   0.520  0.00  0.00    +0.117 C 
ATOM     17  C   UNL     1      -2.749  -7.772   2.003  0.00  0.00    +0.032 C 
ATOM     18  C   UNL     1      -2.277  -6.538   2.766  0.00  0.00    -0.001 C 
ATOM     19  C   UNL     1      -1.687  -6.942   4.119  0.00  0.00    +0.014 C 
ATOM     20  C   UNL     1      -3.437  -5.559   2.962  0.00  0.00    +0.014 C 
ATOM     21  C   UNL     1      -4.204  -8.161   2.186  0.00  0.00    +0.042 C 
ATOM     22  C   UNL     1      -4.825  -8.283   0.786  0.00  0.00    +0.114 C 
ATOM     23  C   UNL     1      -6.194  -8.934   0.783  0.00  0.00    +0.037 C 
ATOM     24  C   UNL     1      -6.151  -9.861  -0.467  0.00  0.00    +0.022 C 
ATOM     25  C   UNL     1      -4.656 -10.289  -0.505  0.00  0.00    +0.109 C 
ATOM     26  N   UNL     1      -3.928  -9.118  -0.056  0.00  0.00    -0.285 N 
ATOM     27  C   UNL     1      -2.633  -8.672  -0.271  0.00  0.00    +0.240 C 
ATOM     28  O   UNL     1      -1.784  -9.191  -0.963  0.00  0.00    -0.273 OA
ATOM     29  C   UNL     1      -4.805  -6.892   0.177  0.00  0.00    +0.238 C 
ATOM     30  O   UNL     1      -5.789  -6.280  -0.180  0.00  0.00    -0.273 OA
ATOM     31  N   UNL     1      -3.520  -6.434   0.082  0.00  0.00    -0.299 N 
ATOM     32  O   UNL     1       0.964  -0.406   2.439  0.00  0.00    -0.482 OA
ATOM     33  C   UNL     1       1.303  -0.081   0.074  0.00  0.00    +0.060 C 
ATOM     34  H   UNL     1      -2.304  -4.197   1.126  0.00  0.00    +0.147 HD
ATOM     35  H   UNL     1      -3.311  -5.542  -0.239  0.00  0.00    +0.150 HD
ENDROOT
TORSDOF 0
