REMARK  Name = ZINC49510320
REMARK  3 active torsions:
REMARK  status: ('A' for Active; 'I' for Inactive)
REMARK    1  A    between atoms: C_1  and  C_2
REMARK    2  A    between atoms: C_2  and  C_4
REMARK    3  A    between atoms: C_2  and  N_11
REMARK                            x       y       z     vdW  Elec       q    Type
REMARK                         _______ _______ _______ _____ _____    ______ ____
ROOT
ATOM      1  N   UNL     1       1.916  -0.311   0.724  0.00  0.00    -0.304 N 
ATOM      2  C   UNL     1       1.990  -1.646   1.085  0.00  0.00    +0.089 A 
ATOM      3  C   UNL     1       1.767  -1.689   2.471  0.00  0.00    +0.092 A 
ATOM      4  C   UNL     1       1.781  -2.920   3.133  0.00  0.00    +0.030 A 
ATOM      5  C   UNL     1       2.013  -4.076   2.422  0.00  0.00    +0.004 A 
ATOM      6  C   UNL     1       2.233  -4.029   1.053  0.00  0.00    +0.022 A 
ATOM      7  C   UNL     1       2.223  -2.821   0.385  0.00  0.00    +0.067 A 
ATOM      8 CL   UNL     1       2.499  -2.772  -1.328  0.00  0.00    -0.081 Cl
ATOM      9  N   UNL     1       1.571  -0.409   2.885  0.00  0.00    -0.215 NA
ATOM     10  C   UNL     1       1.663   0.402   1.861  0.00  0.00    +0.195 A 
ATOM     11  N   UNL     1       1.523   1.773   1.921  0.00  0.00    -0.329 N 
ATOM     12  H   UNL     1       0.961   2.232   1.278  0.00  0.00    +0.145 HD
ATOM     13  H   UNL     1       1.986   2.278   2.608  0.00  0.00    +0.145 HD
ENDROOT
BRANCH   1  15
ATOM     14  C   UNL     1       1.167   1.448  -0.802  0.00  0.00    +0.036 C 
ATOM     15  C   UNL     1       2.083   0.235  -0.625  0.00  0.00    +0.119 C 
BRANCH  15  16
ATOM     16  C   UNL     1       3.517   0.656  -0.822  0.00  0.00    -0.007 A 
ATOM     17  C   UNL     1       4.152   1.420   0.140  0.00  0.00    +0.007 A 
ATOM     18  C   UNL     1       5.466   1.806  -0.041  0.00  0.00    +0.000 A 
ATOM     19  C   UNL     1       6.147   1.429  -1.183  0.00  0.00    +0.001 A 
ATOM     20  C   UNL     1       5.514   0.666  -2.146  0.00  0.00    +0.020 A 
ATOM     21  C   UNL     1       4.199   0.274  -1.963  0.00  0.00    +0.046 A 
ATOM     22 CL   UNL     1       3.405  -0.690  -3.168  0.00  0.00    -0.083 Cl
ENDBRANCH  15  16
ENDBRANCH   1  15
TORSDOF 2
