REMARK  Name = ZINC20238884
REMARK  9 active torsions:
REMARK  status: ('A' for Active; 'I' for Inactive)
REMARK    1  A    between atoms: C_4  and  O_7
REMARK    2  A    between atoms: O_7  and  C_8
REMARK    3  A    between atoms: C_8  and  C_9
REMARK    4  A    between atoms: C_9  and  S_10
REMARK    5  A    between atoms: S_10  and  C_11
REMARK    6  A    between atoms: C_17  and  C_18
REMARK    7  A    between atoms: C_21  and  S_23
REMARK    8  A    between atoms: S_23  and  C_24
REMARK    9  A    between atoms: C_24  and  C_25
REMARK                            x       y       z     vdW  Elec       q    Type
REMARK                         _______ _______ _______ _____ _____    ______ ____
ROOT
ATOM      1  C   UNL     1       6.535  -5.113  -1.787  0.00  0.00    +0.156 C 
ATOM      2  N   UNL     1       7.539  -4.343  -1.446  0.00  0.00    -0.158 NA
ATOM      3  N   UNL     1       8.771  -4.878  -1.136  0.00  0.00    -0.151 N 
ATOM      4  C   UNL     1       9.888  -4.155  -0.669  0.00  0.00    +0.153 C 
ATOM      5  N   UNL     1       9.794  -2.990  -0.076  0.00  0.00    -0.283 NA
ATOM      6  C   UNL     1      11.181  -4.843  -0.913  0.00  0.00    +0.084 C 
ATOM      7  C   UNL     1      12.350  -4.134  -1.179  0.00  0.00    +0.063 C 
ATOM      8  C   UNL     1      11.163  -6.321  -0.860  0.00  0.00    +0.273 C 
ATOM      9  O   UNL     1      12.174  -6.952  -0.593  0.00  0.00    -0.268 OA
ATOM     10  N   UNL     1       9.998  -6.951  -1.115  0.00  0.00    -0.152 NA
ATOM     11  C   UNL     1       8.909  -6.242  -1.270  0.00  0.00    +0.181 C 
ATOM     12  S   UNL     1       7.265  -6.743  -1.708  0.00  0.00    -0.027 S 
ATOM     13  H   UNL     1       8.924  -2.584   0.059  0.00  0.00    +0.188 HD
ENDROOT
BRANCH   7  14
ATOM     14  C   UNL     1      12.295  -2.755  -1.399  0.00  0.00    +0.130 A 
ATOM     15  C   UNL     1      13.388  -1.907  -1.540  0.00  0.00    +0.050 A 
ATOM     16  C   UNL     1      12.880  -0.628  -1.743  0.00  0.00    +0.057 A 
ATOM     17  C   UNL     1      11.504  -0.729  -1.720  0.00  0.00    +0.162 A 
ATOM     18  O   UNL     1      11.170  -2.014  -1.519  0.00  0.00    -0.449 OA
BRANCH  17  19
ATOM     19  S   UNL     1      10.372   0.606  -1.928  0.00  0.00    -0.080 S 
BRANCH  19  20
ATOM     20  C   UNL     1       8.741  -0.177  -1.795  0.00  0.00    +0.151 C 
BRANCH  20  21
ATOM     21  C   UNL     1       7.668   0.868  -1.957  0.00  0.00    +0.115 A 
ATOM     22  C   UNL     1       7.099   1.238  -3.118  0.00  0.00    +0.045 A 
ATOM     23  C   UNL     1       6.150   2.240  -2.809  0.00  0.00    +0.041 A 
ATOM     24  C   UNL     1       6.196   2.422  -1.477  0.00  0.00    +0.195 A 
ATOM     25  O   UNL     1       7.113   1.585  -0.966  0.00  0.00    -0.467 OA
ENDBRANCH  20  21
ENDBRANCH  19  20
ENDBRANCH  17  19
ENDBRANCH   7  14
BRANCH   1  26
ATOM     26  S   UNL     1       4.886  -4.659  -2.209  0.00  0.00    -0.094 S 
BRANCH  26  27
ATOM     27  C   UNL     1       4.881  -2.850  -2.074  0.00  0.00    +0.117 C 
BRANCH  27  28
ATOM     28  C   UNL     1       3.489  -2.317  -2.419  0.00  0.00    +0.240 C 
BRANCH  28  29
ATOM     29  O   UNL     1       3.485  -0.892  -2.312  0.00  0.00    -0.491 OA
BRANCH  29  33
ATOM     30  C   UNL     1      -0.063   1.039  -3.150  0.00  0.00    +0.000 A 
ATOM     31  C   UNL     1       1.051   1.771  -2.785  0.00  0.00    +0.004 A 
ATOM     32  C   UNL     1       2.241   1.127  -2.504  0.00  0.00    +0.045 A 
ATOM     33  C   UNL     1       2.316  -0.256  -2.588  0.00  0.00    +0.121 A 
ATOM     34  C   UNL     1       1.196  -0.988  -2.954  0.00  0.00    +0.045 A 
ATOM     35  C   UNL     1       0.009  -0.339  -3.234  0.00  0.00    +0.004 A 
ENDBRANCH  29  33
ENDBRANCH  28  29
ENDBRANCH  27  28
ENDBRANCH  26  27
ENDBRANCH   1  26
TORSDOF 9
