REMARK  Name = ZINC64871127
REMARK  7 active torsions:
REMARK  status: ('A' for Active; 'I' for Inactive)
REMARK    1  A    between atoms: C_1  and  C_2
REMARK    2  A    between atoms: C_2  and  O_3
REMARK    3  A    between atoms: O_3  and  C_4
REMARK    4  A    between atoms: C_8  and  C_10
REMARK    5  A    between atoms: C_13  and  C_17
REMARK    6  A    between atoms: N_27  and  C_30
REMARK    7  A    between atoms: C_30  and  C_31
REMARK                            x       y       z     vdW  Elec       q    Type
REMARK                         _______ _______ _______ _____ _____    ______ ____
ROOT
ATOM      1  C   UNL     1       4.308  -6.756   5.045  0.00  0.00    -0.000 A 
ATOM      2  C   UNL     1       3.144  -7.266   5.598  0.00  0.00    +0.008 A 
ATOM      3  C   UNL     1       3.191  -8.351   6.449  0.00  0.00    +0.016 A 
ATOM      4  C   UNL     1       4.420  -8.932   6.751  0.00  0.00    +0.063 A 
ATOM      5  C   UNL     1       5.600  -8.415   6.190  0.00  0.00    +0.056 A 
ATOM      6  C   UNL     1       5.532  -7.327   5.332  0.00  0.00    +0.034 A 
ATOM      7  N   UNL     1       6.810  -9.015   6.509  0.00  0.00    -0.307 N 
ATOM      8  H   UNL     1       7.633  -8.668   6.129  0.00  0.00    +0.170 HD
ATOM      9  C   UNL     1       6.853 -10.071   7.338  0.00  0.00    +0.330 A 
ATOM     10  O   UNL     1       7.933 -10.568   7.592  0.00  0.00    -0.246 OA
ATOM     11  N   UNL     1       5.755 -10.602   7.898  0.00  0.00    -0.256 N 
ATOM     12  C   UNL     1       4.527 -10.092   7.654  0.00  0.00    +0.265 A 
ATOM     13  O   UNL     1       3.537 -10.579   8.165  0.00  0.00    -0.267 OA
ENDROOT
BRANCH   1  16
ATOM     14  C   UNL     1       2.275  -4.298   3.754  0.00  0.00    +0.180 C 
ATOM     15  N   UNL     1       2.946  -5.571   3.401  0.00  0.00    -0.265 NA
ATOM     16  C   UNL     1       4.237  -5.571   4.117  0.00  0.00    +0.242 C 
ATOM     17  O   UNL     1       4.305  -4.348   4.874  0.00  0.00    -0.274 OA
ATOM     18  N   UNL     1       3.394  -3.413   4.173  0.00  0.00    -0.177 NA
ATOM     19  H   UNL     1       2.383  -6.363   3.670  0.00  0.00    +0.127 HD
ATOM     20  H   UNL     1       3.848  -3.000   3.372  0.00  0.00    +0.156 HD
BRANCH  14  25
ATOM     21  C   UNL     1       0.802  -1.824   1.306  0.00  0.00    +0.121 A 
ATOM     22  C   UNL     1       0.260  -2.673   0.351  0.00  0.00    +0.045 A 
ATOM     23  C   UNL     1       0.372  -4.041   0.501  0.00  0.00    +0.004 A 
ATOM     24  C   UNL     1       1.024  -4.566   1.602  0.00  0.00    +0.007 A 
ATOM     25  C   UNL     1       1.565  -3.723   2.555  0.00  0.00    -0.011 A 
ATOM     26  C   UNL     1       1.460  -2.353   2.406  0.00  0.00    +0.052 A 
BRANCH  21  27
ATOM     27  O   UNL     1       0.693  -0.477   1.160  0.00  0.00    -0.492 OA
BRANCH  27  29
ATOM     28  C   UNL     1      -0.019   1.526   0.010  0.00  0.00    +0.048 C 
ATOM     29  C   UNL     1       0.002  -0.004   0.002  0.00  0.00    +0.225 C 
ENDBRANCH  27  29
ENDBRANCH  21  27
ENDBRANCH  14  25
ENDBRANCH   1  16
BRANCH  11  30
ATOM     30  C   UNL     1       5.889 -11.755   8.792  0.00  0.00    +0.165 C 
BRANCH  30  31
ATOM     31  C   UNL     1       6.078 -11.274  10.208  0.00  0.00    -0.026 A 
ATOM     32  C   UNL     1       7.350 -11.035  10.693  0.00  0.00    +0.005 A 
ATOM     33  C   UNL     1       7.524 -10.594  11.991  0.00  0.00    +0.002 A 
ATOM     34  C   UNL     1       6.426 -10.391  12.806  0.00  0.00    +0.020 A 
ATOM     35  C   UNL     1       5.152 -10.630  12.321  0.00  0.00    +0.041 A 
ATOM     36  C   UNL     1       4.979 -11.066  11.019  0.00  0.00    +0.025 A 
ATOM     37 CL   UNL     1       3.773 -10.375  13.343  0.00  0.00    -0.084 Cl
ENDBRANCH  30  31
ENDBRANCH  11  30
TORSDOF 6
