REMARK  Name = ZINC39668468
REMARK  9 active torsions:
REMARK  status: ('A' for Active; 'I' for Inactive)
REMARK    1  A    between atoms: C_1  and  C_2
REMARK    2  A    between atoms: C_2  and  C_4
REMARK    3  A    between atoms: C_2  and  O_29
REMARK    4  A    between atoms: C_4  and  N_5
REMARK    5  A    between atoms: C_6  and  C_8
REMARK    6  A    between atoms: C_19  and  C_21
REMARK    7  A    between atoms: C_26  and  O_27
REMARK    8  A    between atoms: O_27  and  C_28
REMARK    9  A    between atoms: O_29  and  C_30
REMARK                            x       y       z     vdW  Elec       q    Type
REMARK                         _______ _______ _______ _____ _____    ______ ____
ROOT
ATOM      1  C   UNL     1      -2.537  -3.875   0.615  0.00  0.00    +0.100 C 
ATOM      2  C   UNL     1      -1.758  -4.190  -0.682  0.00  0.00    +0.121 C 
ATOM      3  N   UNL     1      -2.418  -5.398  -1.230  0.00  0.00    -0.296 N 
ATOM      4  C   UNL     1      -3.862  -5.175  -0.981  0.00  0.00    +0.115 C 
ATOM      5  C   UNL     1      -3.917  -4.522   0.414  0.00  0.00    -0.004 C 
ATOM      6  C   UNL     1      -5.010  -3.458   0.456  0.00  0.00    -0.010 C 
ATOM      7  C   UNL     1      -6.378  -4.132   0.312  0.00  0.00    -0.082 C 
ATOM      8  N   UNL     1      -6.566  -5.099   1.401  0.00  0.00    +0.379 N 
ATOM      9  C   UNL     1      -5.567  -6.169   1.298  0.00  0.00    -0.082 C 
ATOM     10  C   UNL     1      -4.165  -5.582   1.483  0.00  0.00    -0.010 C 
ATOM     11  C   UNL     1      -1.837  -6.461  -1.821  0.00  0.00    +0.250 C 
ATOM     12  O   UNL     1      -0.624  -6.539  -1.874  0.00  0.00    -0.270 OA
ATOM     13  H   UNL     1      -6.463  -4.629   2.288  0.00  0.00    -0.086 HD
ATOM     14  H   UNL     1      -7.491  -5.497   1.340  0.00  0.00    -0.086 HD
ENDROOT
BRANCH  11  15
ATOM     15  C   UNL     1      -2.671  -7.529  -2.405  0.00  0.00    +0.078 A 
ATOM     16  C   UNL     1      -3.893  -7.216  -3.006  0.00  0.00    +0.017 A 
ATOM     17  C   UNL     1      -4.667  -8.218  -3.549  0.00  0.00    +0.001 A 
ATOM     18  C   UNL     1      -4.240  -9.535  -3.503  0.00  0.00    +0.004 A 
ATOM     19  C   UNL     1      -3.034  -9.858  -2.912  0.00  0.00    +0.046 A 
ATOM     20  C   UNL     1      -2.239  -8.861  -2.365  0.00  0.00    +0.132 A 
BRANCH  20  21
ATOM     21  O   UNL     1      -1.052  -9.176  -1.788  0.00  0.00    -0.494 OA
ATOM     22  C   UNL     1      -0.679 -10.556  -1.785  0.00  0.00    +0.277 C 
ENDBRANCH  20  21
ENDBRANCH  11  15
BRANCH   1  24
ATOM     23  N   UNL     1      -2.754  -1.860   2.033  0.00  0.00    -0.312 N 
ATOM     24  C   UNL     1      -2.676  -2.385   0.794  0.00  0.00    +0.218 C 
ATOM     25  O   UNL     1      -2.719  -1.659  -0.176  0.00  0.00    -0.275 OA
ATOM     26  H   UNL     1      -2.721  -2.441   2.809  0.00  0.00    +0.149 HD
BRANCH  23  27
ATOM     27  C   UNL     1      -2.890  -0.411   2.207  0.00  0.00    +0.148 C 
BRANCH  27  29
ATOM     28  C   UNL     1      -3.223   1.415   3.880  0.00  0.00    +0.053 C 
ATOM     29  C   UNL     1      -2.957  -0.081   3.700  0.00  0.00    +0.187 C 
BRANCH  29  30
ATOM     30  O   UNL     1      -1.714  -0.422   4.319  0.00  0.00    -0.486 OA
BRANCH  30  31
ATOM     31  C   UNL     1      -1.739  -0.672   5.654  0.00  0.00    +0.139 A 
ATOM     32  C   UNL     1      -2.942  -0.661   6.352  0.00  0.00    +0.049 A 
ATOM     33  C   UNL     1      -2.917  -0.922   7.713  0.00  0.00    +0.023 A 
ATOM     34  C   UNL     1      -1.706  -1.183   8.327  0.00  0.00    +0.111 A 
ATOM     35  N   UNL     1      -0.583  -1.186   7.636  0.00  0.00    -0.260 NA
ATOM     36  C   UNL     1      -0.565  -0.948   6.340  0.00  0.00    +0.156 A 
ENDBRANCH  30  31
ENDBRANCH  29  30
ENDBRANCH  27  29
ENDBRANCH  23  27
ENDBRANCH   1  24
TORSDOF 7
