REMARK  Name = ZINC59331426
REMARK  10 active torsions:
REMARK  status: ('A' for Active; 'I' for Inactive)
REMARK    1  A    between atoms: C_1  and  C_2
REMARK    2  A    between atoms: C_2  and  O_3
REMARK    3  A    between atoms: O_3  and  C_4
REMARK    4  A    between atoms: C_4  and  C_6
REMARK    5  A    between atoms: C_10  and  N_11
REMARK    6  A    between atoms: N_11  and  C_12
REMARK    7  A    between atoms: C_12  and  N_14
REMARK    8  A    between atoms: C_15  and  C_17
REMARK    9  A    between atoms: C_20  and  N_26
REMARK   10  A    between atoms: C_21  and  N_23
REMARK                            x       y       z     vdW  Elec       q    Type
REMARK                         _______ _______ _______ _____ _____    ______ ____
ROOT
ATOM      1  N   UNL     1      -2.434  -2.618  -5.364  0.00  0.00    -0.264 N 
ATOM      2  C   UNL     1      -2.949  -2.946  -6.565  0.00  0.00    +0.250 C 
ATOM      3  O   UNL     1      -2.225  -3.389  -7.436  0.00  0.00    -0.270 OA
ATOM      4  H   UNL     1      -3.011  -2.264  -4.669  0.00  0.00    +0.157 HD
ENDROOT
BRANCH   2   5
ATOM      5  C   UNL     1      -4.389  -2.766  -6.824  0.00  0.00    +0.039 A 
ATOM      6  C   UNL     1      -5.221  -2.251  -5.826  0.00  0.00    +0.015 A 
ATOM      7  C   UNL     1      -6.556  -2.085  -6.066  0.00  0.00    +0.026 A 
ATOM      8  C   UNL     1      -7.092  -2.427  -7.305  0.00  0.00    +0.060 A 
ATOM      9  C   UNL     1      -6.271  -2.941  -8.305  0.00  0.00    +0.148 A 
ATOM     10  C   UNL     1      -4.924  -3.106  -8.071  0.00  0.00    +0.047 A 
BRANCH   8  11
ATOM     11  N   UNL     1      -8.451  -2.256  -7.543  0.00  0.00    -0.328 N 
ATOM     12  C   UNL     1      -9.405  -3.333  -7.246  0.00  0.00    +0.105 C 
ATOM     13  C   UNL     1     -10.508  -2.779  -6.340  0.00  0.00    +0.019 C 
ATOM     14  C   UNL     1     -11.135  -1.549  -7.001  0.00  0.00    +0.003 C 
ATOM     15  C   UNL     1     -10.069  -0.466  -7.182  0.00  0.00    +0.019 C 
ATOM     16  C   UNL     1      -8.961  -0.992  -8.092  0.00  0.00    +0.105 C 
ENDBRANCH   8  11
BRANCH   9  17
ATOM     17  N   UNL     1      -6.844  -3.305  -9.620  0.00  0.00    +0.058 N 
ATOM     18  O   UNL     1      -6.130  -3.752 -10.488  0.00  0.00    -0.126 OA
ATOM     19  O   UNL     1      -8.026  -3.157  -9.826  0.00  0.00    -0.126 OA
ENDBRANCH   9  17
ENDBRANCH   2   5
BRANCH   1  20
ATOM     20  C   UNL     1      -1.117  -2.783  -5.127  0.00  0.00    +0.141 C 
ATOM     21  S   UNL     1      -0.099  -3.407  -6.353  0.00  0.00    -0.018 S 
BRANCH  20  22
ATOM     22  N   UNL     1      -0.603  -2.455  -3.925  0.00  0.00    -0.290 N 
ATOM     23  H   UNL     1      -1.180  -2.101  -3.230  0.00  0.00    +0.154 HD
BRANCH  22  28
ATOM     24  C   UNL     1       1.449  -2.344  -2.516  0.00  0.00    +0.091 A 
ATOM     25  C   UNL     1       2.876  -2.619  -2.515  0.00  0.00    -0.021 A 
ATOM     26  C   UNL     1       3.342  -3.118  -3.680  0.00  0.00    -0.004 A 
ATOM     27  S   UNL     1       1.922  -3.213  -4.730  0.00  0.00    -0.077 S 
ATOM     28  C   UNL     1       0.750  -2.624  -3.681  0.00  0.00    +0.086 A 
ATOM     29  C   UNL     1       4.756  -3.499  -3.993  0.00  0.00    +0.043 C 
ATOM     30  C   UNL     1       5.669  -2.888  -2.920  0.00  0.00    +0.005 C 
ATOM     31  C   UNL     1       5.082  -3.190  -1.538  0.00  0.00    +0.005 C 
ATOM     32  C   UNL     1       3.799  -2.383  -1.329  0.00  0.00    +0.037 C 
BRANCH  24  33
ATOM     33  C   UNL     1       0.776  -1.800  -1.335  0.00  0.00    +0.342 C 
ATOM     34  O   UNL     1       0.312  -2.552  -0.499  0.00  0.00    -0.245 OA
BRANCH  33  35
ATOM     35  O   UNL     1       0.671  -0.465  -1.174  0.00  0.00    -0.461 OA
BRANCH  35  37
ATOM     36  C   UNL     1      -0.019   1.526   0.010  0.00  0.00    +0.048 C 
ATOM     37  C   UNL     1       0.002  -0.004   0.002  0.00  0.00    +0.229 C 
ENDBRANCH  35  37
ENDBRANCH  33  35
ENDBRANCH  24  33
ENDBRANCH  22  28
ENDBRANCH  20  22
ENDBRANCH   1  20
TORSDOF 9
