REMARK  Name = ZINC33793365
REMARK  8 active torsions:
REMARK  status: ('A' for Active; 'I' for Inactive)
REMARK    1  A    between atoms: C_1  and  C_2
REMARK    2  A    between atoms: C_5  and  C_33
REMARK    3  A    between atoms: C_6  and  C_8
REMARK    4  A    between atoms: C_8  and  S_9
REMARK    5  A    between atoms: S_9  and  C_10
REMARK    6  A    between atoms: N_24  and  C_25
REMARK    7  A    between atoms: C_27  and  C_32
REMARK    8  A    between atoms: C_29  and  C_31
REMARK                            x       y       z     vdW  Elec       q    Type
REMARK                         _______ _______ _______ _____ _____    ______ ____
ROOT
ATOM      1  C   UNL     1       2.890   3.708   0.493  0.00  0.00    +0.177 A 
ATOM      2  N   UNL     1       1.604   3.976   0.523  0.00  0.00    -0.221 NA
ATOM      3  C   UNL     1       0.703   3.099   0.052  0.00  0.00    +0.104 A 
ATOM      4  C   UNL     1      -0.763   3.109  -0.050  0.00  0.00    +0.026 A 
ATOM      5  C   UNL     1      -1.745   4.035   0.306  0.00  0.00    +0.012 A 
ATOM      6  C   UNL     1      -3.063   3.751   0.079  0.00  0.00    +0.001 A 
ATOM      7  C   UNL     1      -3.433   2.547  -0.504  0.00  0.00    +0.002 A 
ATOM      8  C   UNL     1      -2.480   1.619  -0.863  0.00  0.00    +0.026 A 
ATOM      9  C   UNL     1      -1.131   1.890  -0.645  0.00  0.00    +0.049 A 
ATOM     10  N   UNL     1       0.016   1.165  -0.891  0.00  0.00    -0.349 N 
ATOM     11  H   UNL     1      -0.051   0.169  -1.352  0.00  0.00    +0.166 HD
ATOM     12  C   UNL     1       1.128   1.883  -0.479  0.00  0.00    +0.132 A 
ATOM     13  C   UNL     1       2.511   1.607  -0.505  0.00  0.00    +0.283 A 
ATOM     14  O   UNL     1       2.928   0.555  -0.960  0.00  0.00    -0.265 OA
ATOM     15  N   UNL     1       3.364   2.532  -0.015  0.00  0.00    -0.254 N 
ENDROOT
BRANCH  15  16
ATOM     16  C   UNL     1       4.743   2.285  -0.029  0.00  0.00    +0.052 A 
ATOM     17  C   UNL     1       5.349   1.662   1.054  0.00  0.00    +0.029 A 
ATOM     18  C   UNL     1       6.708   1.415   1.036  0.00  0.00    -0.048 A 
ATOM     19  C   UNL     1       7.466   1.797  -0.056  0.00  0.00    +0.006 A 
ATOM     20  C   UNL     1       6.867   2.422  -1.133  0.00  0.00    -0.048 A 
ATOM     21  C   UNL     1       5.508   2.667  -1.123  0.00  0.00    +0.029 A 
ATOM     22  C   UNL     1       7.697   2.837  -2.321  0.00  0.00    +0.044 C 
ATOM     23  C   UNL     1       7.365   0.734   2.208  0.00  0.00    +0.044 C 
ENDBRANCH  15  16
BRANCH   1  24
ATOM     24  S   UNL     1       4.030   4.894   1.125  0.00  0.00    -0.083 S 
BRANCH  24  25
ATOM     25  C   UNL     1       2.880   6.193   1.640  0.00  0.00    +0.112 C 
BRANCH  25  31
ATOM     26  C   UNL     1       5.270  10.552   1.066  0.00  0.00    +0.044 C 
ATOM     27  C   UNL     1       4.797   9.430   1.954  0.00  0.00    -0.050 A 
ATOM     28  C   UNL     1       5.072   9.457   3.309  0.00  0.00    +0.003 A 
ATOM     29  C   UNL     1       4.638   8.428   4.123  0.00  0.00    +0.004 A 
ATOM     30  C   UNL     1       3.923   7.375   3.584  0.00  0.00    -0.046 A 
ATOM     31  C   UNL     1       3.653   7.345   2.228  0.00  0.00    -0.034 A 
ATOM     32  C   UNL     1       4.088   8.374   1.414  0.00  0.00    +0.008 A 
ATOM     33  C   UNL     1       3.444   6.256   4.473  0.00  0.00    +0.044 C 
ENDBRANCH  25  31
ENDBRANCH  24  25
ENDBRANCH   1  24
TORSDOF 4
