REMARK  Name = ZINC18344564
REMARK  9 active torsions:
REMARK  status: ('A' for Active; 'I' for Inactive)
REMARK    1  A    between atoms: C_1  and  C_2
REMARK    2  A    between atoms: C_5  and  N_8
REMARK    3  A    between atoms: C_12  and  S_13
REMARK    4  A    between atoms: S_13  and  C_14
REMARK    5  A    between atoms: C_14  and  C_16
REMARK    6  A    between atoms: C_14  and  C_17
REMARK    7  A    between atoms: N_19  and  C_20
REMARK    8  A    between atoms: C_24  and  S_26
REMARK    9  A    between atoms: S_26  and  N_29
REMARK                            x       y       z     vdW  Elec       q    Type
REMARK                         _______ _______ _______ _____ _____    ______ ____
ROOT
ATOM      1  S   UNL     1       2.626   0.902   0.569  0.00  0.00    -0.073 S 
ENDROOT
BRANCH   1   6
ATOM      2  N   UNL     1       5.289   1.616   1.036  0.00  0.00    -0.259 N 
ATOM      3  C   UNL     1       6.079   2.732   0.969  0.00  0.00    +0.225 A 
ATOM      4  N   UNL     1       5.334   3.732   0.566  0.00  0.00    -0.112 NA
ATOM      5  N   UNL     1       4.034   3.251   0.363  0.00  0.00    -0.120 NA
ATOM      6  C   UNL     1       4.023   1.973   0.656  0.00  0.00    +0.198 A 
ATOM      7  N   UNL     1       7.432   2.793   1.274  0.00  0.00    -0.299 N 
ATOM      8  C   UNL     1       8.224   1.929   0.361  0.00  0.00    +0.108 C 
ATOM      9  C   UNL     1       9.656   2.507   0.479  0.00  0.00    +0.020 C 
ATOM     10  C   UNL     1       9.408   4.029   0.589  0.00  0.00    +0.020 C 
ATOM     11  C   UNL     1       7.956   4.164   1.086  0.00  0.00    +0.108 C 
BRANCH   2  16
ATOM     12  C   UNL     1       6.968  -3.573   2.608  0.00  0.00    +0.044 C 
ATOM     13  C   UNL     1       6.522  -2.195   2.191  0.00  0.00    -0.050 A 
ATOM     14  C   UNL     1       6.090  -1.972   0.896  0.00  0.00    +0.005 A 
ATOM     15  C   UNL     1       5.681  -0.711   0.510  0.00  0.00    +0.026 A 
ATOM     16  C   UNL     1       5.703   0.334   1.424  0.00  0.00    +0.052 A 
ATOM     17  C   UNL     1       6.142   0.108   2.722  0.00  0.00    +0.026 A 
ATOM     18  C   UNL     1       6.546  -1.157   3.103  0.00  0.00    +0.005 A 
ENDBRANCH   2  16
ENDBRANCH   1   6
BRANCH   1  19
ATOM     19  C   UNL     1       1.280   1.980   0.007  0.00  0.00    +0.137 C 
ATOM     20  C   UNL     1       1.580   2.474  -1.409  0.00  0.00    +0.029 C 
BRANCH  19  21
ATOM     21  C   UNL     1      -0.014   1.209   0.007  0.00  0.00    +0.230 C 
ATOM     22  O   UNL     1       0.002  -0.004  -0.008  0.00  0.00    -0.274 OA
ATOM     23  N   UNL     1      -1.191   1.867   0.018  0.00  0.00    -0.285 N 
ATOM     24  H   UNL     1      -1.205   2.833   0.098  0.00  0.00    +0.155 HD
BRANCH  23  25
ATOM     25  C   UNL     1      -2.391   1.155  -0.086  0.00  0.00    +0.035 A 
ATOM     26  C   UNL     1      -2.510  -0.099   0.499  0.00  0.00    +0.023 A 
ATOM     27  C   UNL     1      -3.696  -0.798   0.395  0.00  0.00    +0.004 A 
ATOM     28  C   UNL     1      -4.765  -0.252  -0.291  0.00  0.00    +0.028 A 
ATOM     29  C   UNL     1      -4.650   0.997  -0.875  0.00  0.00    +0.107 A 
ATOM     30  C   UNL     1      -3.468   1.704  -0.769  0.00  0.00    +0.051 A 
BRANCH  29  31
ATOM     31  S   UNL     1      -6.015   1.689  -1.747  0.00  0.00    +0.056 S 
ATOM     32  O   UNL     1      -5.475   2.631  -2.664  0.00  0.00    -0.153 OA
ATOM     33  O   UNL     1      -6.826   0.599  -2.163  0.00  0.00    -0.153 OA
BRANCH  31  34
ATOM     34  N   UNL     1      -6.908   2.553  -0.653  0.00  0.00    -0.204 NA
ATOM     35  H   UNL     1      -7.411   3.331  -0.943  0.00  0.00    +0.144 HD
ATOM     36  H   UNL     1      -6.929   2.282   0.278  0.00  0.00    +0.144 HD
ENDBRANCH  31  34
ENDBRANCH  29  31
ENDBRANCH  23  25
ENDBRANCH  19  21
ENDBRANCH   1  19
TORSDOF 7
