REMARK  Name = ZINC04164065
REMARK  6 active torsions:
REMARK  status: ('A' for Active; 'I' for Inactive)
REMARK    1  A    between atoms: C_1  and  C_2
REMARK    2  A    between atoms: C_7  and  N_8
REMARK    3  A    between atoms: C_9  and  C_11
REMARK    4  A    between atoms: C_11  and  S_12
REMARK    5  A    between atoms: S_12  and  C_13
REMARK    6  A    between atoms: C_19  and  C_22
REMARK                            x       y       z     vdW  Elec       q    Type
REMARK                         _______ _______ _______ _____ _____    ______ ____
ROOT
ATOM      1  C   UNL     1       0.082   0.987   2.823  0.00  0.00    +0.118 A 
ATOM      2  C   UNL     1      -0.295   1.249   4.155  0.00  0.00    +0.040 A 
ATOM      3  C   UNL     1       0.430   0.732   5.183  0.00  0.00    +0.053 A 
ATOM      4  C   UNL     1       1.562  -0.054   4.897  0.00  0.00    +0.178 A 
ATOM      5  N   UNL     1       2.455  -0.680   5.651  0.00  0.00    -0.128 NA
ATOM      6  N   UNL     1       3.314  -1.274   4.899  0.00  0.00    -0.127 NA
ATOM      7  C   UNL     1       3.025  -1.065   3.628  0.00  0.00    +0.185 A 
ATOM      8  N   UNL     1       1.906  -0.287   3.589  0.00  0.00    -0.192 N 
ATOM      9  N   UNL     1       1.138   0.253   2.555  0.00  0.00    -0.157 NA
ENDROOT
BRANCH   7  10
ATOM     10  C   UNL     1       3.774  -1.581   2.463  0.00  0.00    +0.021 A 
ATOM     11  C   UNL     1       3.196  -1.560   1.193  0.00  0.00    +0.011 A 
ATOM     12  C   UNL     1       3.902  -2.039   0.109  0.00  0.00    +0.001 A 
ATOM     13  C   UNL     1       5.177  -2.548   0.281  0.00  0.00    +0.000 A 
ATOM     14  C   UNL     1       5.754  -2.577   1.538  0.00  0.00    +0.001 A 
ATOM     15  C   UNL     1       5.061  -2.096   2.630  0.00  0.00    +0.011 A 
ENDBRANCH   7  10
BRANCH   1  16
ATOM     16  S   UNL     1      -0.871   1.656   1.501  0.00  0.00    -0.095 S 
BRANCH  16  17
ATOM     17  C   UNL     1      -0.021   1.073   0.008  0.00  0.00    +0.172 C 
BRANCH  17  19
ATOM     18  N   UNL     1      -0.288   1.272  -2.443  0.00  0.00    -0.285 N 
ATOM     19  C   UNL     1      -0.743   1.582  -1.213  0.00  0.00    +0.227 C 
ATOM     20  O   UNL     1      -1.734   2.271  -1.088  0.00  0.00    -0.275 OA
ATOM     21  H   UNL     1       0.547   0.790  -2.544  0.00  0.00    +0.155 HD
BRANCH  18  28
ATOM     22  C   UNL     1       1.104   1.578  -4.906  0.00  0.00    +0.045 C 
ATOM     23  C   UNL     1      -0.382   1.807  -4.796  0.00  0.00    -0.029 A 
ATOM     24  C   UNL     1      -1.108   2.176  -5.912  0.00  0.00    +0.005 A 
ATOM     25  C   UNL     1      -2.471   2.386  -5.812  0.00  0.00    +0.000 A 
ATOM     26  C   UNL     1      -3.112   2.226  -4.597  0.00  0.00    +0.002 A 
ATOM     27  C   UNL     1      -2.392   1.853  -3.479  0.00  0.00    +0.023 A 
ATOM     28  C   UNL     1      -1.022   1.646  -3.575  0.00  0.00    +0.036 A 
ENDBRANCH  18  28
ENDBRANCH  17  19
ENDBRANCH  16  17
ENDBRANCH   1  16
TORSDOF 5
