REMARK  Name = ZINC64052949
REMARK  9 active torsions:
REMARK  status: ('A' for Active; 'I' for Inactive)
REMARK    1  A    between atoms: C_7  and  C_10
REMARK    2  A    between atoms: C_10  and  C_12
REMARK    3  A    between atoms: C_12  and  S_13
REMARK    4  A    between atoms: S_13  and  C_14
REMARK    5  A    between atoms: C_17  and  C_29
REMARK    6  A    between atoms: N_18  and  C_19
REMARK    7  A    between atoms: C_22  and  O_25
REMARK    8  A    between atoms: O_25  and  C_26
REMARK    9  A    between atoms: C_29  and  N_30
REMARK                            x       y       z     vdW  Elec       q    Type
REMARK                         _______ _______ _______ _____ _____    ______ ____
ROOT
ATOM      1  C   UNL     1       0.572  -7.297  -0.042  0.00  0.00    +0.196 A 
ATOM      2  N   UNL     1       1.863  -7.535  -0.049  0.00  0.00    -0.122 NA
ATOM      3  N   UNL     1       2.075  -8.803  -0.059  0.00  0.00    -0.135 NA
ATOM      4  C   UNL     1       0.942  -9.447  -0.059  0.00  0.00    +0.122 A 
ATOM      5  N   UNL     1      -0.058  -8.511  -0.042  0.00  0.00    -0.276 N 
ENDROOT
BRANCH   5   6
ATOM      6  C   UNL     1      -1.442  -8.748  -0.030  0.00  0.00    +0.050 A 
ATOM      7  C   UNL     1      -2.031  -9.366   1.064  0.00  0.00    +0.030 A 
ATOM      8  C   UNL     1      -3.392  -9.599   1.075  0.00  0.00    +0.048 A 
ATOM      9  C   UNL     1      -4.170  -9.216  -0.008  0.00  0.00    +0.127 A 
ATOM     10  C   UNL     1      -3.582  -8.599  -1.102  0.00  0.00    +0.048 A 
ATOM     11  C   UNL     1      -2.222  -8.360  -1.111  0.00  0.00    +0.030 A 
BRANCH   9  12
ATOM     12  O   UNL     1      -5.510  -9.447   0.003  0.00  0.00    -0.434 OA
BRANCH  12  13
ATOM     13  C   UNL     1      -6.250  -9.026  -1.145  0.00  0.00    +0.541 C 
ATOM     14  F   UNL     1      -6.108  -7.644  -1.311  0.00  0.00    -0.166 F 
ATOM     15  F   UNL     1      -5.764  -9.685  -2.280  0.00  0.00    -0.166 F 
ENDBRANCH  12  13
ENDBRANCH   9  12
ENDBRANCH   5   6
BRANCH   1  16
ATOM     16  S   UNL     1      -0.202  -5.714  -0.026  0.00  0.00    -0.078 S 
BRANCH  16  17
ATOM     17  C   UNL     1       1.187  -4.547  -0.033  0.00  0.00    +0.156 C 
BRANCH  17  18
ATOM     18  C   UNL     1       0.657  -3.136  -0.021  0.00  0.00    +0.172 C 
ATOM     19  O   UNL     1      -0.541  -2.938  -0.009  0.00  0.00    -0.291 OA
BRANCH  18  26
ATOM     20  C   UNL     1      -0.016   1.348   0.009  0.00  0.00    +0.001 A 
ATOM     21  C   UNL     1       1.158   2.117   0.002  0.00  0.00    +0.002 A 
ATOM     22  C   UNL     1       2.384   1.551  -0.012  0.00  0.00    +0.026 A 
ATOM     23  C   UNL     1       2.494   0.083  -0.021  0.00  0.00    +0.043 A 
ATOM     24  N   UNL     1       3.525  -0.712  -0.035  0.00  0.00    -0.380 N 
ATOM     25  C   UNL     1       3.065  -2.104  -0.039  0.00  0.00    +0.152 C 
ATOM     26  C   UNL     1       1.553  -2.046  -0.024  0.00  0.00    +0.024 C 
ATOM     27  C   UNL     1       1.234  -0.700  -0.013  0.00  0.00    +0.006 A 
ATOM     28  C   UNL     1       0.002  -0.004   0.002  0.00  0.00    +0.010 A 
ATOM     29  H   UNL     1       4.453  -0.428  -0.043  0.00  0.00    +0.160 HD
ENDBRANCH  18  26
ENDBRANCH  17  18
ENDBRANCH  16  17
ENDBRANCH   1  16
BRANCH   4  30
ATOM     30  C   UNL     1       0.764 -10.943  -0.070  0.00  0.00    -0.001 C 
BRANCH  30  31
ATOM     31  N   UNL     1       0.713 -11.440   1.311  0.00  0.00    +0.384 N 
ATOM     32  C   UNL     1       2.004 -11.198   1.965  0.00  0.00    -0.078 C 
ATOM     33  C   UNL     1       1.929 -11.640   3.428  0.00  0.00    -0.019 C 
ATOM     34  C   UNL     1       1.597 -13.134   3.488  0.00  0.00    -0.004 C 
ATOM     35  C   UNL     1       0.285 -13.385   2.739  0.00  0.00    -0.019 C 
ATOM     36  C   UNL     1       0.421 -12.879   1.301  0.00  0.00    -0.078 C 
ATOM     37  H   UNL     1      -0.014 -10.954   1.815  0.00  0.00    -0.081 HD
ENDBRANCH  30  31
ENDBRANCH   4  30
TORSDOF 9
