REMARK  Name = ZINC20413831
REMARK  9 active torsions:
REMARK  status: ('A' for Active; 'I' for Inactive)
REMARK    1  A    between atoms: C_1  and  C_2
REMARK    2  A    between atoms: C_7  and  N_8
REMARK    3  A    between atoms: C_9  and  C_11
REMARK    4  A    between atoms: C_12  and  C_36
REMARK    5  A    between atoms: C_16  and  S_34
REMARK    6  A    between atoms: C_19  and  C_21
REMARK    7  A    between atoms: C_25  and  O_27
REMARK    8  A    between atoms: O_27  and  C_28
REMARK    9  A    between atoms: S_34  and  C_35
REMARK                            x       y       z     vdW  Elec       q    Type
REMARK                         _______ _______ _______ _____ _____    ______ ____
ROOT
ATOM      1  C   UNL     1       3.321   3.823  -1.450  0.00  0.00    +0.060 C 
ATOM      2  C   UNL     1       4.399   3.026  -1.404  0.00  0.00    +0.018 C 
ATOM      3  N   UNL     1       4.865   2.493  -0.227  0.00  0.00    -0.287 N 
ATOM      4  C   UNL     1       4.352   3.010   0.956  0.00  0.00    +0.219 A 
ATOM      5  N   UNL     1       4.763   2.860   2.186  0.00  0.00    -0.187 NA
ATOM      6  C   UNL     1       3.965   3.552   3.012  0.00  0.00    +0.210 A 
ATOM      7  N   UNL     1       3.031   4.151   2.304  0.00  0.00    -0.141 NA
ATOM      8  N   UNL     1       3.260   3.812   0.971  0.00  0.00    -0.220 N 
ATOM      9  C   UNL     1       2.522   4.196  -0.230  0.00  0.00    +0.177 C 
ATOM     10  C   UNL     1       5.122   2.704  -2.686  0.00  0.00    +0.061 C 
ATOM     11  H   UNL     1       5.615   1.689  -0.246  0.00  0.00    +0.155 HD
ENDROOT
BRANCH   9  12
ATOM     12  C   UNL     1       1.198   3.477  -0.258  0.00  0.00    -0.015 A 
ATOM     13  C   UNL     1       1.163   2.095  -0.271  0.00  0.00    +0.006 A 
ATOM     14  C   UNL     1      -0.050   1.432  -0.296  0.00  0.00    +0.004 A 
ATOM     15  C   UNL     1      -1.231   2.149  -0.313  0.00  0.00    +0.046 A 
ATOM     16  C   UNL     1      -1.198   3.536  -0.294  0.00  0.00    +0.129 A 
ATOM     17  C   UNL     1       0.021   4.199  -0.269  0.00  0.00    +0.052 A 
BRANCH  16  18
ATOM     18  O   UNL     1      -2.358   4.244  -0.305  0.00  0.00    -0.456 OA
BRANCH  18  19
ATOM     19  C   UNL     1      -3.178   4.143   0.773  0.00  0.00    +0.128 A 
ATOM     20  C   UNL     1      -2.777   3.417   1.885  0.00  0.00    +0.046 A 
ATOM     21  C   UNL     1      -3.610   3.319   2.983  0.00  0.00    +0.004 A 
ATOM     22  C   UNL     1      -4.848   3.935   2.969  0.00  0.00    +0.000 A 
ATOM     23  C   UNL     1      -5.253   4.654   1.859  0.00  0.00    +0.004 A 
ATOM     24  C   UNL     1      -4.421   4.759   0.761  0.00  0.00    +0.046 A 
ENDBRANCH  18  19
ENDBRANCH  16  18
ENDBRANCH   9  12
BRANCH   1  26
ATOM     25  N   UNL     1       1.838   5.142  -2.787  0.00  0.00    -0.281 N 
ATOM     26  C   UNL     1       2.917   4.338  -2.704  0.00  0.00    +0.248 C 
ATOM     27  O   UNL     1       3.543   4.054  -3.709  0.00  0.00    -0.270 OA
ATOM     28  H   UNL     1       1.329   5.474  -1.870  0.00  0.00    +0.155 HD
BRANCH  25  35
ATOM     29  C   UNL     1       0.341   7.557  -2.929  0.00  0.00    +0.045 C 
ATOM     30  C   UNL     1       0.632   6.726  -4.152  0.00  0.00    -0.029 A 
ATOM     31  C   UNL     1       0.172   7.133  -5.390  0.00  0.00    +0.005 A 
ATOM     32  C   UNL     1       0.433   6.367  -6.511  0.00  0.00    +0.000 A 
ATOM     33  C   UNL     1       1.160   5.196  -6.399  0.00  0.00    +0.002 A 
ATOM     34  C   UNL     1       1.627   4.787  -5.166  0.00  0.00    +0.023 A 
ATOM     35  C   UNL     1       1.367   5.553  -4.037  0.00  0.00    +0.037 A 
ENDBRANCH  25  35
ENDBRANCH   1  26
BRANCH   6  36
ATOM     36  S   UNL     1       4.138   3.645   4.763  0.00  0.00    -0.088 S 
ATOM     37  C   UNL     1       5.592   2.618   5.114  0.00  0.00    +0.093 C 
ENDBRANCH   6  36
TORSDOF 6
