REMARK  Name = ZINC45683216
REMARK  4 active torsions:
REMARK  status: ('A' for Active; 'I' for Inactive)
REMARK    1  A    between atoms: C_1  and  C_2
REMARK    2  A    between atoms: C_2  and  C_4
REMARK    3  A    between atoms: C_2  and  N_13
REMARK    4  A    between atoms: C_20  and  C_23
REMARK                            x       y       z     vdW  Elec       q    Type
REMARK                         _______ _______ _______ _____ _____    ______ ____
ROOT
ATOM      1  N   UNL     1       0.688  -0.476  -1.203  0.00  0.00    -0.318 N 
ATOM      2  C   UNL     1      -0.016  -0.612  -2.396  0.00  0.00    +0.140 A 
ATOM      3  C   UNL     1       0.651  -1.073  -3.548  0.00  0.00    +0.049 A 
ATOM      4  C   UNL     1      -0.026  -1.209  -4.718  0.00  0.00    +0.053 A 
ATOM      5  C   UNL     1      -1.396  -0.885  -4.760  0.00  0.00    +0.178 A 
ATOM      6  N   UNL     1      -2.313  -0.906  -5.713  0.00  0.00    -0.128 NA
ATOM      7  N   UNL     1      -3.438  -0.507  -5.229  0.00  0.00    -0.123 NA
ATOM      8  C   UNL     1      -3.303  -0.212  -3.959  0.00  0.00    +0.258 A 
ATOM      9  N   UNL     1      -2.017  -0.439  -3.619  0.00  0.00    -0.187 N 
ATOM     10  N   UNL     1      -1.293  -0.315  -2.432  0.00  0.00    -0.148 NA
ATOM     11  H   UNL     1       1.632  -0.695  -1.170  0.00  0.00    +0.148 HD
ENDROOT
BRANCH   8  12
ATOM     12  C   UNL     1      -4.390   0.290  -3.044  0.00  0.00    +0.454 C 
ATOM     13  F   UNL     1      -5.637   0.079  -3.640  0.00  0.00    -0.163 F 
ATOM     14  F   UNL     1      -4.331  -0.400  -1.828  0.00  0.00    -0.163 F 
ATOM     15  F   UNL     1      -4.209   1.658  -2.812  0.00  0.00    -0.163 F 
ENDBRANCH   8  12
BRANCH   1  17
ATOM     16  C   UNL     1      -0.019   1.526   0.010  0.00  0.00    +0.036 C 
ATOM     17  C   UNL     1       0.002  -0.004   0.002  0.00  0.00    +0.135 C 
BRANCH  17  18
ATOM     18  C   UNL     1       0.731  -0.503   1.223  0.00  0.00    +0.126 A 
ATOM     19  C   UNL     1       0.140  -0.958   2.336  0.00  0.00    +0.055 A 
ATOM     20  C   UNL     1       1.225  -1.333   3.251  0.00  0.00    +0.020 A 
ATOM     21  C   UNL     1       1.275  -1.860   4.541  0.00  0.00    +0.011 A 
ATOM     22  C   UNL     1       2.486  -2.101   5.129  0.00  0.00    +0.001 A 
ATOM     23  C   UNL     1       3.663  -1.824   4.450  0.00  0.00    +0.004 A 
ATOM     24  C   UNL     1       3.634  -1.302   3.174  0.00  0.00    +0.047 A 
ATOM     25  C   UNL     1       2.414  -1.051   2.558  0.00  0.00    +0.135 A 
ATOM     26  O   UNL     1       2.068  -0.562   1.351  0.00  0.00    -0.458 OA
ENDBRANCH  17  18
ENDBRANCH   1  17
TORSDOF 3
