REMARK  Name = ZINC58864437
REMARK  5 active torsions:
REMARK  status: ('A' for Active; 'I' for Inactive)
REMARK    1  A    between atoms: C_1  and  C_2
REMARK    2  A    between atoms: C_7  and  N_8
REMARK    3  A    between atoms: N_11  and  N_12
REMARK    4  A    between atoms: C_13  and  C_15
REMARK    5  A    between atoms: C_16  and  C_17
REMARK                            x       y       z     vdW  Elec       q    Type
REMARK                         _______ _______ _______ _____ _____    ______ ____
ROOT
ATOM      1  N   UNL     1      -0.175   1.375   4.750  0.00  0.00    -0.230 N 
ATOM      2  C   UNL     1      -0.275   2.042   5.917  0.00  0.00    +0.253 C 
ATOM      3  O   UNL     1      -0.348   1.428   6.966  0.00  0.00    -0.269 OA
ATOM      4  H   UNL     1      -0.116   1.864   3.915  0.00  0.00    +0.173 HD
ENDROOT
BRANCH   1   8
ATOM      5  N   UNL     1       0.025  -0.015   2.417  0.00  0.00    -0.268 N 
ATOM      6  C   UNL     1      -0.057  -0.694   3.578  0.00  0.00    +0.320 C 
ATOM      7  O   UNL     1      -0.040  -1.910   3.573  0.00  0.00    -0.251 OA
ATOM      8  N   UNL     1      -0.156  -0.026   4.745  0.00  0.00    -0.218 N 
ATOM      9  H   UNL     1       0.078   0.954   2.425  0.00  0.00    +0.156 HD
ATOM     10  H   UNL     1      -0.215  -0.516   5.580  0.00  0.00    +0.174 HD
BRANCH   5  17
ATOM     11  C   UNL     1      -1.264   1.184   0.181  0.00  0.00    +0.045 C 
ATOM     12  C   UNL     1      -0.584  -0.158   0.084  0.00  0.00    -0.029 A 
ATOM     13  C   UNL     1      -0.569  -0.840  -1.117  0.00  0.00    +0.005 A 
ATOM     14  C   UNL     1       0.054  -2.071  -1.206  0.00  0.00    +0.000 A 
ATOM     15  C   UNL     1       0.665  -2.622  -0.095  0.00  0.00    +0.002 A 
ATOM     16  C   UNL     1       0.654  -1.945   1.108  0.00  0.00    +0.023 A 
ATOM     17  C   UNL     1       0.033  -0.706   1.200  0.00  0.00    +0.038 A 
ENDBRANCH   5  17
ENDBRANCH   1   8
BRANCH   2  18
ATOM     18  C   UNL     1      -0.294   3.452   5.922  0.00  0.00    +0.071 C 
ATOM     19  C   UNL     1      -0.395   4.127   7.101  0.00  0.00    +0.034 C 
BRANCH  19  20
ATOM     20  C   UNL     1      -0.413   5.535   7.106  0.00  0.00    +0.085 A 
ATOM     21  C   UNL     1       0.478   6.384   6.457  0.00  0.00    +0.155 A 
ATOM     22  N   UNL     1       0.117   7.632   6.711  0.00  0.00    -0.216 NA
ATOM     23  C   UNL     1      -0.963   7.642   7.491  0.00  0.00    +0.140 A 
ATOM     24  N   UNL     1      -1.326   6.350   7.754  0.00  0.00    -0.298 N 
ATOM     25  C   UNL     1      -2.410   6.078   8.529  0.00  0.00    +0.093 A 
ATOM     26  C   UNL     1      -3.151   7.080   9.053  0.00  0.00    +0.018 A 
ATOM     27  C   UNL     1      -2.808   8.416   8.801  0.00  0.00    +0.005 A 
ATOM     28  C   UNL     1      -1.718   8.698   8.032  0.00  0.00    +0.047 A 
ATOM     29 CL   UNL     1       1.828   5.892   5.484  0.00  0.00    -0.060 Cl
ENDBRANCH  19  20
ENDBRANCH   2  18
TORSDOF 4
