REMARK  Name = ZINC09482138
REMARK  9 active torsions:
REMARK  status: ('A' for Active; 'I' for Inactive)
REMARK    1  A    between atoms: C_1  and  C_2
REMARK    2  A    between atoms: C_4  and  N_31
REMARK    3  A    between atoms: C_7  and  N_8
REMARK    4  A    between atoms: C_9  and  C_11
REMARK    5  A    between atoms: C_11  and  N_63
REMARK    6  A    between atoms: C_14  and  C_17
REMARK    7  A    between atoms: C_17  and  C_18
REMARK    8  A    between atoms: C_17  and  C_24
REMARK    9  A    between atoms: C_17  and  O_30
REMARK                            x       y       z     vdW  Elec       q    Type
REMARK                         _______ _______ _______ _____ _____    ______ ____
ROOT
ATOM      1  C   UNL     1       0.724  -0.412  -3.765  0.00  0.00    -0.078 C 
ATOM      2  C   UNL     1      -0.031   0.035  -2.511  0.00  0.00    -0.012 C 
ATOM      3  C   UNL     1       0.700  -0.484  -1.270  0.00  0.00    +0.026 C 
ATOM      4  C   UNL     1       2.140   0.038  -1.278  0.00  0.00    -0.012 C 
ATOM      5  C   UNL     1       2.831  -0.407  -2.569  0.00  0.00    -0.078 C 
ATOM      6  N   UNL     1       2.093   0.144  -3.725  0.00  0.00    +0.385 N 
ATOM      7  H   UNL     1       2.035   1.165  -3.627  0.00  0.00    -0.081 HD
ENDROOT
BRANCH   6   8
ATOM      8  C   UNL     1       2.805  -0.177  -4.979  0.00  0.00    +0.019 C 
BRANCH   8  10
ATOM      9  N   UNL     1       4.933   0.466  -6.065  0.00  0.00    -0.287 N 
ATOM     10  C   UNL     1       4.108   0.580  -5.005  0.00  0.00    +0.201 C 
ATOM     11  O   UNL     1       4.413   1.293  -4.073  0.00  0.00    -0.278 OA
ATOM     12  H   UNL     1       4.728  -0.165  -6.773  0.00  0.00    +0.155 HD
BRANCH   9  19
ATOM     13  C   UNL     1       7.116  -0.493  -7.617  0.00  0.00    +0.046 C 
ATOM     14  C   UNL     1       7.174   0.826  -6.889  0.00  0.00    -0.027 A 
ATOM     15  C   UNL     1       8.308   1.611  -6.969  0.00  0.00    +0.038 A 
ATOM     16  C   UNL     1       8.364   2.818  -6.297  0.00  0.00    +0.127 A 
ATOM     17  C   UNL     1       7.283   3.246  -5.548  0.00  0.00    +0.034 A 
ATOM     18  C   UNL     1       6.144   2.469  -5.469  0.00  0.00    +0.026 A 
ATOM     19  C   UNL     1       6.085   1.256  -6.143  0.00  0.00    +0.036 A 
BRANCH  16  20
ATOM     20  N   UNL     1       9.583   3.653  -6.379  0.00  0.00    +0.056 N 
ATOM     21  O   UNL     1       9.633   4.716  -5.788  0.00  0.00    -0.126 OA
ATOM     22  O   UNL     1      10.535   3.277  -7.039  0.00  0.00    -0.126 OA
ENDBRANCH  16  20
ENDBRANCH   9  19
ENDBRANCH   8  10
ENDBRANCH   6   8
BRANCH   3  23
ATOM     23  C   UNL     1      -0.015   0.011  -0.011  0.00  0.00    +0.119 C 
BRANCH  23  24
ATOM     24  C   UNL     1       0.707  -0.498   1.210  0.00  0.00    -0.011 A 
ATOM     25  C   UNL     1       1.381  -1.703   1.162  0.00  0.00    +0.007 A 
ATOM     26  C   UNL     1       2.048  -2.168   2.281  0.00  0.00    +0.000 A 
ATOM     27  C   UNL     1       2.032  -1.431   3.450  0.00  0.00    +0.000 A 
ATOM     28  C   UNL     1       1.354  -0.227   3.499  0.00  0.00    +0.000 A 
ATOM     29  C   UNL     1       0.691   0.239   2.379  0.00  0.00    +0.007 A 
ENDBRANCH  23  24
BRANCH  23  30
ATOM     30  C   UNL     1      -1.433  -0.501  -0.005  0.00  0.00    -0.011 A 
ATOM     31  C   UNL     1      -1.736  -1.703  -0.617  0.00  0.00    +0.007 A 
ATOM     32  C   UNL     1      -3.035  -2.175  -0.608  0.00  0.00    +0.000 A 
ATOM     33  C   UNL     1      -4.033  -1.440   0.004  0.00  0.00    +0.000 A 
ATOM     34  C   UNL     1      -3.731  -0.235   0.612  0.00  0.00    +0.000 A 
ATOM     35  C   UNL     1      -2.431   0.234   0.607  0.00  0.00    +0.007 A 
ENDBRANCH  23  30
BRANCH  23  36
ATOM     36  O   UNL     1      -0.025   1.440   0.002  0.00  0.00    -0.379 OA
ATOM     37  H   UNL     1       0.856   1.839  -0.001  0.00  0.00    +0.211 HD
ENDBRANCH  23  36
ENDBRANCH   3  23
TORSDOF 8
