REMARK  Name = ZINC39945154
REMARK  8 active torsions:
REMARK  status: ('A' for Active; 'I' for Inactive)
REMARK    1  A    between atoms: C_4  and  C_7
REMARK    2  A    between atoms: C_7  and  N_8
REMARK    3  A    between atoms: C_9  and  S_19
REMARK    4  A    between atoms: C_13  and  C_14
REMARK    5  A    between atoms: S_19  and  C_20
REMARK    6  A    between atoms: C_20  and  C_22
REMARK    7  A    between atoms: C_20  and  C_28
REMARK    8  A    between atoms: C_28  and  C_30
REMARK                            x       y       z     vdW  Elec       q    Type
REMARK                         _______ _______ _______ _____ _____    ______ ____
ROOT
ATOM      1  S   UNL     1       6.612   0.176   1.397  0.00  0.00    -0.102 S 
ENDROOT
BRANCH   1   3
ATOM      2  N   UNL     1       4.152  -0.952   1.338  0.00  0.00    -0.279 N 
ATOM      3  C   UNL     1       4.988  -0.067   2.166  0.00  0.00    +0.238 C 
ATOM      4  N   UNL     1       5.121  -0.792   3.441  0.00  0.00    -0.237 N 
ATOM      5  N   UNL     1       4.401  -1.984   3.295  0.00  0.00    -0.165 NA
ATOM      6  C   UNL     1       3.857  -2.067   2.122  0.00  0.00    +0.184 C 
ATOM      7  H   UNL     1       5.611  -0.502   4.227  0.00  0.00    +0.171 HD
BRANCH   6   8
ATOM      8  C   UNL     1       3.033  -3.200   1.672  0.00  0.00    +0.169 A 
ATOM      9  C   UNL     1       2.718  -4.303   2.409  0.00  0.00    +0.053 A 
ATOM     10  C   UNL     1       1.917  -5.122   1.589  0.00  0.00    +0.042 A 
ATOM     11  C   UNL     1       1.783  -4.489   0.407  0.00  0.00    +0.196 A 
ATOM     12  O   UNL     1       2.454  -3.326   0.462  0.00  0.00    -0.460 OA
ENDBRANCH   6   8
BRANCH   2  13
ATOM     13  C   UNL     1       3.711  -0.707  -0.038  0.00  0.00    +0.144 C 
BRANCH  13  17
ATOM     14  C   UNL     1      -0.017   1.378   0.010  0.00  0.00    +0.000 A 
ATOM     15  C   UNL     1       1.171   2.086   0.002  0.00  0.00    +0.000 A 
ATOM     16  C   UNL     1       2.377   1.411  -0.013  0.00  0.00    +0.005 A 
ATOM     17  C   UNL     1       2.396   0.029  -0.020  0.00  0.00    -0.030 A 
ATOM     18  C   UNL     1       1.208  -0.679  -0.012  0.00  0.00    +0.005 A 
ATOM     19  C   UNL     1       0.002  -0.004   0.002  0.00  0.00    +0.000 A 
ENDBRANCH  13  17
ENDBRANCH   2  13
ENDBRANCH   1   3
BRANCH   1  20
ATOM     20  C   UNL     1       7.305  -1.498   1.294  0.00  0.00    +0.150 C 
BRANCH  20  21
ATOM     21  C   UNL     1       6.470  -2.330   0.356  0.00  0.00    -0.027 A 
ATOM     22  C   UNL     1       6.330  -1.950  -0.966  0.00  0.00    +0.005 A 
ATOM     23  C   UNL     1       5.564  -2.714  -1.827  0.00  0.00    +0.000 A 
ATOM     24  C   UNL     1       4.939  -3.858  -1.366  0.00  0.00    +0.000 A 
ATOM     25  C   UNL     1       5.079  -4.238  -0.045  0.00  0.00    +0.000 A 
ATOM     26  C   UNL     1       5.849  -3.477   0.815  0.00  0.00    +0.005 A 
ENDBRANCH  20  21
BRANCH  20  27
ATOM     27  C   UNL     1       8.719  -1.426   0.779  0.00  0.00    +0.179 C 
ATOM     28  O   UNL     1       9.069  -0.485   0.097  0.00  0.00    -0.291 OA
BRANCH  27  29
ATOM     29  C   UNL     1       9.636  -2.452   1.090  0.00  0.00    +0.024 C 
ATOM     30  C   UNL     1      10.962  -2.535   0.704  0.00  0.00    +0.006 A 
ATOM     31  C   UNL     1      11.792  -1.692  -0.072  0.00  0.00    +0.010 A 
ATOM     32  C   UNL     1      13.083  -2.027  -0.297  0.00  0.00    +0.001 A 
ATOM     33  C   UNL     1      13.657  -3.201   0.216  0.00  0.00    +0.002 A 
ATOM     34  C   UNL     1      12.951  -4.073   0.968  0.00  0.00    +0.026 A 
ATOM     35  C   UNL     1      11.537  -3.784   1.260  0.00  0.00    +0.043 A 
ATOM     36  N   UNL     1      10.640  -4.435   1.944  0.00  0.00    -0.380 N 
ATOM     37  C   UNL     1       9.377  -3.690   1.921  0.00  0.00    +0.152 C 
ATOM     38  H   UNL     1      10.785  -5.279   2.399  0.00  0.00    +0.160 HD
ENDBRANCH  27  29
ENDBRANCH  20  27
ENDBRANCH   1  20
TORSDOF 8
