REMARK  Name = ZINC06127867
REMARK  7 active torsions:
REMARK  status: ('A' for Active; 'I' for Inactive)
REMARK    1  A    between atoms: C_1  and  C_2
REMARK    2  A    between atoms: C_2  and  C_4
REMARK    3  A    between atoms: C_2  and  N_14
REMARK    4  A    between atoms: C_15  and  C_17
REMARK    5  A    between atoms: C_17  and  O_18
REMARK    6  A    between atoms: O_18  and  C_19
REMARK    7  A    between atoms: C_24  and  C_25
REMARK                            x       y       z     vdW  Elec       q    Type
REMARK                         _______ _______ _______ _____ _____    ______ ____
ROOT
ATOM      1  N   UNL     1      -7.239   3.446   0.025  0.00  0.00    -0.309 N 
ATOM      2  C   UNL     1      -5.990   2.941   0.023  0.00  0.00    +0.251 C 
ATOM      3  O   UNL     1      -5.822   1.740   0.016  0.00  0.00    -0.272 OA
ATOM      4  H   UNL     1      -7.374   4.406   0.031  0.00  0.00    +0.149 HD
ENDROOT
BRANCH   1   6
ATOM      5  C   UNL     1      -8.718   2.140  -1.420  0.00  0.00    +0.028 C 
ATOM      6  C   UNL     1      -8.394   2.544   0.020  0.00  0.00    +0.076 C 
BRANCH   6   7
ATOM      7  C   UNL     1      -9.601   3.257   0.633  0.00  0.00    -0.010 C 
ATOM      8  C   UNL     1      -9.926   4.507  -0.187  0.00  0.00    +0.012 C 
ATOM      9  C   UNL     1     -11.133   5.220   0.427  0.00  0.00    -0.010 C 
ATOM     10  C   UNL     1     -12.338   4.279   0.421  0.00  0.00    +0.007 C 
ATOM     11  C   UNL     1     -12.013   3.029   1.241  0.00  0.00    -0.010 C 
ATOM     12  C   UNL     1     -10.807   2.316   0.627  0.00  0.00    +0.012 C 
ATOM     13  C   UNL     1     -11.689   3.433   2.680  0.00  0.00    +0.007 C 
ATOM     14  C   UNL     1     -10.483   4.375   2.686  0.00  0.00    -0.010 C 
ATOM     15  C   UNL     1     -10.808   5.625   1.866  0.00  0.00    +0.007 C 
ATOM     16  C   UNL     1      -9.277   3.662   2.073  0.00  0.00    +0.012 C 
ENDBRANCH   6   7
ENDBRANCH   1   6
BRANCH   2  17
ATOM     17  C   UNL     1      -4.802   3.868   0.028  0.00  0.00    +0.324 C 
BRANCH  17  18
ATOM     18  O   UNL     1      -3.598   3.099   0.024  0.00  0.00    -0.482 OA
BRANCH  18  19
ATOM     19  C   UNL     1      -2.428   3.787   0.028  0.00  0.00    +0.133 A 
ATOM     20  C   UNL     1      -2.436   5.174   0.042  0.00  0.00    +0.048 A 
ATOM     21  C   UNL     1      -1.245   5.873   0.040  0.00  0.00    +0.023 A 
ATOM     22  C   UNL     1      -0.035   5.196   0.030  0.00  0.00    +0.042 A 
ATOM     23  C   UNL     1      -0.009   3.818   0.023  0.00  0.00    +0.036 A 
ATOM     24  C   UNL     1      -1.207   3.099   0.025  0.00  0.00    +0.079 A 
ATOM     25 CL   UNL     1       1.454   6.089   0.028  0.00  0.00    -0.084 Cl
BRANCH  24  26
ATOM     26  C   UNL     1      -1.187   1.624   0.017  0.00  0.00    +0.245 C 
ATOM     27  O   UNL     1      -2.232   1.002   0.018  0.00  0.00    -0.270 OA
ATOM     28  N   UNL     1      -0.011   0.966   0.007  0.00  0.00    -0.325 N 
ATOM     29  H   UNL     1       0.002  -0.004   0.002  0.00  0.00    +0.145 HD
ATOM     30  H   UNL     1       0.822   1.462   0.002  0.00  0.00    +0.145 HD
ENDBRANCH  24  26
ENDBRANCH  18  19
ENDBRANCH  17  18
ENDBRANCH   2  17
TORSDOF 6
