REMARK  Name = ZINC33586139
REMARK  17 active torsions:
REMARK  status: ('A' for Active; 'I' for Inactive)
REMARK    1  A    between atoms: C_1  and  C_2
REMARK    2  A    between atoms: C_2  and  C_3
REMARK    3  A    between atoms: C_3  and  C_4
REMARK    4  A    between atoms: C_4  and  C_5
REMARK    5  A    between atoms: C_5  and  C_7
REMARK    6  A    between atoms: C_5  and  C_9
REMARK    7  A    between atoms: C_7  and  C_8
REMARK    8  A    between atoms: C_9  and  N_10
REMARK    9  A    between atoms: C_11  and  C_13
REMARK   10  A    between atoms: C_15  and  C_29
REMARK   11  A    between atoms: N_16  and  C_19
REMARK   12  A    between atoms: C_17  and  C_18
REMARK   13  A    between atoms: C_19  and  C_20
REMARK   14  A    between atoms: C_20  and  C_21
REMARK   15  A    between atoms: C_24  and  O_27
REMARK   16  A    between atoms: O_27  and  C_28
REMARK   17  A    between atoms: C_32  and  C_34
REMARK                            x       y       z     vdW  Elec       q    Type
REMARK                         _______ _______ _______ _____ _____    ______ ____
ROOT
ATOM      1  C   UNL     1      -0.013  -3.014  -0.728  0.00  0.00    +0.058 A 
ATOM      2  C   UNL     1       0.776  -2.258  -1.633  0.00  0.00    +0.042 A 
ATOM      3  C   UNL     1       1.367  -3.140  -2.479  0.00  0.00    +0.069 A 
ATOM      4  N   UNL     1       0.974  -4.408  -2.131  0.00  0.00    -0.342 N 
ATOM      5  C   UNL     1       0.144  -4.340  -1.069  0.00  0.00    +0.028 A 
ATOM      6  C   UNL     1      -0.503  -5.512  -0.377  0.00  0.00    +0.064 C 
ENDROOT
BRANCH   3   7
ATOM      7  C   UNL     1       2.281  -2.793  -3.590  0.00  0.00    +0.095 A 
ATOM      8  C   UNL     1       2.918  -3.782  -4.300  0.00  0.00    +0.077 A 
ATOM      9  S   UNL     1       3.851  -2.802  -5.469  0.00  0.00    -0.073 S 
ATOM     10  C   UNL     1       3.305  -1.198  -4.900  0.00  0.00    +0.129 A 
ATOM     11  N   UNL     1       2.489  -1.531  -3.913  0.00  0.00    -0.236 NA
BRANCH  10  12
ATOM     12  C   UNL     1       3.666   0.145  -5.403  0.00  0.00    +0.114 A 
ATOM     13  C   UNL     1       4.558   0.278  -6.469  0.00  0.00    +0.141 A 
ATOM     14  N   UNL     1       4.871   1.479  -6.917  0.00  0.00    -0.260 NA
ATOM     15  C   UNL     1       4.351   2.555  -6.351  0.00  0.00    +0.130 A 
ATOM     16  C   UNL     1       3.471   2.428  -5.290  0.00  0.00    +0.131 A 
ATOM     17  N   UNL     1       3.146   1.232  -4.837  0.00  0.00    -0.250 NA
ENDBRANCH  10  12
ENDBRANCH   3   7
BRANCH   1  19
ATOM     18  N   UNL     1      -0.891  -1.155   0.593  0.00  0.00    -0.311 N 
ATOM     19  C   UNL     1      -0.837  -2.484   0.372  0.00  0.00    +0.246 C 
ATOM     20  O   UNL     1      -1.469  -3.244   1.080  0.00  0.00    -0.270 OA
ATOM     21  H   UNL     1      -0.320  -0.467  -0.048  0.00  0.00    +0.149 HD
BRANCH  18  22
ATOM     22  C   UNL     1      -1.711  -0.627   1.686  0.00  0.00    +0.108 C 
BRANCH  22  23
ATOM     23  C   UNL     1      -1.495   0.883   1.802  0.00  0.00    +0.006 C 
BRANCH  23  24
ATOM     24  C   UNL     1      -0.049   1.161   2.218  0.00  0.00    +0.002 C 
ATOM     25  C   UNL     1       0.240   0.467   3.551  0.00  0.00    +0.004 C 
ENDBRANCH  23  24
BRANCH  23  26
ATOM     26  C   UNL     1      -2.447   1.455   2.854  0.00  0.00    +0.005 C 
BRANCH  26  27
ATOM     27  C   UNL     1      -2.320   2.979   2.882  0.00  0.00    +0.000 C 
BRANCH  27  29
ATOM     28  C   UNL     1      -3.145   5.076   3.962  0.00  0.00    +0.004 C 
ATOM     29  C   UNL     1      -3.272   3.551   3.934  0.00  0.00    -0.003 C 
ENDBRANCH  27  29
ENDBRANCH  26  27
ENDBRANCH  23  26
ENDBRANCH  22  23
ENDBRANCH  18  22
ENDBRANCH   1  19
BRANCH   4  30
ATOM     30  C   UNL     1       1.393  -5.641  -2.802  0.00  0.00    +0.127 C 
BRANCH  30  31
ATOM     31  C   UNL     1       2.739  -6.097  -2.235  0.00  0.00    +0.056 C 
BRANCH  31  32
ATOM     32  C   UNL     1       3.171  -7.365  -2.925  0.00  0.00    -0.045 A 
ATOM     33  C   UNL     1       2.803  -8.593  -2.406  0.00  0.00    +0.007 A 
ATOM     34  C   UNL     1       3.192  -9.757  -3.040  0.00  0.00    +0.046 A 
ATOM     35  C   UNL     1       3.963  -9.694  -4.192  0.00  0.00    +0.120 A 
ATOM     36  C   UNL     1       4.335  -8.461  -4.707  0.00  0.00    +0.046 A 
ATOM     37  C   UNL     1       3.938  -7.300  -4.073  0.00  0.00    +0.007 A 
BRANCH  35  38
ATOM     38  O   UNL     1       4.352 -10.837  -4.814  0.00  0.00    -0.495 OA
ATOM     39  C   UNL     1       3.932 -12.070  -4.227  0.00  0.00    +0.277 C 
ENDBRANCH  35  38
ENDBRANCH  31  32
ENDBRANCH  30  31
ENDBRANCH   4  30
TORSDOF 13
