REMARK  Name = ZINC41190371
REMARK  7 active torsions:
REMARK  status: ('A' for Active; 'I' for Inactive)
REMARK    1  A    between atoms: C_1  and  C_2
REMARK    2  A    between atoms: C_5  and  C_21
REMARK    3  A    between atoms: C_6  and  C_8
REMARK    4  A    between atoms: C_10  and  C_15
REMARK    5  A    between atoms: N_17  and  C_18
REMARK    6  A    between atoms: C_18  and  C_19
REMARK    7  A    between atoms: C_18  and  C_20
REMARK                            x       y       z     vdW  Elec       q    Type
REMARK                         _______ _______ _______ _____ _____    ______ ____
ROOT
ATOM      1  C   UNL     1       0.246  -3.206   2.200  0.00  0.00    +0.079 A 
ATOM      2  C   UNL     1       0.295  -2.725   3.512  0.00  0.00    +0.061 A 
ATOM      3  C   UNL     1       0.404  -3.647   4.550  0.00  0.00    +0.133 A 
ATOM      4  N   UNL     1       0.457  -4.945   4.258  0.00  0.00    -0.187 NA
ATOM      5  C   UNL     1       0.407  -5.362   3.005  0.00  0.00    +0.369 A 
ATOM      6  N   UNL     1       0.299  -4.519   1.992  0.00  0.00    -0.191 NA
ATOM      7  O   UNL     1       0.465  -6.691   2.751  0.00  0.00    -0.243 OA
ENDROOT
BRANCH   1  13
ATOM      8  C   UNL     1       1.743   0.930  -0.163  0.00  0.00    +0.044 C 
ATOM      9  C   UNL     1       0.847  -0.279  -0.081  0.00  0.00    -0.050 A 
ATOM     10  C   UNL     1      -0.087  -0.515  -1.075  0.00  0.00    +0.003 A 
ATOM     11  C   UNL     1      -0.912  -1.623  -1.007  0.00  0.00    +0.004 A 
ATOM     12  C   UNL     1      -0.808  -2.500   0.054  0.00  0.00    -0.041 A 
ATOM     13  C   UNL     1       0.130  -2.268   1.058  0.00  0.00    +0.004 A 
ATOM     14  C   UNL     1       0.963  -1.152   0.981  0.00  0.00    +0.013 A 
ATOM     15  C   UNL     1      -1.709  -3.706   0.127  0.00  0.00    +0.044 C 
ENDBRANCH   1  13
BRANCH   3  16
ATOM     16  C   UNL     1       0.461  -3.190   5.961  0.00  0.00    +0.263 C 
ATOM     17  O   UNL     1       0.412  -2.003   6.218  0.00  0.00    -0.269 OA
ATOM     18  N   UNL     1       0.566  -4.091   6.958  0.00  0.00    -0.308 N 
ATOM     19  H   UNL     1       0.605  -5.038   6.753  0.00  0.00    +0.149 HD
BRANCH  18  20
ATOM     20  C   UNL     1       0.622  -3.640   8.351  0.00  0.00    +0.067 C 
ATOM     21  C   UNL     1       0.123  -4.757   9.269  0.00  0.00    +0.027 C 
ATOM     22  C   UNL     1       2.066  -3.287   8.715  0.00  0.00    +0.027 C 
ENDBRANCH  18  20
ENDBRANCH   3  16
TORSDOF 3
