REMARK  Name = ZINC17040323
REMARK  7 active torsions:
REMARK  status: ('A' for Active; 'I' for Inactive)
REMARK    1  A    between atoms: C_1  and  C_2
REMARK    2  A    between atoms: C_2  and  C_22
REMARK    3  A    between atoms: N_7  and  C_8
REMARK    4  A    between atoms: C_11  and  C_14
REMARK    5  A    between atoms: C_14  and  C_15
REMARK    6  A    between atoms: C_15  and  C_16
REMARK    7  A    between atoms: C_16  and  C_18
REMARK                            x       y       z     vdW  Elec       q    Type
REMARK                         _______ _______ _______ _____ _____    ______ ____
ROOT
ATOM      1  C   UNL     1      -3.104   2.061  -2.209  0.00  0.00    +0.056 C 
ATOM      2  C   UNL     1      -2.967   2.195  -0.691  0.00  0.00    +0.109 C 
ATOM      3  N   UNL     1      -2.105   3.339  -0.372  0.00  0.00    -0.337 N 
ATOM      4  C   UNL     1      -1.331   3.309   0.680  0.00  0.00    +0.191 C 
ATOM      5  N   UNL     1      -1.260   2.232   1.480  0.00  0.00    -0.187 NA
ATOM      6  C   UNL     1      -1.761   1.071   1.101  0.00  0.00    +0.189 C 
ATOM      7  N   UNL     1      -2.345   0.980  -0.141  0.00  0.00    -0.250 N 
ATOM      8  N   UNL     1      -1.704  -0.017   1.928  0.00  0.00    -0.331 N 
ATOM      9  N   UNL     1      -0.567   4.418   0.980  0.00  0.00    -0.329 N 
ATOM     10  C   UNL     1      -4.348   2.397  -0.065  0.00  0.00    +0.056 C 
ATOM     11  H   UNL     1      -2.125  -0.979   1.600  0.00  0.00    +0.145 HD
ATOM     12  H   UNL     1      -1.238   0.069   2.920  0.00  0.00    +0.145 HD
ATOM     13  H   UNL     1       0.092   4.411   1.861  0.00  0.00    +0.145 HD
ATOM     14  H   UNL     1      -0.616   5.310   0.338  0.00  0.00    +0.145 HD
ATOM     15  H   UNL     1      -2.114   4.225  -1.023  0.00  0.00    +0.164 HD
ENDROOT
BRANCH   7  16
ATOM     16  C   UNL     1      -2.349  -0.223  -0.854  0.00  0.00    +0.038 A 
ATOM     17  C   UNL     1      -3.540  -0.911  -1.052  0.00  0.00    +0.024 A 
ATOM     18  C   UNL     1      -3.541  -2.095  -1.761  0.00  0.00    +0.005 A 
ATOM     19  C   UNL     1      -2.357  -2.603  -2.264  0.00  0.00    -0.047 A 
ATOM     20  C   UNL     1      -1.170  -1.924  -2.065  0.00  0.00    +0.005 A 
ATOM     21  C   UNL     1      -1.162  -0.735  -1.361  0.00  0.00    +0.024 A 
BRANCH  19  22
ATOM     22  C   UNL     1      -2.361  -3.900  -3.033  0.00  0.00    +0.042 C 
BRANCH  22  23
ATOM     23  C   UNL     1      -2.153  -5.066  -2.065  0.00  0.00    +0.080 C 
BRANCH  23  24
ATOM     24  C   UNL     1      -2.157  -6.363  -2.833  0.00  0.00    +0.148 C 
ATOM     25  O   UNL     1      -2.311  -6.355  -4.031  0.00  0.00    -0.296 OA
BRANCH  24  26
ATOM     26  C   UNL     1      -1.969  -7.670  -2.106  0.00  0.00    +0.182 C 
ATOM     27 CL   UNL     1      -2.022  -9.029  -3.290  0.00  0.00    -0.117 Cl
ENDBRANCH  24  26
ENDBRANCH  23  24
ENDBRANCH  22  23
ENDBRANCH  19  22
ENDBRANCH   7  16
TORSDOF 5
