REMARK  Name = ZINC01445218
REMARK  10 active torsions:
REMARK  status: ('A' for Active; 'I' for Inactive)
REMARK    1  A    between atoms: C_1  and  C_2
REMARK    2  A    between atoms: C_4  and  C_7
REMARK    3  A    between atoms: N_8  and  C_9
REMARK    4  A    between atoms: C_10  and  O_33
REMARK    5  A    between atoms: C_13  and  S_15
REMARK    6  A    between atoms: S_15  and  C_18
REMARK    7  A    between atoms: C_20  and  N_25
REMARK    8  A    between atoms: C_21  and  O_24
REMARK    9  A    between atoms: C_26  and  C_27
REMARK   10  A    between atoms: C_29  and  C_32
REMARK                            x       y       z     vdW  Elec       q    Type
REMARK                         _______ _______ _______ _____ _____    ______ ____
ROOT
ATOM      1  S   UNL     1      -1.673  -7.724  -3.924  0.00  0.00    +0.025 S 
ATOM      2  O   UNL     1      -2.727  -7.290  -3.075  0.00  0.00    -0.164 OA
ATOM      3  O   UNL     1      -1.912  -8.386  -5.159  0.00  0.00    -0.164 OA
ENDROOT
BRANCH   1   8
ATOM      4  C   UNL     1       0.041  -4.084  -3.736  0.00  0.00    +0.107 A 
ATOM      5  C   UNL     1       0.820  -4.058  -4.902  0.00  0.00    +0.142 A 
ATOM      6  C   UNL     1       0.824  -5.153  -5.749  0.00  0.00    +0.049 A 
ATOM      7  C   UNL     1       0.063  -6.268  -5.446  0.00  0.00    +0.031 A 
ATOM      8  C   UNL     1      -0.708  -6.297  -4.296  0.00  0.00    +0.096 A 
ATOM      9  C   UNL     1      -0.718  -5.217  -3.438  0.00  0.00    +0.058 A 
BRANCH   4  11
ATOM     10  C   UNL     1       0.038  -3.192  -1.598  0.00  0.00    +0.157 C 
ATOM     11  N   UNL     1       0.030  -3.008  -2.893  0.00  0.00    -0.248 NA
BRANCH  10  15
ATOM     12  C   UNL     1      -0.018   1.503   0.010  0.00  0.00    +0.086 C 
ATOM     13  C   UNL     1       0.002  -0.004   0.002  0.00  0.00    +0.103 A 
ATOM     14  O   UNL     1       0.008  -0.779  -1.093  0.00  0.00    -0.459 OA
ATOM     15  C   UNL     1       0.027  -2.076  -0.723  0.00  0.00    +0.146 A 
ATOM     16  C   UNL     1       0.034  -2.126   0.644  0.00  0.00    +0.051 A 
ATOM     17  C   UNL     1       0.023  -0.796   1.096  0.00  0.00    +0.045 A 
ENDBRANCH  10  15
ENDBRANCH   4  11
BRANCH   5  18
ATOM     18  O   UNL     1       1.567  -2.963  -5.199  0.00  0.00    -0.505 OA
ATOM     19  H   UNL     1       2.463  -2.989  -4.838  0.00  0.00    +0.292 HD
ENDBRANCH   5  18
ENDBRANCH   1   8
BRANCH   1  20
ATOM     20  C   UNL     1      -0.663  -8.800  -2.963  0.00  0.00    +0.096 A 
ATOM     21  C   UNL     1       0.127  -9.743  -3.589  0.00  0.00    +0.058 A 
ATOM     22  C   UNL     1       0.928 -10.596  -2.828  0.00  0.00    +0.107 A 
ATOM     23  C   UNL     1       0.923 -10.488  -1.430  0.00  0.00    +0.142 A 
ATOM     24  C   UNL     1       0.125  -9.537  -0.818  0.00  0.00    +0.049 A 
ATOM     25  C   UNL     1      -0.660  -8.694  -1.583  0.00  0.00    +0.031 A 
BRANCH  23  26
ATOM     26  O   UNL     1       1.699 -11.313  -0.679  0.00  0.00    -0.505 OA
ATOM     27  H   UNL     1       2.586 -10.969  -0.504  0.00  0.00    +0.292 HD
ENDBRANCH  23  26
BRANCH  22  28
ATOM     28  N   UNL     1       1.713 -11.532  -3.442  0.00  0.00    -0.248 NA
ATOM     29  C   UNL     1       2.347 -11.231  -4.545  0.00  0.00    +0.157 C 
BRANCH  29  30
ATOM     30  C   UNL     1       3.161 -12.203  -5.182  0.00  0.00    +0.146 A 
ATOM     31  O   UNL     1       3.362 -13.469  -4.761  0.00  0.00    -0.459 OA
ATOM     32  C   UNL     1       4.189 -14.094  -5.612  0.00  0.00    +0.103 A 
ATOM     33  C   UNL     1       4.533 -13.235  -6.596  0.00  0.00    +0.045 A 
ATOM     34  C   UNL     1       3.876 -12.022  -6.334  0.00  0.00    +0.051 A 
ATOM     35  C   UNL     1       4.657 -15.521  -5.490  0.00  0.00    +0.086 C 
ENDBRANCH  29  30
ENDBRANCH  22  28
ENDBRANCH   1  20
TORSDOF 8
