REMARK  Name = ZINC35955616
REMARK  6 active torsions:
REMARK  status: ('A' for Active; 'I' for Inactive)
REMARK    1  A    between atoms: C_1  and  C_2
REMARK    2  A    between atoms: C_7  and  C_8
REMARK    3  A    between atoms: N_10  and  C_11
REMARK    4  A    between atoms: C_17  and  N_19
REMARK    5  A    between atoms: C_20  and  C_22
REMARK    6  A    between atoms: C_29  and  C_31
REMARK                            x       y       z     vdW  Elec       q    Type
REMARK                         _______ _______ _______ _____ _____    ______ ____
ROOT
ATOM      1  N   UNL     1      -1.143  -1.424   5.725  0.00  0.00    -0.310 N 
ATOM      2  C   UNL     1      -1.823  -1.975   6.750  0.00  0.00    +0.218 C 
ATOM      3  O   UNL     1      -1.293  -2.097   7.834  0.00  0.00    -0.275 OA
ATOM      4  H   UNL     1      -1.566  -1.326   4.858  0.00  0.00    +0.149 HD
ENDROOT
BRANCH   2   5
ATOM      5  C   UNL     1      -3.242  -2.440   6.548  0.00  0.00    +0.092 C 
ATOM      6  C   UNL     1      -3.780  -3.020   7.858  0.00  0.00    +0.016 C 
ATOM      7  C   UNL     1      -5.210  -3.522   7.646  0.00  0.00    +0.020 C 
ATOM      8  C   UNL     1      -6.104  -2.348   7.235  0.00  0.00    +0.108 C 
ATOM      9  N   UNL     1      -5.513  -1.694   6.059  0.00  0.00    -0.297 N 
ATOM     10  C   UNL     1      -4.113  -1.253   6.124  0.00  0.00    +0.120 C 
ATOM     11  C   UNL     1      -6.242  -1.501   4.942  0.00  0.00    +0.247 C 
ATOM     12  O   UNL     1      -5.717  -1.049   3.943  0.00  0.00    -0.270 OA
BRANCH  11  13
ATOM     13  C   UNL     1      -7.681  -1.841   4.931  0.00  0.00    +0.037 A 
ATOM     14  C   UNL     1      -8.445  -1.678   6.100  0.00  0.00    +0.013 A 
ATOM     15  C   UNL     1      -9.768  -1.982   6.114  0.00  0.00    +0.009 A 
ATOM     16  C   UNL     1     -10.391  -2.468   4.950  0.00  0.00    -0.018 A 
ATOM     17  C   UNL     1     -11.759  -2.790   4.941  0.00  0.00    +0.008 A 
ATOM     18  C   UNL     1     -12.335  -3.257   3.800  0.00  0.00    +0.001 A 
ATOM     19  C   UNL     1     -11.588  -3.424   2.635  0.00  0.00    +0.001 A 
ATOM     20  C   UNL     1     -10.261  -3.123   2.605  0.00  0.00    +0.008 A 
ATOM     21  C   UNL     1      -9.631  -2.636   3.765  0.00  0.00    -0.017 A 
ATOM     22  C   UNL     1      -8.267  -2.311   3.767  0.00  0.00    +0.021 A 
ENDBRANCH  11  13
ENDBRANCH   2   5
BRANCH   1  28
ATOM     23  C   UNL     1       0.565   0.121   4.902  0.00  0.00    +0.093 C 
ATOM     24  C   UNL     1       2.006   0.593   5.107  0.00  0.00    +0.024 C 
ATOM     25  C   UNL     1       2.961  -0.587   4.914  0.00  0.00    +0.002 C 
ATOM     26  C   UNL     1       2.633  -1.680   5.933  0.00  0.00    +0.002 C 
ATOM     27  C   UNL     1       1.192  -2.152   5.728  0.00  0.00    +0.024 C 
ATOM     28  C   UNL     1       0.237  -0.972   5.921  0.00  0.00    +0.093 C 
BRANCH  23  31
ATOM     29  C   UNL     1       0.151   0.420   2.520  0.00  0.00    +0.245 C 
ATOM     30  O   UNL     1       0.039   1.613   2.719  0.00  0.00    -0.270 OA
ATOM     31  N   UNL     1       0.414  -0.413   3.547  0.00  0.00    -0.307 N 
ATOM     32  H   UNL     1       0.503  -1.365   3.388  0.00  0.00    +0.149 HD
BRANCH  29  39
ATOM     33  C   UNL     1      -0.253   2.235   0.303  0.00  0.00    +0.044 C 
ATOM     34  C   UNL     1      -0.197   0.747   0.075  0.00  0.00    -0.038 A 
ATOM     35  C   UNL     1      -0.333   0.237  -1.200  0.00  0.00    +0.004 A 
ATOM     36  C   UNL     1      -0.282  -1.129  -1.412  0.00  0.00    +0.000 A 
ATOM     37  C   UNL     1      -0.095  -1.993  -0.348  0.00  0.00    +0.001 A 
ATOM     38  C   UNL     1       0.043  -1.497   0.932  0.00  0.00    +0.013 A 
ATOM     39  C   UNL     1      -0.002  -0.119   1.152  0.00  0.00    +0.040 A 
ENDBRANCH  29  39
ENDBRANCH  23  31
ENDBRANCH   1  28
TORSDOF 5
