REMARK  Name = ZINC00703386
REMARK  10 active torsions:
REMARK  status: ('A' for Active; 'I' for Inactive)
REMARK    1  A    between atoms: C_1  and  C_2
REMARK    2  A    between atoms: C_2  and  C_4
REMARK    3  A    between atoms: C_2  and  O_8
REMARK    4  A    between atoms: C_4  and  O_6
REMARK    5  A    between atoms: O_6  and  C_7
REMARK    6  A    between atoms: O_8  and  C_9
REMARK    7  A    between atoms: C_17  and  O_20
REMARK    8  A    between atoms: O_20  and  C_21
REMARK    9  A    between atoms: C_24  and  O_27
REMARK   10  A    between atoms: O_27  and  C_28
REMARK                            x       y       z     vdW  Elec       q    Type
REMARK                         _______ _______ _______ _____ _____    ______ ____
ROOT
ATOM      1  C   UNL     1      -2.892   1.247  -0.293  0.00  0.00    +0.125 A 
ATOM      2  C   UNL     1      -2.519   2.507  -0.756  0.00  0.00    +0.046 A 
ATOM      3  C   UNL     1      -3.461   3.378  -1.225  0.00  0.00    +0.019 A 
ATOM      4  C   UNL     1      -4.804   3.001  -1.241  0.00  0.00    +0.068 A 
ATOM      5  C   UNL     1      -5.190   1.731  -0.776  0.00  0.00    +0.142 A 
ATOM      6  C   UNL     1      -4.220   0.856  -0.307  0.00  0.00    +0.092 A 
ATOM      7  O   UNL     1      -6.491   1.378  -0.795  0.00  0.00    -0.459 OA
ATOM      8  C   UNL     1      -7.451   2.197  -1.245  0.00  0.00    +0.245 A 
ATOM      9  C   UNL     1      -7.193   3.434  -1.713  0.00  0.00    +0.210 A 
ATOM     10  C   UNL     1      -5.851   3.910  -1.739  0.00  0.00    +0.234 A 
ATOM     11  O   UNL     1      -5.580   5.024  -2.154  0.00  0.00    -0.283 OA
ENDROOT
BRANCH   1  12
ATOM     12  O   UNL     1      -1.944   0.393   0.171  0.00  0.00    -0.478 OA
BRANCH  12  14
ATOM     13  C   UNL     1      -2.893  -0.905   1.976  0.00  0.00    +0.064 C 
ATOM     14  C   UNL     1      -2.376  -0.920   0.536  0.00  0.00    +0.278 C 
BRANCH  14  15
ATOM     15  C   UNL     1      -1.218  -1.878   0.427  0.00  0.00    +0.348 C 
ATOM     16  O   UNL     1      -0.115  -1.464   0.162  0.00  0.00    -0.247 OA
BRANCH  15  17
ATOM     17  O   UNL     1      -1.413  -3.191   0.626  0.00  0.00    -0.465 OA
ATOM     18  C   UNL     1      -0.253  -4.055   0.505  0.00  0.00    +0.280 C 
ENDBRANCH  15  17
ENDBRANCH  14  15
ENDBRANCH  12  14
ENDBRANCH   1  12
BRANCH   9  19
ATOM     19  O   UNL     1      -8.208   4.224  -2.159  0.00  0.00    -0.449 OA
BRANCH  19  20
ATOM     20  C   UNL     1      -9.481   3.767  -2.017  0.00  0.00    +0.129 A 
ATOM     21  C   UNL     1     -10.162   3.260  -3.114  0.00  0.00    +0.050 A 
ATOM     22  C   UNL     1     -11.453   2.791  -2.969  0.00  0.00    +0.049 A 
ATOM     23  C   UNL     1     -12.073   2.838  -1.729  0.00  0.00    +0.120 A 
ATOM     24  C   UNL     1     -11.394   3.350  -0.633  0.00  0.00    +0.049 A 
ATOM     25  C   UNL     1     -10.101   3.814  -0.777  0.00  0.00    +0.050 A 
BRANCH  23  26
ATOM     26  O   UNL     1     -13.346   2.382  -1.588  0.00  0.00    -0.495 OA
ATOM     27  C   UNL     1     -13.985   1.868  -2.758  0.00  0.00    +0.277 C 
ENDBRANCH  23  26
ENDBRANCH  19  20
ENDBRANCH   9  19
TORSDOF 7
