REMARK  Name = ZINC14253501
REMARK  5 active torsions:
REMARK  status: ('A' for Active; 'I' for Inactive)
REMARK    1  A    between atoms: C_1  and  C_2
REMARK    2  A    between atoms: C_2  and  C_21
REMARK    3  A    between atoms: N_5  and  C_9
REMARK    4  A    between atoms: C_9  and  C_10
REMARK    5  A    between atoms: C_13  and  C_15
REMARK                            x       y       z     vdW  Elec       q    Type
REMARK                         _______ _______ _______ _____ _____    ______ ____
ROOT
ATOM      1  C   UNL     1      -2.958   0.677   1.452  0.00  0.00    +0.047 C 
ATOM      2  C   UNL     1      -2.513   0.975   0.019  0.00  0.00    +0.135 C 
ATOM      3  C   UNL     1      -3.591   1.737  -0.726  0.00  0.00    +0.251 C 
ATOM      4  O   UNL     1      -4.039   2.829  -0.450  0.00  0.00    -0.272 OA
ATOM      5  N   UNL     1      -3.943   0.944  -1.762  0.00  0.00    -0.215 N 
ATOM      6  C   UNL     1      -3.247  -0.199  -1.769  0.00  0.00    +0.310 C 
ATOM      7  O   UNL     1      -3.390  -1.071  -2.603  0.00  0.00    -0.252 OA
ATOM      8  N   UNL     1      -2.372  -0.274  -0.750  0.00  0.00    -0.281 N 
ATOM      9  H   UNL     1      -1.766  -1.007  -0.559  0.00  0.00    +0.152 HD
ENDROOT
BRANCH   2  10
ATOM     10  C   UNL     1      -1.219   1.748   0.017  0.00  0.00    -0.015 A 
ATOM     11  C   UNL     1      -1.239   3.130   0.030  0.00  0.00    +0.006 A 
ATOM     12  C   UNL     1      -0.052   3.836   0.022  0.00  0.00    +0.004 A 
ATOM     13  C   UNL     1       1.159   3.164   0.008  0.00  0.00    -0.044 A 
ATOM     14  C   UNL     1       1.179   1.782   0.000  0.00  0.00    -0.044 A 
ATOM     15  C   UNL     1      -0.013   1.076   0.008  0.00  0.00    +0.010 A 
ATOM     16  C   UNL     1       2.610   1.291  -0.016  0.00  0.00    +0.036 C 
ATOM     17  C   UNL     1       3.450   2.509  -0.459  0.00  0.00    +0.009 C 
ATOM     18  C   UNL     1       2.576   3.696  -0.004  0.00  0.00    +0.036 C 
ENDBRANCH   2  10
BRANCH   5  19
ATOM     19  C   UNL     1      -4.965   1.292  -2.753  0.00  0.00    +0.215 C 
BRANCH  19  20
ATOM     20  C   UNL     1      -6.309   0.799  -2.282  0.00  0.00    +0.235 A 
ATOM     21  N   UNL     1      -7.157   1.462  -1.547  0.00  0.00    -0.110 NA
ATOM     22  N   UNL     1      -8.202   0.742  -1.338  0.00  0.00    -0.107 NA
ATOM     23  C   UNL     1      -8.052  -0.422  -1.931  0.00  0.00    +0.255 A 
ATOM     24  O   UNL     1      -6.848  -0.406  -2.541  0.00  0.00    -0.418 OA
BRANCH  23  25
ATOM     25  C   UNL     1      -9.015  -1.533  -1.931  0.00  0.00    +0.077 A 
ATOM     26  C   UNL     1     -10.257  -1.609  -1.328  0.00  0.00    +0.022 A 
ATOM     27  C   UNL     1     -10.984  -2.768  -1.470  0.00  0.00    +0.024 A 
ATOM     28  C   UNL     1     -10.462  -3.795  -2.193  0.00  0.00    +0.056 A 
ATOM     29  S   UNL     1      -8.889  -3.132  -2.714  0.00  0.00    -0.077 S 
ATOM     30 BR   UNL     1     -11.216  -5.490  -2.560  0.00  0.00    -0.043 Br
ENDBRANCH  23  25
ENDBRANCH  19  20
ENDBRANCH   5  19
TORSDOF 4
