REMARK  Name = ZINC60409844
REMARK  7 active torsions:
REMARK  status: ('A' for Active; 'I' for Inactive)
REMARK    1  A    between atoms: C_4  and  S_8
REMARK    2  A    between atoms: S_8  and  C_9
REMARK    3  A    between atoms: C_9  and  C_10
REMARK    4  A    between atoms: C_10  and  C_11
REMARK    5  A    between atoms: N_13  and  C_14
REMARK    6  A    between atoms: C_18  and  S_20
REMARK    7  A    between atoms: S_20  and  N_23
REMARK                            x       y       z     vdW  Elec       q    Type
REMARK                         _______ _______ _______ _____ _____    ______ ____
ROOT
ATOM      1  C   UNL     1       7.612   0.990  -0.071  0.00  0.00    +0.218 C 
ATOM      2  O   UNL     1       7.259   2.151  -0.070  0.00  0.00    -0.275 OA
ATOM      3  N   UNL     1       8.925   0.686  -0.085  0.00  0.00    -0.285 N 
ATOM      4  H   UNL     1       9.209  -0.239  -0.018  0.00  0.00    +0.155 HD
ENDROOT
BRANCH   3   5
ATOM      5  C   UNL     1       9.879   1.704  -0.195  0.00  0.00    +0.038 A 
ATOM      6  C   UNL     1      11.049   1.486  -0.909  0.00  0.00    +0.061 A 
ATOM      7  C   UNL     1      11.989   2.495  -1.016  0.00  0.00    +0.127 A 
ATOM      8  C   UNL     1      11.763   3.720  -0.411  0.00  0.00    +0.067 A 
ATOM      9  C   UNL     1      10.598   3.938   0.301  0.00  0.00    +0.109 A 
ATOM     10  C   UNL     1       9.653   2.936   0.406  0.00  0.00    +0.052 A 
ATOM     11  F   UNL     1      13.129   2.285  -1.710  0.00  0.00    -0.205 F 
BRANCH   9  12
ATOM     12  S   UNL     1      10.315   5.497   1.070  0.00  0.00    +0.056 S 
ATOM     13  O   UNL     1       9.400   5.266   2.132  0.00  0.00    -0.153 OA
ATOM     14  O   UNL     1      11.592   6.085   1.279  0.00  0.00    -0.153 OA
BRANCH  12  15
ATOM     15  N   UNL     1       9.530   6.452  -0.032  0.00  0.00    -0.204 NA
ATOM     16  H   UNL     1       8.915   7.137   0.271  0.00  0.00    +0.144 HD
ATOM     17  H   UNL     1       9.685   6.324  -0.981  0.00  0.00    +0.144 HD
ENDBRANCH  12  15
ENDBRANCH   9  12
ENDBRANCH   3   5
BRANCH   1  18
ATOM     18  C   UNL     1       6.583  -0.111  -0.058  0.00  0.00    +0.107 C 
BRANCH  18  19
ATOM     19  C   UNL     1       5.181   0.502  -0.044  0.00  0.00    +0.084 C 
BRANCH  19  20
ATOM     20  S   UNL     1       3.943  -0.824  -0.028  0.00  0.00    -0.122 S 
BRANCH  20  24
ATOM     21  C   UNL     1      -0.017   1.378   0.007  0.00  0.00    +0.003 A 
ATOM     22  C   UNL     1       1.169   2.089  -0.006  0.00  0.00    +0.001 A 
ATOM     23  C   UNL     1       2.378   1.421  -0.017  0.00  0.00    +0.017 A 
ATOM     24  C   UNL     1       2.403   0.032  -0.014  0.00  0.00    +0.043 A 
ATOM     25  C   UNL     1       1.208  -0.681  -0.000  0.00  0.00    +0.137 A 
ATOM     26  C   UNL     1       0.002  -0.005   0.010  0.00  0.00    +0.039 A 
ATOM     27  F   UNL     1       1.227  -2.032   0.002  0.00  0.00    -0.204 F 
ENDBRANCH  20  24
ENDBRANCH  19  20
ENDBRANCH  18  19
ENDBRANCH   1  18
TORSDOF 7
