REMARK  Name = ZINC49532948
REMARK  5 active torsions:
REMARK  status: ('A' for Active; 'I' for Inactive)
REMARK    1  A    between atoms: C_1  and  C_2
REMARK    2  A    between atoms: C_2  and  C_3
REMARK    3  A    between atoms: C_3  and  C_5
REMARK    4  A    between atoms: C_3  and  N_10
REMARK    5  A    between atoms: C_17  and  C_20
REMARK                            x       y       z     vdW  Elec       q    Type
REMARK                         _______ _______ _______ _____ _____    ______ ____
ROOT
ATOM      1  N   UNL     1      -2.086  -0.164   1.271  0.00  0.00    -0.292 N 
ATOM      2  C   UNL     1      -2.664   1.047   1.400  0.00  0.00    +0.303 C 
ATOM      3  O   UNL     1      -2.569   1.865   0.505  0.00  0.00    -0.253 OA
ATOM      4  N   UNL     1      -3.347   1.351   2.522  0.00  0.00    -0.285 N 
ATOM      5  C   UNL     1      -4.083   2.618   2.629  0.00  0.00    +0.109 C 
ATOM      6  C   UNL     1      -3.631   3.345   3.899  0.00  0.00    +0.020 C 
ATOM      7  C   UNL     1      -3.802   2.415   5.103  0.00  0.00    +0.018 C 
ATOM      8  C   UNL     1      -2.925   1.174   4.918  0.00  0.00    +0.119 C 
ATOM      9  C   UNL     1      -3.374   0.420   3.657  0.00  0.00    +0.124 C 
ATOM     10  H   UNL     1      -2.108  -0.793   2.009  0.00  0.00    +0.151 HD
ENDROOT
BRANCH   8  11
ATOM     11  C   UNL     1      -3.069   0.275   6.119  0.00  0.00    +0.361 C 
ATOM     12  O   UNL     1      -2.942  -0.932   5.995  0.00  0.00    -0.246 OA
ATOM     13  O   UNL     1      -3.311   0.753   7.214  0.00  0.00    -0.246 OA
ENDBRANCH   8  11
BRANCH   1  14
ATOM     14  C   UNL     1      -1.424  -0.529   0.016  0.00  0.00    +0.111 C 
BRANCH  14  15
ATOM     15  C   UNL     1      -1.412  -2.029  -0.127  0.00  0.00    +0.010 A 
ATOM     16  C   UNL     1      -1.611  -2.783  -1.236  0.00  0.00    +0.013 A 
ATOM     17  C   UNL     1      -1.553  -4.160  -1.131  0.00  0.00    +0.008 A 
ATOM     18  C   UNL     1      -1.298  -4.716   0.079  0.00  0.00    +0.045 A 
ATOM     19  S   UNL     1      -1.125  -3.275   1.119  0.00  0.00    -0.100 S 
ENDBRANCH  14  15
BRANCH  14  21
ATOM     20  C   UNL     1      -0.000   1.523   0.046  0.00  0.00    +0.006 C 
ATOM     21  C   UNL     1       0.014  -0.006   0.026  0.00  0.00    +0.024 C 
ENDBRANCH  14  21
ENDBRANCH   1  14
TORSDOF 4
