REMARK  Name = ZINC57899281
REMARK  9 active torsions:
REMARK  status: ('A' for Active; 'I' for Inactive)
REMARK    1  A    between atoms: C_1  and  C_2
REMARK    2  A    between atoms: C_2  and  C_3
REMARK    3  A    between atoms: C_2  and  C_4
REMARK    4  A    between atoms: C_4  and  O_5
REMARK    5  A    between atoms: O_5  and  C_6
REMARK    6  A    between atoms: C_9  and  C_13
REMARK    7  A    between atoms: C_11  and  N_12
REMARK    8  A    between atoms: C_14  and  C_15
REMARK    9  A    between atoms: N_17  and  C_18
REMARK                            x       y       z     vdW  Elec       q    Type
REMARK                         _______ _______ _______ _____ _____    ______ ____
ROOT
ATOM      1  C   UNL     1       2.985   0.133  -2.431  0.00  0.00    +0.141 A 
ATOM      2  C   UNL     1       2.511  -0.964  -3.138  0.00  0.00    +0.048 A 
ATOM      3  C   UNL     1       3.265  -1.513  -4.152  0.00  0.00    +0.011 A 
ATOM      4  C   UNL     1       4.512  -0.965  -4.473  0.00  0.00    -0.023 A 
ATOM      5  C   UNL     1       4.990   0.141  -3.761  0.00  0.00    +0.034 A 
ATOM      6  C   UNL     1       4.225   0.689  -2.748  0.00  0.00    +0.067 A 
ENDROOT
BRANCH   6   7
ATOM      7  N   UNL     1       4.696   1.799  -2.037  0.00  0.00    -0.355 N 
ATOM      8  H   UNL     1       4.161   2.181  -1.324  0.00  0.00    +0.142 HD
ATOM      9  H   UNL     1       5.558   2.186  -2.257  0.00  0.00    +0.142 HD
ENDBRANCH   6   7
BRANCH   4  10
ATOM     10  C   UNL     1       5.318  -1.550  -5.554  0.00  0.00    +0.013 C 
ATOM     11  C   UNL     1       6.646  -1.730  -5.385  0.00  0.00    +0.073 C 
BRANCH  11  12
ATOM     12  C   UNL     1       7.221  -1.597  -4.096  0.00  0.00    +0.273 C 
ATOM     13  O   UNL     1       6.426  -1.435  -3.014  0.00  0.00    -0.266 OA
ATOM     14  N   UNL     1       8.531  -1.631  -3.952  0.00  0.00    -0.172 NA
BRANCH  14  15
ATOM     15  C   UNL     1       9.079  -1.503  -2.723  0.00  0.00    +0.249 A 
ATOM     16  N   UNL     1       8.421  -1.341  -1.587  0.00  0.00    -0.198 NA
ATOM     17  H   UNL     1      11.142  -1.633  -3.054  0.00  0.00    +0.192 HD
ATOM     18  C   UNL     1       9.284  -1.252  -0.578  0.00  0.00    +0.247 A 
ATOM     19  N   UNL     1      10.504  -1.355  -1.038  0.00  0.00    -0.159 NA
ATOM     20  N   UNL     1      10.409  -1.525  -2.429  0.00  0.00    -0.243 N 
ENDBRANCH  14  15
ENDBRANCH  11  12
ENDBRANCH   4  10
BRANCH   1  21
ATOM     21  O   UNL     1       2.236   0.670  -1.433  0.00  0.00    -0.490 OA
BRANCH  21  22
ATOM     22  C   UNL     1       0.977   0.051  -1.161  0.00  0.00    +0.232 C 
BRANCH  22  24
ATOM     23  C   UNL     1      -0.053   2.215  -0.454  0.00  0.00    +0.010 C 
ATOM     24  C   UNL     1       0.284   0.789  -0.014  0.00  0.00    +0.020 C 
ATOM     25  C   UNL     1      -1.005   0.053   0.360  0.00  0.00    +0.010 C 
ENDBRANCH  22  24
ENDBRANCH  21  22
ENDBRANCH   1  21
TORSDOF 7
