REMARK  Name = ZINC11423903
REMARK  10 active torsions:
REMARK  status: ('A' for Active; 'I' for Inactive)
REMARK    1  A    between atoms: C_1  and  C_2
REMARK    2  A    between atoms: C_2  and  C_32
REMARK    3  A    between atoms: C_4  and  N_9
REMARK    4  A    between atoms: C_6  and  C_7
REMARK    5  A    between atoms: C_6  and  C_8
REMARK    6  A    between atoms: C_10  and  C_12
REMARK    7  A    between atoms: C_12  and  S_13
REMARK    8  A    between atoms: S_13  and  C_14
REMARK    9  A    between atoms: C_17  and  C_25
REMARK   10  A    between atoms: N_18  and  C_19
REMARK                            x       y       z     vdW  Elec       q    Type
REMARK                         _______ _______ _______ _____ _____    ______ ____
ROOT
ATOM      1  S   UNL     1       1.758  -2.125  -0.027  0.00  0.00    -0.076 S 
ENDROOT
BRANCH   1   2
ATOM      2  C   UNL     1       1.242  -0.440  -0.012  0.00  0.00    +0.197 A 
ATOM      3  N   UNL     1       0.002  -0.004   0.002  0.00  0.00    -0.122 NA
ATOM      4  N   UNL     1      -0.015   1.281   0.009  0.00  0.00    -0.128 NA
ATOM      5  C   UNL     1       1.212   1.747  -0.000  0.00  0.00    +0.169 A 
ATOM      6  N   UNL     1       2.057   0.659  -0.014  0.00  0.00    -0.270 N 
BRANCH   5   7
ATOM      7  C   UNL     1       1.611   3.170   0.004  0.00  0.00    +0.020 A 
ATOM      8  C   UNL     1       2.922   3.531  -0.314  0.00  0.00    +0.014 A 
ATOM      9  C   UNL     1       3.288   4.861  -0.314  0.00  0.00    +0.039 A 
ATOM     10  C   UNL     1       2.360   5.837   0.012  0.00  0.00    +0.123 A 
ATOM     11  C   UNL     1       1.059   5.484   0.334  0.00  0.00    +0.039 A 
ATOM     12  C   UNL     1       0.681   4.158   0.332  0.00  0.00    +0.014 A 
ATOM     13  F   UNL     1       2.725   7.138   0.016  0.00  0.00    -0.205 F 
ENDBRANCH   5   7
BRANCH   6  14
ATOM     14  C   UNL     1       3.459   0.675  -0.026  0.00  0.00    +0.051 A 
ATOM     15  C   UNL     1       4.158   1.190   1.057  0.00  0.00    +0.026 A 
ATOM     16  C   UNL     1       5.539   1.199   1.044  0.00  0.00    +0.002 A 
ATOM     17  C   UNL     1       6.225   0.706  -0.051  0.00  0.00    +0.000 A 
ATOM     18  C   UNL     1       5.531   0.197  -1.134  0.00  0.00    +0.002 A 
ATOM     19  C   UNL     1       4.150   0.180  -1.124  0.00  0.00    +0.026 A 
ENDBRANCH   6  14
ENDBRANCH   1   2
BRANCH   1  20
ATOM     20  C   UNL     1       0.146  -2.947  -0.015  0.00  0.00    +0.173 C 
BRANCH  20  22
ATOM     21  N   UNL     1      -0.725  -5.263  -0.020  0.00  0.00    -0.312 N 
ATOM     22  C   UNL     1       0.344  -4.441  -0.026  0.00  0.00    +0.224 C 
ATOM     23  O   UNL     1       1.465  -4.904  -0.039  0.00  0.00    -0.275 OA
ATOM     24  H   UNL     1      -1.621  -4.892  -0.009  0.00  0.00    +0.149 HD
BRANCH  21  28
ATOM     25  C   UNL     1      -0.598  -9.330   1.662  0.00  0.00    -0.010 C 
ATOM     26  C   UNL     1      -1.591  -8.910   0.572  0.00  0.00    -0.072 C 
ATOM     27  C   UNL     1      -1.756  -7.393   0.588  0.00  0.00    +0.009 C 
ATOM     28  C   UNL     1      -0.531  -6.718  -0.030  0.00  0.00    +0.070 C 
ATOM     29  C   UNL     1      -0.391  -7.197  -1.474  0.00  0.00    +0.009 C 
ATOM     30  C   UNL     1      -0.211  -8.713  -1.517  0.00  0.00    -0.072 C 
ATOM     31  C   UNL     1       1.215  -9.072  -1.084  0.00  0.00    -0.010 C 
ATOM     32  C   UNL     1      -0.368  -9.158  -2.988  0.00  0.00    -0.010 C 
ATOM     33  C   UNL     1      -2.959  -9.531   0.936  0.00  0.00    -0.010 C 
ATOM     34  N   UNL     1      -1.224  -9.486  -0.750  0.00  0.00    +0.386 N 
ATOM     35  H   UNL     1      -2.077  -9.544  -1.319  0.00  0.00    -0.084 HD
ATOM     36  H   UNL     1      -0.852 -10.430  -0.593  0.00  0.00    -0.084 HD
ENDBRANCH  21  28
ENDBRANCH  20  22
ENDBRANCH   1  20
TORSDOF 6
