REMARK  Name = ZINC35329191
REMARK  13 active torsions:
REMARK  status: ('A' for Active; 'I' for Inactive)
REMARK    1  A    between atoms: C_1  and  C_2
REMARK    2  A    between atoms: C_2  and  S_3
REMARK    3  A    between atoms: S_3  and  C_4
REMARK    4  A    between atoms: C_4  and  C_5
REMARK    5  A    between atoms: C_5  and  O_6
REMARK    6  A    between atoms: O_6  and  C_7
REMARK    7  A    between atoms: C_7  and  C_9
REMARK    8  A    between atoms: C_10  and  C_36
REMARK    9  A    between atoms: C_14  and  C_16
REMARK   10  A    between atoms: C_26  and  C_32
REMARK   11  A    between atoms: C_28  and  C_31
REMARK   12  A    between atoms: C_32  and  O_34
REMARK   13  A    between atoms: O_34  and  C_35
REMARK                            x       y       z     vdW  Elec       q    Type
REMARK                         _______ _______ _______ _____ _____    ______ ____
ROOT
ATOM      1  C   UNL     1       2.045  -6.506  -3.704  0.00  0.00    +0.065 C 
ATOM      2  C   UNL     1       2.601  -7.210  -4.705  0.00  0.00    +0.016 C 
ATOM      3  N   UNL     1       2.546  -8.576  -4.705  0.00  0.00    -0.321 N 
ATOM      4  C   UNL     1       2.298  -9.264  -3.549  0.00  0.00    +0.016 C 
ATOM      5  C   UNL     1       1.730  -8.646  -2.491  0.00  0.00    +0.025 C 
ATOM      6  C   UNL     1       1.350  -7.190  -2.564  0.00  0.00    +0.094 C 
ATOM      7  C   UNL     1       1.484  -9.338  -1.292  0.00  0.00    +0.176 C 
ATOM      8  O   UNL     1       0.964  -8.753  -0.363  0.00  0.00    -0.291 OA
ATOM      9  C   UNL     1       1.852 -10.788  -1.140  0.00  0.00    +0.171 C 
ATOM     10  C   UNL     1       3.044 -11.099  -2.051  0.00  0.00    +0.013 C 
ATOM     11  C   UNL     1       2.668 -10.726  -3.487  0.00  0.00    +0.055 C 
ATOM     12  C   UNL     1       4.259 -10.284  -1.605  0.00  0.00    +0.009 C 
ATOM     13  C   UNL     1       3.290  -6.488  -5.835  0.00  0.00    +0.061 C 
ATOM     14  H   UNL     1       2.685  -9.062  -5.533  0.00  0.00    +0.152 HD
ENDROOT
BRANCH   6  15
ATOM     15  C   UNL     1      -0.140  -7.082  -2.756  0.00  0.00    -0.015 A 
ATOM     16  C   UNL     1      -0.733  -7.623  -3.881  0.00  0.00    +0.006 A 
ATOM     17  C   UNL     1      -2.101  -7.524  -4.059  0.00  0.00    +0.002 A 
ATOM     18  C   UNL     1      -2.877  -6.883  -3.111  0.00  0.00    +0.021 A 
ATOM     19  C   UNL     1      -2.285  -6.341  -1.984  0.00  0.00    +0.060 A 
ATOM     20  C   UNL     1      -0.916  -6.446  -1.804  0.00  0.00    +0.063 A 
ATOM     21 CL   UNL     1      -0.173  -5.772  -0.387  0.00  0.00    -0.082 Cl
ATOM     22 CL   UNL     1      -3.259  -5.536  -0.794  0.00  0.00    -0.082 Cl
ENDBRANCH   6  15
BRANCH   1  23
ATOM     23  C   UNL     1       2.122  -5.094  -3.723  0.00  0.00    +0.338 C 
ATOM     24  O   UNL     1       2.807  -4.533  -4.558  0.00  0.00    -0.245 OA
BRANCH  23  25
ATOM     25  O   UNL     1       1.435  -4.369  -2.816  0.00  0.00    -0.460 OA
BRANCH  25  26
ATOM     26  C   UNL     1       1.558  -2.947  -2.894  0.00  0.00    +0.243 C 
BRANCH  26  27
ATOM     27  C   UNL     1       0.714  -2.301  -1.793  0.00  0.00    +0.110 C 
BRANCH  27  28
ATOM     28  S   UNL     1       0.871  -0.496  -1.892  0.00  0.00    -0.158 S 
BRANCH  28  30
ATOM     29  C   UNL     1      -0.133   1.639  -0.507  0.00  0.00    +0.015 C 
ATOM     30  C   UNL     1      -0.175   0.110  -0.539  0.00  0.00    +0.066 C 
ENDBRANCH  28  30
ENDBRANCH  27  28
ENDBRANCH  26  27
ENDBRANCH  25  26
ENDBRANCH  23  25
ENDBRANCH   1  23
BRANCH   9  31
ATOM     31  C   UNL     1       2.225 -11.066   0.294  0.00  0.00    +0.318 C 
ATOM     32  O   UNL     1       2.818 -10.231   0.936  0.00  0.00    -0.250 OA
BRANCH  31  33
ATOM     33  O   UNL     1       1.899 -12.239   0.857  0.00  0.00    -0.467 OA
ATOM     34  C   UNL     1       2.284 -12.434   2.220  0.00  0.00    +0.280 C 
ENDBRANCH  31  33
ENDBRANCH   9  31
TORSDOF 9
