REMARK  Name = ZINC08030293
REMARK  6 active torsions:
REMARK  status: ('A' for Active; 'I' for Inactive)
REMARK    1  A    between atoms: C_1  and  C_2
REMARK    2  A    between atoms: C_2  and  C_4
REMARK    3  A    between atoms: C_2  and  S_17
REMARK    4  A    between atoms: N_6  and  C_7
REMARK    5  A    between atoms: C_12  and  C_13
REMARK    6  A    between atoms: S_17  and  C_18
REMARK                            x       y       z     vdW  Elec       q    Type
REMARK                         _______ _______ _______ _____ _____    ______ ____
ROOT
ATOM      1  C   UNL     1       1.400   1.611   0.002  0.00  0.00    +0.230 C 
ATOM      2  O   UNL     1       1.667   2.629  -0.601  0.00  0.00    -0.274 OA
ATOM      3  N   UNL     1       2.371   0.940   0.654  0.00  0.00    -0.284 N 
ATOM      4  H   UNL     1       2.147   0.163   1.190  0.00  0.00    +0.155 HD
ENDROOT
BRANCH   3   5
ATOM      5  C   UNL     1       3.700   1.365   0.558  0.00  0.00    +0.045 A 
ATOM      6  C   UNL     1       3.993   2.720   0.467  0.00  0.00    +0.024 A 
ATOM      7  C   UNL     1       5.307   3.136   0.378  0.00  0.00    +0.002 A 
ATOM      8  C   UNL     1       6.330   2.205   0.369  0.00  0.00    +0.001 A 
ATOM      9  C   UNL     1       6.041   0.856   0.455  0.00  0.00    +0.014 A 
ATOM     10  C   UNL     1       4.729   0.433   0.549  0.00  0.00    +0.076 A 
BRANCH  10  11
ATOM     11  C   UNL     1       4.416  -1.038   0.642  0.00  0.00    +0.419 C 
ATOM     12  F   UNL     1       5.607  -1.772   0.614  0.00  0.00    -0.166 F 
ATOM     13  F   UNL     1       3.737  -1.296   1.838  0.00  0.00    -0.166 F 
ATOM     14  F   UNL     1       3.612  -1.413  -0.440  0.00  0.00    -0.166 F 
ENDBRANCH  10  11
ENDBRANCH   3   5
BRANCH   1  16
ATOM     15  C   UNL     1      -0.722   1.594   1.284  0.00  0.00    +0.029 C 
ATOM     16  C   UNL     1      -0.016   1.095   0.021  0.00  0.00    +0.136 C 
BRANCH  16  17
ATOM     17  S   UNL     1      -0.899   1.698  -1.444  0.00  0.00    -0.084 S 
BRANCH  17  18
ATOM     18  C   UNL     1      -2.468   0.901  -1.354  0.00  0.00    +0.161 A 
ATOM     19  N   UNL     1      -2.925   0.054  -0.452  0.00  0.00    -0.133 NA
ATOM     20  N   UNL     1      -4.198  -0.452  -0.571  0.00  0.00    -0.125 NA
ATOM     21  C   UNL     1      -4.952  -0.097  -1.593  0.00  0.00    +0.180 A 
ATOM     22  S   UNL     1      -3.862   1.018  -2.464  0.00  0.00    -0.025 S 
ATOM     23  N   UNL     1      -6.249  -0.486  -1.908  0.00  0.00    -0.336 N 
ATOM     24  H   UNL     1      -6.681  -0.137  -2.703  0.00  0.00    +0.144 HD
ATOM     25  H   UNL     1      -6.722  -1.107  -1.332  0.00  0.00    +0.144 HD
ENDBRANCH  17  18
ENDBRANCH  16  17
ENDBRANCH   1  16
TORSDOF 5
