REMARK  Name = ZINC24347549
REMARK  6 active torsions:
REMARK  status: ('A' for Active; 'I' for Inactive)
REMARK    1  A    between atoms: C_9  and  N_14
REMARK    2  A    between atoms: C_15  and  C_17
REMARK    3  A    between atoms: C_17  and  C_18
REMARK    4  A    between atoms: C_18  and  S_19
REMARK    5  A    between atoms: S_19  and  C_20
REMARK    6  A    between atoms: C_20  and  C_21
REMARK                            x       y       z     vdW  Elec       q    Type
REMARK                         _______ _______ _______ _____ _____    ______ ____
ROOT
ATOM      1  C   UNL     1       0.734  -8.167  -0.270  0.00  0.00    +0.107 C 
ENDROOT
BRANCH   1   3
ATOM      2  N   UNL     1       0.851  -5.707  -0.041  0.00  0.00    -0.285 N 
ATOM      3  C   UNL     1       1.507  -6.879  -0.157  0.00  0.00    +0.218 C 
ATOM      4  O   UNL     1       2.720  -6.896  -0.170  0.00  0.00    -0.275 OA
ATOM      5  H   UNL     1      -0.115  -5.699   0.047  0.00  0.00    +0.155 HD
BRANCH   2  14
ATOM      6  C   UNL     1       6.633  -2.576  -2.811  0.00  0.00    +0.001 A 
ATOM      7  C   UNL     1       6.814  -1.265  -2.400  0.00  0.00    +0.004 A 
ATOM      8  C   UNL     1       5.922  -0.673  -1.532  0.00  0.00    +0.047 A 
ATOM      9  C   UNL     1       4.829  -1.389  -1.060  0.00  0.00    +0.136 A 
ATOM     10  C   UNL     1       4.648  -2.715  -1.478  0.00  0.00    +0.028 A 
ATOM     11  C   UNL     1       5.554  -3.303  -2.354  0.00  0.00    +0.012 A 
ATOM     12  C   UNL     1       3.420  -3.182  -0.807  0.00  0.00    +0.030 A 
ATOM     13  C   UNL     1       2.717  -4.382  -0.806  0.00  0.00    +0.035 A 
ATOM     14  C   UNL     1       1.565  -4.501  -0.046  0.00  0.00    +0.034 A 
ATOM     15  C   UNL     1       1.117  -3.424   0.711  0.00  0.00    +0.027 A 
ATOM     16  C   UNL     1       1.810  -2.233   0.713  0.00  0.00    +0.049 A 
ATOM     17  C   UNL     1       2.967  -2.096  -0.044  0.00  0.00    +0.136 A 
ATOM     18  O   UNL     1       3.822  -1.063  -0.220  0.00  0.00    -0.455 OA
ENDBRANCH   2  14
ENDBRANCH   1   3
BRANCH   1  19
ATOM     19  C   UNL     1       1.710  -9.339  -0.389  0.00  0.00    +0.079 C 
BRANCH  19  20
ATOM     20  S   UNL     1       0.779 -10.890  -0.526  0.00  0.00    -0.153 S 
BRANCH  20  21
ATOM     21  C   UNL     1       2.064 -12.164  -0.657  0.00  0.00    +0.143 C 
BRANCH  21  22
ATOM     22  C   UNL     1       1.417 -13.519  -0.778  0.00  0.00    +0.121 A 
ATOM     23  N   UNL     1       2.200 -14.624  -0.883  0.00  0.00    -0.310 N 
ATOM     24  H   UNL     1       3.165 -14.525  -0.879  0.00  0.00    +0.170 HD
ATOM     25  C   UNL     1       1.664 -15.854  -0.994  0.00  0.00    +0.260 A 
ATOM     26  O   UNL     1       2.379 -16.837  -1.087  0.00  0.00    -0.267 OA
ATOM     27  C   UNL     1       0.237 -15.986  -0.999  0.00  0.00    +0.075 A 
ATOM     28  C   UNL     1      -0.559 -17.218  -1.107  0.00  0.00    -0.023 A 
ATOM     29  C   UNL     1      -1.896 -17.081  -1.089  0.00  0.00    -0.004 A 
ATOM     30  S   UNL     1      -2.176 -15.332  -0.925  0.00  0.00    -0.073 S 
ATOM     31  C   UNL     1      -0.487 -14.793  -0.885  0.00  0.00    +0.116 A 
ATOM     32  N   UNL     1       0.114 -13.611  -0.774  0.00  0.00    -0.226 NA
ATOM     33  C   UNL     1      -2.605 -18.403  -1.212  0.00  0.00    +0.043 C 
ATOM     34  C   UNL     1      -1.527 -19.372  -1.745  0.00  0.00    +0.010 C 
ATOM     35  C   UNL     1      -0.231 -18.708  -1.241  0.00  0.00    +0.037 C 
ENDBRANCH  21  22
ENDBRANCH  20  21
ENDBRANCH  19  20
ENDBRANCH   1  19
TORSDOF 6
