REMARK  Name = ZINC28579343
REMARK  4 active torsions:
REMARK  status: ('A' for Active; 'I' for Inactive)
REMARK    1  A    between atoms: C_1  and  C_2
REMARK    2  A    between atoms: C_9  and  N_13
REMARK    3  A    between atoms: C_10  and  C_11
REMARK    4  A    between atoms: N_16  and  C_17
REMARK                            x       y       z     vdW  Elec       q    Type
REMARK                         _______ _______ _______ _____ _____    ______ ____
ROOT
ATOM      1  N   UNL     1      -2.507   1.631   0.006  0.00  0.00    -0.262 N 
ATOM      2  C   UNL     1      -3.557   2.476   0.026  0.00  0.00    +0.309 C 
ATOM      3  O   UNL     1      -3.370   3.677   0.035  0.00  0.00    -0.252 OA
ATOM      4  N   UNL     1      -4.814   1.989   0.035  0.00  0.00    -0.268 N 
ATOM      5  H   UNL     1      -2.676   0.544  -0.003  0.00  0.00    +0.157 HD
ATOM      6  H   UNL     1      -4.985   0.906  -0.048  0.00  0.00    +0.156 HD
ENDROOT
BRANCH   1  14
ATOM      7  C   UNL     1       4.623   4.851   0.029  0.00  0.00    +0.008 C 
ATOM      8  C   UNL     1       3.463   3.899   0.323  0.00  0.00    -0.009 C 
ATOM      9  C   UNL     1       3.608   2.634  -0.529  0.00  0.00    +0.008 C 
ATOM     10  C   UNL     1       2.604   1.577  -0.066  0.00  0.00    +0.037 C 
ATOM     11  C   UNL     1       1.214   2.200  -0.037  0.00  0.00    -0.018 A 
ATOM     12  C   UNL     1       1.054   3.542  -0.021  0.00  0.00    -0.004 A 
ATOM     13  S   UNL     1      -0.700   3.787   0.010  0.00  0.00    -0.077 S 
ATOM     14  C   UNL     1      -1.213   2.132  -0.004  0.00  0.00    +0.091 A 
ATOM     15  C   UNL     1      -0.017   1.430  -0.024  0.00  0.00    +0.084 A 
ATOM     16  C   UNL     1       2.132   4.581  -0.027  0.00  0.00    +0.046 C 
BRANCH  15  17
ATOM     17  C   UNL     1       0.003  -0.002  -0.038  0.00  0.00    +0.102 C 
ATOM     18  N   UNL     1       0.018  -1.138  -0.049  0.00  0.00    -0.191 NA
ENDBRANCH  15  17
ENDBRANCH   1  14
BRANCH   4  19
ATOM     19  C   UNL     1      -5.902   2.862   0.150  0.00  0.00    +0.053 A 
ATOM     20  C   UNL     1      -5.849   4.121  -0.434  0.00  0.00    +0.025 A 
ATOM     21  C   UNL     1      -6.926   4.978  -0.323  0.00  0.00    +0.002 A 
ATOM     22  C   UNL     1      -8.053   4.589   0.379  0.00  0.00    +0.002 A 
ATOM     23  C   UNL     1      -8.107   3.339   0.967  0.00  0.00    +0.022 A 
ATOM     24  C   UNL     1      -7.035   2.474   0.855  0.00  0.00    +0.062 A 
ATOM     25 CL   UNL     1      -7.103   0.905   1.594  0.00  0.00    -0.082 Cl
ENDBRANCH   4  19
TORSDOF 3
