REMARK  Name = ZINC15155873
REMARK  20 active torsions:
REMARK  status: ('A' for Active; 'I' for Inactive)
REMARK    1  A    between atoms: C_1  and  C_2
REMARK    2  A    between atoms: C_2  and  C_3
REMARK    3  A    between atoms: C_3  and  C_4
REMARK    4  A    between atoms: C_4  and  C_5
REMARK    5  A    between atoms: C_5  and  C_6
REMARK    6  A    between atoms: C_6  and  O_8
REMARK    7  A    between atoms: O_8  and  C_9
REMARK    8  A    between atoms: C_14  and  C_38
REMARK    9  A    between atoms: C_14  and  C_39
REMARK   10  A    between atoms: C_15  and  C_37
REMARK   11  A    between atoms: C_18  and  O_36
REMARK   12  A    between atoms: C_21  and  O_32
REMARK   13  A    between atoms: C_24  and  O_28
REMARK   14  A    between atoms: O_28  and  C_29
REMARK   15  A    between atoms: C_29  and  C_31
REMARK   16  A    between atoms: O_32  and  C_33
REMARK   17  A    between atoms: C_33  and  C_35
REMARK   18  A    between atoms: C_39  and  C_40
REMARK   19  A    between atoms: C_41  and  C_42
REMARK   20  A    between atoms: C_41  and  C_43
REMARK                            x       y       z     vdW  Elec       q    Type
REMARK                         _______ _______ _______ _____ _____    ______ ____
ROOT
ATOM      1  C   UNL     1       0.874  -4.533  -0.426  0.00  0.00    +0.200 C 
ATOM      2  C   UNL     1      -0.166  -5.131   0.504  0.00  0.00    +0.054 C 
ATOM      3  C   UNL     1      -0.418  -4.253   1.734  0.00  0.00    +0.018 C 
ATOM      4  C   UNL     1      -1.363  -4.965   2.672  0.00  0.00    -0.022 C 
ATOM      5  C   UNL     1      -2.830  -4.812   2.413  0.00  0.00    -0.005 C 
ATOM      6  C   UNL     1      -3.292  -3.556   1.720  0.00  0.00    +0.036 C 
ATOM      7  C   UNL     1      -2.335  -3.092   0.654  0.00  0.00    +0.131 C 
ATOM      8  C   UNL     1      -0.946  -2.921   1.264  0.00  0.00    +0.089 C 
ATOM      9  C   UNL     1      -0.968  -1.815   2.329  0.00  0.00    +0.327 C 
ATOM     10  O   UNL     1      -1.020  -0.617   1.508  0.00  0.00    -0.297 OA
ATOM     11  C   UNL     1      -0.145  -0.848   0.384  0.00  0.00    +0.343 C 
ATOM     12  C   UNL     1       0.008  -2.341   0.231  0.00  0.00    +0.012 C 
ATOM     13  C   UNL     1       0.759  -3.041  -0.557  0.00  0.00    +0.023 C 
ATOM     14  C   UNL     1      -3.554  -4.897   3.758  0.00  0.00    +0.008 C 
ATOM     15  C   UNL     1      -1.031  -6.458   2.630  0.00  0.00    +0.012 C 
ENDROOT
BRANCH   7  16
ATOM     16  O   UNL     1      -2.779  -1.848   0.110  0.00  0.00    -0.391 OA
ATOM     17  H   UNL     1      -3.657  -1.886  -0.294  0.00  0.00    +0.210 HD
ENDBRANCH   7  16
BRANCH   1  18
ATOM     18  O   UNL     1       2.196  -4.854   0.084  0.00  0.00    -0.457 OA
BRANCH  18  19
ATOM     19  C   UNL     1       3.181  -4.984  -0.818  0.00  0.00    +0.308 C 
ATOM     20  O   UNL     1       2.948  -4.834  -1.994  0.00  0.00    -0.251 OA
BRANCH  19  21
ATOM     21  C   UNL     1       4.579  -5.316  -0.364  0.00  0.00    +0.120 C 
BRANCH  21  22
ATOM     22  C   UNL     1       5.503  -5.405  -1.580  0.00  0.00    +0.011 C 
BRANCH  22  23
ATOM     23  C   UNL     1       6.922  -5.743  -1.119  0.00  0.00    +0.000 C 
BRANCH  23  25
ATOM     24  C   UNL     1       9.265  -6.170  -1.874  0.00  0.00    +0.004 C 
ATOM     25  C   UNL     1       7.846  -5.832  -2.335  0.00  0.00    -0.003 C 
ENDBRANCH  23  25
ENDBRANCH  22  23
ENDBRANCH  21  22
ENDBRANCH  19  21
ENDBRANCH  18  19
ENDBRANCH   1  18
BRANCH  11  26
ATOM     26  O   UNL     1       1.151  -0.242   0.634  0.00  0.00    -0.431 OA
BRANCH  26  27
ATOM     27  C   UNL     1       1.194   1.098   0.704  0.00  0.00    +0.306 C 
ATOM     28  O   UNL     1       0.183   1.744   0.555  0.00  0.00    -0.251 OA
ATOM     29  C   UNL     1       2.503   1.798   0.962  0.00  0.00    +0.136 C 
ENDBRANCH  26  27
ENDBRANCH  11  26
BRANCH   9  30
ATOM     30  O   UNL     1       0.242  -1.843   3.133  0.00  0.00    -0.434 OA
BRANCH  30  31
ATOM     31  C   UNL     1       0.315  -0.974   4.153  0.00  0.00    +0.306 C 
ATOM     32  O   UNL     1      -0.601  -0.216   4.368  0.00  0.00    -0.251 OA
ATOM     33  C   UNL     1       1.540  -0.944   5.031  0.00  0.00    +0.136 C 
ENDBRANCH  30  31
ENDBRANCH   9  30
BRANCH   4  34
ATOM     34  C   UNL     1      -1.082  -4.465   4.091  0.00  0.00    +0.034 C 
BRANCH  34  35
ATOM     35  C   UNL     1       0.369  -4.696   4.427  0.00  0.00    -0.023 C 
ATOM     36  C   UNL     1       0.697  -5.407   5.501  0.00  0.00    -0.055 C 
ATOM     37  C   UNL     1      -0.374  -5.868   6.455  0.00  0.00    +0.043 C 
BRANCH  36  38
ATOM     38  C   UNL     1       2.106  -5.743   5.758  0.00  0.00    -0.005 C 
ATOM     39  C   UNL     1       2.434  -6.454   6.832  0.00  0.00    +0.009 C 
ENDBRANCH  36  38
ENDBRANCH  34  35
ENDBRANCH   4  34
TORSDOF 14
