REMARK  Name = ZINC51751356
REMARK  7 active torsions:
REMARK  status: ('A' for Active; 'I' for Inactive)
REMARK    1  A    between atoms: C_1  and  C_2
REMARK    2  A    between atoms: N_6  and  C_11
REMARK    3  A    between atoms: C_7  and  C_10
REMARK    4  A    between atoms: C_13  and  C_19
REMARK    5  A    between atoms: C_14  and  N_18
REMARK    6  A    between atoms: C_19  and  O_21
REMARK    7  A    between atoms: O_21  and  C_22
REMARK                            x       y       z     vdW  Elec       q    Type
REMARK                         _______ _______ _______ _____ _____    ______ ____
ROOT
ATOM      1  C   UNL     1      -1.110  -3.398   2.080  0.00  0.00    +0.066 A 
ATOM      2  C   UNL     1      -0.903  -4.711   1.705  0.00  0.00    +0.042 A 
ATOM      3  C   UNL     1      -1.375  -5.750   2.515  0.00  0.00    +0.081 A 
ATOM      4  C   UNL     1      -2.057  -5.449   3.705  0.00  0.00    +0.042 A 
ATOM      5  C   UNL     1      -2.257  -4.124   4.069  0.00  0.00    +0.063 A 
ATOM      6  C   UNL     1      -1.783  -3.105   3.266  0.00  0.00    +0.146 A 
ATOM      7  F   UNL     1      -1.977  -1.818   3.628  0.00  0.00    -0.203 F 
ENDROOT
BRANCH   1  12
ATOM      8  C   UNL     1      -0.216   1.826   0.607  0.00  0.00    +0.007 C 
ATOM      9  C   UNL     1      -0.143   0.305   0.451  0.00  0.00    -0.011 C 
ATOM     10  C   UNL     1      -1.560  -0.271   0.402  0.00  0.00    +0.022 C 
ATOM     11  C   UNL     1      -1.483  -1.789   0.211  0.00  0.00    +0.106 C 
ATOM     12  N   UNL     1      -0.637  -2.356   1.270  0.00  0.00    -0.325 N 
ATOM     13  C   UNL     1       0.713  -1.812   1.463  0.00  0.00    +0.071 C 
ATOM     14  C   UNL     1       0.612  -0.293   1.640  0.00  0.00    +0.025 C 
ATOM     15  C   UNL     1       1.344  -2.435   2.709  0.00  0.00    +0.028 C 
ENDBRANCH   1  12
BRANCH   4  16
ATOM     16  N   UNL     1      -2.530  -6.474   4.516  0.00  0.00    -0.357 N 
ATOM     17  H   UNL     1      -2.320  -7.397   4.303  0.00  0.00    +0.142 HD
ATOM     18  H   UNL     1      -3.070  -6.267   5.295  0.00  0.00    +0.142 HD
ENDBRANCH   4  16
BRANCH   3  19
ATOM     19  C   UNL     1      -1.159  -7.151   2.121  0.00  0.00    +0.341 C 
ATOM     20  O   UNL     1      -1.474  -8.050   2.876  0.00  0.00    -0.245 OA
BRANCH  19  21
ATOM     21  O   UNL     1      -0.612  -7.438   0.923  0.00  0.00    -0.464 OA
ATOM     22  C   UNL     1      -0.431  -8.819   0.606  0.00  0.00    +0.280 C 
ENDBRANCH  19  21
ENDBRANCH   3  19
TORSDOF 4
