REMARK  Name = ZINC32655354
REMARK  9 active torsions:
REMARK  status: ('A' for Active; 'I' for Inactive)
REMARK    1  A    between atoms: C_1  and  C_2
REMARK    2  A    between atoms: C_6  and  C_8
REMARK    3  A    between atoms: C_15  and  S_26
REMARK    4  A    between atoms: C_19  and  C_25
REMARK    5  A    between atoms: C_20  and  C_21
REMARK    6  A    between atoms: C_21  and  O_23
REMARK    7  A    between atoms: O_23  and  C_24
REMARK    8  A    between atoms: S_26  and  C_27
REMARK    9  A    between atoms: C_27  and  C_28
REMARK                            x       y       z     vdW  Elec       q    Type
REMARK                         _______ _______ _______ _____ _____    ______ ____
ROOT
ATOM      1  C   UNL     1      -0.013   1.086   0.008  0.00  0.00    +0.096 C 
ATOM      2  C   UNL     1       1.399   1.599  -0.003  0.00  0.00    +0.069 A 
ATOM      3  C   UNL     1       2.351   1.019  -0.849  0.00  0.00    +0.258 A 
ATOM      4  O   UNL     1       2.048   0.092  -1.583  0.00  0.00    -0.267 OA
ATOM      5  N   UNL     1       3.611   1.503  -0.838  0.00  0.00    -0.302 N 
ATOM      6  H   UNL     1       4.376   1.061  -1.493  0.00  0.00    +0.171 HD
ATOM      7  C   UNL     1       3.938   2.539  -0.015  0.00  0.00    +0.171 A 
ATOM      8  N   UNL     1       3.045   3.088   0.784  0.00  0.00    -0.208 NA
ATOM      9  C   UNL     1       1.783   2.646   0.817  0.00  0.00    +0.135 A 
ATOM     10  N   UNL     1       0.865   3.231   1.670  0.00  0.00    -0.302 N 
ATOM     11  C   UNL     1      -0.297   2.581   1.978  0.00  0.00    +0.017 C 
ATOM     12  C   UNL     1      -0.748   1.562   1.227  0.00  0.00    +0.065 C 
ATOM     13  C   UNL     1      -1.089   3.016   3.184  0.00  0.00    +0.061 C 
ATOM     14  H   UNL     1       1.069   4.222   2.102  0.00  0.00    +0.153 HD
ENDROOT
BRANCH   1  20
ATOM     15  C   UNL     1      -2.445   0.136  -4.261  0.00  0.00    +0.044 C 
ATOM     16  C   UNL     1      -1.891   1.124  -3.267  0.00  0.00    -0.050 A 
ATOM     17  C   UNL     1      -2.039   2.481  -3.484  0.00  0.00    +0.003 A 
ATOM     18  C   UNL     1      -1.531   3.386  -2.572  0.00  0.00    +0.001 A 
ATOM     19  C   UNL     1      -0.875   2.935  -1.442  0.00  0.00    +0.004 A 
ATOM     20  C   UNL     1      -0.728   1.578  -1.224  0.00  0.00    -0.035 A 
ATOM     21  C   UNL     1      -1.231   0.672  -2.139  0.00  0.00    +0.008 A 
ENDBRANCH   1  20
BRANCH  12  22
ATOM     22  C   UNL     1      -1.951   0.919   1.597  0.00  0.00    +0.337 C 
ATOM     23  O   UNL     1      -2.562   1.290   2.581  0.00  0.00    -0.245 OA
BRANCH  22  24
ATOM     24  O   UNL     1      -2.422  -0.106   0.857  0.00  0.00    -0.465 OA
ATOM     25  C   UNL     1      -3.643  -0.710   1.288  0.00  0.00    +0.280 C 
ENDBRANCH  22  24
ENDBRANCH  12  22
BRANCH   7  26
ATOM     26  S   UNL     1       5.587   3.158  -0.021  0.00  0.00    -0.083 S 
BRANCH  26  27
ATOM     27  C   UNL     1       5.434   4.472   1.214  0.00  0.00    +0.115 C 
BRANCH  27  28
ATOM     28  C   UNL     1       6.764   5.161   1.382  0.00  0.00    -0.002 A 
ATOM     29  C   UNL     1       7.666   4.705   2.324  0.00  0.00    +0.007 A 
ATOM     30  C   UNL     1       8.888   5.333   2.474  0.00  0.00    +0.000 A 
ATOM     31  C   UNL     1       9.204   6.427   1.689  0.00  0.00    +0.003 A 
ATOM     32  C   UNL     1       8.302   6.888   0.750  0.00  0.00    +0.038 A 
ATOM     33  C   UNL     1       7.080   6.256   0.595  0.00  0.00    +0.127 A 
ATOM     34  F   UNL     1       6.197   6.707  -0.322  0.00  0.00    -0.205 F 
ENDBRANCH  27  28
ENDBRANCH  26  27
ENDBRANCH   7  26
TORSDOF 6
