REMARK  Name = ZINC35778684
REMARK  19 active torsions:
REMARK  status: ('A' for Active; 'I' for Inactive)
REMARK    1  A    between atoms: C_1  and  C_2
REMARK    2  A    between atoms: C_5  and  O_8
REMARK    3  A    between atoms: O_8  and  C_9
REMARK    4  A    between atoms: C_9  and  C_10
REMARK    5  A    between atoms: C_20  and  C_22
REMARK    6  A    between atoms: C_22  and  N_23
REMARK    7  A    between atoms: N_23  and  C_24
REMARK    8  A    between atoms: N_23  and  C_28
REMARK    9  A    between atoms: C_24  and  C_25
REMARK   10  A    between atoms: C_25  and  O_26
REMARK   11  A    between atoms: O_26  and  C_27
REMARK   12  A    between atoms: C_28  and  C_29
REMARK   13  A    between atoms: C_29  and  C_31
REMARK   14  A    between atoms: C_29  and  O_37
REMARK   15  A    between atoms: C_31  and  O_32
REMARK   16  A    between atoms: O_32  and  C_33
REMARK   17  A    between atoms: C_33  and  C_34
REMARK   18  A    between atoms: C_34  and  C_35
REMARK   19  A    between atoms: C_34  and  C_36
REMARK                            x       y       z     vdW  Elec       q    Type
REMARK                         _______ _______ _______ _____ _____    ______ ____
ROOT
ATOM      1  C   UNL     1       0.659  -5.910   2.784  0.00  0.00    +0.144 C 
ATOM      2  C   UNL     1      -0.773  -6.144   2.307  0.00  0.00    -0.014 A 
ATOM      3  C   UNL     1      -1.881  -6.076   3.151  0.00  0.00    +0.013 A 
ATOM      4  C   UNL     1      -3.122  -6.290   2.657  0.00  0.00    +0.046 A 
ATOM      5  S   UNL     1      -2.782  -6.609   0.932  0.00  0.00    -0.101 S 
ATOM      6  C   UNL     1      -1.018  -6.435   1.000  0.00  0.00    -0.004 A 
ATOM      7  C   UNL     1      -0.028  -6.578  -0.110  0.00  0.00    +0.061 C 
ATOM      8  C   UNL     1       1.303  -5.953   0.334  0.00  0.00    +0.113 C 
ATOM      9  N   UNL     1       1.567  -6.364   1.722  0.00  0.00    -0.292 N 
ATOM     10  C   UNL     1       2.625  -7.145   2.016  0.00  0.00    +0.200 C 
ATOM     11  O   UNL     1       2.833  -7.479   3.163  0.00  0.00    -0.278 OA
ENDROOT
BRANCH   1  12
ATOM     12  C   UNL     1       0.878  -4.420   3.053  0.00  0.00    +0.256 C 
BRANCH  12  13
ATOM     13  O   UNL     1       0.525  -3.669   1.889  0.00  0.00    -0.490 OA
BRANCH  13  18
ATOM     14  C   UNL     1       1.094   1.926   2.187  0.00  0.00    +0.044 C 
ATOM     15  C   UNL     1       0.942   0.429   2.107  0.00  0.00    -0.050 A 
ATOM     16  C   UNL     1       0.478  -0.157   0.944  0.00  0.00    +0.007 A 
ATOM     17  C   UNL     1       0.338  -1.529   0.868  0.00  0.00    +0.046 A 
ATOM     18  C   UNL     1       0.663  -2.319   1.961  0.00  0.00    +0.121 A 
ATOM     19  C   UNL     1       1.128  -1.729   3.127  0.00  0.00    +0.046 A 
ATOM     20  C   UNL     1       1.272  -0.357   3.196  0.00  0.00    +0.007 A 
ENDBRANCH  13  18
ENDBRANCH  12  13
ENDBRANCH   1  12
BRANCH  10  21
ATOM     21  C   UNL     1       3.550  -7.604   0.919  0.00  0.00    +0.019 C 
BRANCH  21  22
ATOM     22  N   UNL     1       4.616  -8.437   1.493  0.00  0.00    +0.389 N 
ATOM     23  H   UNL     1       5.062  -7.938   2.248  0.00  0.00    -0.081 HD
BRANCH  22  24
ATOM     24  C   UNL     1       4.038  -9.687   2.005  0.00  0.00    -0.050 C 
BRANCH  24  25
ATOM     25  C   UNL     1       5.129 -10.507   2.697  0.00  0.00    +0.141 C 
BRANCH  25  26
ATOM     26  O   UNL     1       5.608  -9.795   3.840  0.00  0.00    -0.385 OA
ATOM     27  C   UNL     1       6.635 -10.477   4.561  0.00  0.00    +0.193 C 
ENDBRANCH  25  26
ENDBRANCH  24  25
ENDBRANCH  22  24
BRANCH  22  28
ATOM     28  C   UNL     1       5.609  -8.745   0.455  0.00  0.00    -0.044 C 
BRANCH  28  29
ATOM     29  C   UNL     1       6.353  -7.467   0.065  0.00  0.00    +0.124 C 
BRANCH  29  30
ATOM     30  O   UNL     1       5.472  -6.604  -0.657  0.00  0.00    -0.391 OA
ATOM     31  H   UNL     1       5.123  -6.991  -1.472  0.00  0.00    +0.210 HD
ENDBRANCH  29  30
BRANCH  29  32
ATOM     32  C   UNL     1       7.553  -7.823  -0.815  0.00  0.00    +0.189 C 
BRANCH  32  33
ATOM     33  O   UNL     1       8.314  -6.644  -1.083  0.00  0.00    -0.377 OA
BRANCH  33  34
ATOM     34  C   UNL     1       9.463  -6.868  -1.903  0.00  0.00    +0.163 C 
BRANCH  34  35
ATOM     35  C   UNL     1      10.198  -5.544  -2.123  0.00  0.00    +0.009 C 
ATOM     36  C   UNL     1      11.494  -5.803  -2.894  0.00  0.00    +0.009 C 
ATOM     37  C   UNL     1       9.308  -4.594  -2.926  0.00  0.00    +0.009 C 
ENDBRANCH  34  35
ENDBRANCH  33  34
ENDBRANCH  32  33
ENDBRANCH  29  32
ENDBRANCH  28  29
ENDBRANCH  22  28
ENDBRANCH  21  22
ENDBRANCH  10  21
TORSDOF 15
