REMARK  Name = ZINC14185215
REMARK  8 active torsions:
REMARK  status: ('A' for Active; 'I' for Inactive)
REMARK    1  A    between atoms: C_1  and  C_2
REMARK    2  A    between atoms: C_5  and  N_8
REMARK    3  A    between atoms: C_9  and  C_32
REMARK    4  A    between atoms: C_10  and  N_14
REMARK    5  A    between atoms: C_11  and  C_13
REMARK    6  A    between atoms: C_15  and  C_17
REMARK    7  A    between atoms: C_17  and  N_70
REMARK    8  A    between atoms: C_20  and  C_23
REMARK                            x       y       z     vdW  Elec       q    Type
REMARK                         _______ _______ _______ _____ _____    ______ ____
ROOT
ATOM      1  N   UNL     1       7.219   2.532  -1.836  0.00  0.00    -0.284 N 
ATOM      2  C   UNL     1       5.931   2.297  -2.155  0.00  0.00    +0.201 C 
ATOM      3  O   UNL     1       5.633   1.306  -2.788  0.00  0.00    -0.278 OA
ATOM      4  H   UNL     1       7.452   3.301  -1.294  0.00  0.00    +0.155 HD
ENDROOT
BRANCH   1   7
ATOM      5  N   UNL     1      10.083   0.886  -3.161  0.00  0.00    -0.235 N 
ATOM      6  C   UNL     1       9.396   2.024  -2.874  0.00  0.00    +0.063 A 
ATOM      7  C   UNL     1       8.226   1.659  -2.290  0.00  0.00    +0.078 A 
ATOM      8  C   UNL     1       8.202   0.259  -2.213  0.00  0.00    +0.082 A 
ATOM      9  N   UNL     1       9.309  -0.202  -2.739  0.00  0.00    -0.170 NA
ATOM     10  C   UNL     1       7.090  -0.574  -1.629  0.00  0.00    +0.069 C 
ATOM     11  C   UNL     1       9.850   3.434  -3.155  0.00  0.00    +0.068 C 
BRANCH   5  16
ATOM     12  C   UNL     1      15.185   0.596  -5.632  0.00  0.00    +0.044 C 
ATOM     13  C   UNL     1      13.830   0.673  -4.976  0.00  0.00    -0.050 A 
ATOM     14  C   UNL     1      13.585   1.630  -4.008  0.00  0.00    +0.005 A 
ATOM     15  C   UNL     1      12.345   1.703  -3.405  0.00  0.00    +0.028 A 
ATOM     16  C   UNL     1      11.343   0.814  -3.771  0.00  0.00    +0.066 A 
ATOM     17  C   UNL     1      11.594  -0.150  -4.739  0.00  0.00    +0.028 A 
ATOM     18  C   UNL     1      12.834  -0.214  -5.343  0.00  0.00    +0.005 A 
ENDBRANCH   5  16
ENDBRANCH   1   7
BRANCH   2  19
ATOM     19  C   UNL     1       4.860   3.267  -1.726  0.00  0.00    +0.019 C 
BRANCH  19  25
ATOM     20  C   UNL     1       3.165   1.545  -1.579  0.00  0.00    -0.077 C 
ATOM     21  C   UNL     1       1.878   1.022  -2.221  0.00  0.00    -0.006 C 
ATOM     22  C   UNL     1       0.770   2.065  -2.054  0.00  0.00    +0.072 C 
ATOM     23  C   UNL     1       1.221   3.384  -2.688  0.00  0.00    -0.006 C 
ATOM     24  C   UNL     1       2.527   3.838  -2.033  0.00  0.00    -0.077 C 
ATOM     25  N   UNL     1       3.559   2.802  -2.250  0.00  0.00    +0.385 N 
ATOM     26  H   UNL     1       3.649   2.627  -3.258  0.00  0.00    -0.081 HD
BRANCH  22  27
ATOM     27  C   UNL     1      -0.484   1.582  -2.736  0.00  0.00    +0.219 C 
ATOM     28  O   UNL     1      -0.419   0.715  -3.582  0.00  0.00    -0.275 OA
ATOM     29  N   UNL     1      -1.678   2.116  -2.409  0.00  0.00    -0.301 N 
ATOM     30  C   UNL     1      -2.870   1.578  -3.026  0.00  0.00    +0.108 C 
ATOM     31  C   UNL     1      -3.160   2.322  -4.346  0.00  0.00    +0.019 C 
ATOM     32  C   UNL     1      -3.626   3.690  -4.068  0.00  0.00    +0.002 C 
ATOM     33  C   UNL     1      -2.603   4.569  -3.354  0.00  0.00    +0.002 C 
ATOM     34  C   UNL     1      -2.696   4.336  -1.867  0.00  0.00    +0.019 C 
ATOM     35  C   UNL     1      -1.713   3.230  -1.442  0.00  0.00    +0.108 C 
ENDBRANCH  22  27
ENDBRANCH  19  25
ENDBRANCH   2  19
TORSDOF 5
