REMARK  Name = ZINC38671033
REMARK  9 active torsions:
REMARK  status: ('A' for Active; 'I' for Inactive)
REMARK    1  A    between atoms: C_1  and  C_2
REMARK    2  A    between atoms: C_2  and  N_3
REMARK    3  A    between atoms: C_5  and  C_15
REMARK    4  A    between atoms: C_11  and  C_14
REMARK    5  A    between atoms: N_17  and  C_18
REMARK    6  A    between atoms: C_18  and  C_19
REMARK    7  A    between atoms: C_19  and  C_21
REMARK    8  A    between atoms: C_19  and  N_32
REMARK    9  A    between atoms: N_30  and  C_31
REMARK                            x       y       z     vdW  Elec       q    Type
REMARK                         _______ _______ _______ _____ _____    ______ ____
ROOT
ATOM      1  C   UNL     1      -0.796  -2.175  -7.117  0.00  0.00    +0.094 C 
ENDROOT
BRANCH   1   4
ATOM      2  C   UNL     1      -2.356  -0.356  -6.676  0.00  0.00    +0.249 C 
ATOM      3  O   UNL     1      -2.491  -0.783  -5.545  0.00  0.00    -0.270 OA
ATOM      4  N   UNL     1      -1.496  -0.954  -7.524  0.00  0.00    -0.312 N 
ATOM      5  H   UNL     1      -1.341  -0.577  -8.404  0.00  0.00    +0.149 HD
BRANCH   2   8
ATOM      6  N   UNL     1      -4.827   2.426  -6.675  0.00  0.00    -0.331 N 
ATOM      7  C   UNL     1      -4.102   1.361  -6.306  0.00  0.00    +0.104 A 
ATOM      8  C   UNL     1      -3.131   0.814  -7.118  0.00  0.00    +0.100 A 
ATOM      9  C   UNL     1      -2.883   1.424  -8.435  0.00  0.00    +0.203 A 
ATOM     10  O   UNL     1      -2.037   0.981  -9.192  0.00  0.00    -0.286 OA
ATOM     11  C   UNL     1      -3.703   2.593  -8.799  0.00  0.00    +0.065 A 
ATOM     12  C   UNL     1      -4.668   3.055  -7.887  0.00  0.00    +0.145 A 
ATOM     13  N   UNL     1      -5.418   4.104  -8.202  0.00  0.00    -0.234 NA
ATOM     14  C   UNL     1      -5.289   4.727  -9.355  0.00  0.00    +0.041 A 
ATOM     15  C   UNL     1      -4.362   4.320 -10.301  0.00  0.00    +0.024 A 
ATOM     16  C   UNL     1      -3.543   3.240 -10.026  0.00  0.00    +0.017 A 
ATOM     17  C   UNL     1      -6.171   5.912  -9.653  0.00  0.00    +0.065 C 
BRANCH   6  19
ATOM     18  C   UNL     1      -7.173   2.239  -6.009  0.00  0.00    +0.027 C 
ATOM     19  C   UNL     1      -5.838   2.939  -5.747  0.00  0.00    +0.120 C 
ENDBRANCH   6  19
ENDBRANCH   2   8
ENDBRANCH   1   4
BRANCH   1  20
ATOM     20  C   UNL     1       0.195  -2.583  -8.209  0.00  0.00    -0.020 C 
BRANCH  20  21
ATOM     21  C   UNL     1      -0.556  -2.908  -9.475  0.00  0.00    -0.059 A 
ATOM     22  C   UNL     1      -1.172  -4.138  -9.615  0.00  0.00    +0.004 A 
ATOM     23  C   UNL     1      -1.859  -4.436 -10.774  0.00  0.00    +0.023 A 
ATOM     24  C   UNL     1      -1.932  -3.499 -11.800  0.00  0.00    +0.033 A 
ATOM     25  C   UNL     1      -1.317  -2.265 -11.657  0.00  0.00    -0.026 A 
ATOM     26  C   UNL     1      -0.633  -1.974 -10.489  0.00  0.00    +0.007 A 
ATOM     27  C   UNL     1      -1.384  -1.223 -12.742  0.00  0.00    +0.038 C 
ATOM     28  C   UNL     1      -1.719  -1.869 -14.086  0.00  0.00    +0.024 C 
ATOM     29  C   UNL     1      -2.964  -2.750 -13.916  0.00  0.00    +0.105 C 
ATOM     30  N   UNL     1      -2.629  -3.823 -12.969  0.00  0.00    -0.333 N 
ATOM     31  C   UNL     1      -3.019  -5.208 -13.245  0.00  0.00    +0.129 C 
ENDBRANCH  20  21
BRANCH  20  32
ATOM     32  N   UNL     1       0.949  -3.765  -7.770  0.00  0.00    +0.385 N 
ATOM     33  C   UNL     1       1.672  -3.450  -6.532  0.00  0.00    -0.078 C 
ATOM     34  C   UNL     1       2.394  -4.701  -6.027  0.00  0.00    -0.019 C 
ATOM     35  C   UNL     1       3.385  -5.178  -7.092  0.00  0.00    -0.004 C 
ATOM     36  C   UNL     1       2.630  -5.433  -8.400  0.00  0.00    -0.019 C 
ATOM     37  C   UNL     1       1.900  -4.154  -8.818  0.00  0.00    -0.078 C 
ATOM     38  H   UNL     1       0.309  -4.526  -7.599  0.00  0.00    -0.081 HD
ENDBRANCH  20  32
ENDBRANCH   1  20
TORSDOF 6
