REMARK  Name = ZINC44909935
REMARK  9 active torsions:
REMARK  status: ('A' for Active; 'I' for Inactive)
REMARK    1  A    between atoms: C_1  and  O_2
REMARK    2  A    between atoms: O_2  and  C_3
REMARK    3  A    between atoms: C_12  and  C_13
REMARK    4  A    between atoms: C_13  and  CA_14
REMARK    5  A    between atoms: CA_14  and  C_16
REMARK    6  A    between atoms: CA_14  and  N_19
REMARK    7  A    between atoms: C_20  and  O_22
REMARK    8  A    between atoms: O_22  and  C_23
REMARK    9  A    between atoms: C_23  and  C_24
REMARK                            x       y       z     vdW  Elec       q    Type
REMARK                         _______ _______ _______ _____ _____    ______ ____
ROOT
ATOM      1  N   UNL     1      -0.453  -6.026   3.344  0.00  0.00    -0.267 N 
ATOM      2  C   UNL     1      -1.629  -5.912   3.992  0.00  0.00    +0.401 C 
ATOM      3  O   UNL     1      -1.677  -5.351   5.069  0.00  0.00    -0.226 OA
ATOM      4  H   UNL     1      -0.414  -6.474   2.485  0.00  0.00    +0.153 HD
ENDROOT
BRANCH   1   5
ATOM      5  CA  UNL     1       0.767  -5.474   3.938  0.00  0.00    +0.193 C 
BRANCH   5   6
ATOM      6  C   UNL     1       1.361  -6.477   4.892  0.00  0.00    +0.376 C 
ATOM      7  O   UNL     1       2.276  -6.151   5.629  0.00  0.00    -0.244 OA
ATOM      8  OXT UNL     1       0.926  -7.616   4.928  0.00  0.00    -0.244 OA
ENDBRANCH   5   6
BRANCH   5   9
ATOM      9  C   UNL     1       1.777  -5.163   2.831  0.00  0.00    +0.071 C 
BRANCH   9  19
ATOM     10  C   UNL     1       0.626  -0.619   1.042  0.00  0.00    +0.144 A 
ATOM     11  C   UNL     1       1.201   0.133   2.049  0.00  0.00    +0.048 A 
ATOM     12  C   UNL     1       1.840  -0.484   3.115  0.00  0.00    +0.004 A 
ATOM     13  C   UNL     1       1.913  -1.847   3.187  0.00  0.00    +0.010 A 
ATOM     14  C   UNL     1       1.339  -2.628   2.180  0.00  0.00    +0.006 A 
ATOM     15  C   UNL     1       0.684  -2.011   1.100  0.00  0.00    +0.089 A 
ATOM     16  N   UNL     1       0.217  -3.016   0.280  0.00  0.00    -0.358 N 
ATOM     17  H   UNL     1      -0.272  -2.879  -0.546  0.00  0.00    +0.165 HD
ATOM     18  C   UNL     1       0.548  -4.235   0.805  0.00  0.00    +0.087 A 
ATOM     19  C   UNL     1       1.234  -4.070   1.947  0.00  0.00    -0.020 A 
BRANCH  10  21
ATOM     20  C   UNL     1      -0.017   1.425   0.010  0.00  0.00    +0.277 C 
ATOM     21  O   UNL     1       0.002  -0.004   0.002  0.00  0.00    -0.493 OA
ENDBRANCH  10  21
ENDBRANCH   9  19
ENDBRANCH   5   9
ENDBRANCH   1   5
BRANCH   2  22
ATOM     22  O   UNL     1      -2.750  -6.420   3.447  0.00  0.00    -0.449 OA
BRANCH  22  23
ATOM     23  C   UNL     1      -3.961  -6.263   4.189  0.00  0.00    +0.246 C 
BRANCH  23  24
ATOM     24  C   UNL     1      -5.119  -6.899   3.416  0.00  0.00    +0.088 C 
ATOM     25  C   UNL     1      -5.406  -6.105   2.165  0.00  0.00    -0.029 A 
ATOM     26  C   UNL     1      -4.636  -5.807   1.061  0.00  0.00    +0.005 A 
ATOM     27  C   UNL     1      -5.163  -5.042   0.035  0.00  0.00    +0.000 A 
ATOM     28  C   UNL     1      -6.462  -4.575   0.115  0.00  0.00    +0.001 A 
ATOM     29  C   UNL     1      -7.240  -4.868   1.216  0.00  0.00    +0.009 A 
ATOM     30  C   UNL     1      -6.715  -5.640   2.255  0.00  0.00    -0.014 A 
ATOM     31  C   UNL     1      -7.316  -6.098   3.532  0.00  0.00    -0.014 A 
ATOM     32  C   UNL     1      -6.382  -6.850   4.240  0.00  0.00    -0.029 A 
ATOM     33  C   UNL     1      -6.708  -7.389   5.466  0.00  0.00    +0.005 A 
ATOM     34  C   UNL     1      -7.969  -7.184   6.000  0.00  0.00    +0.000 A 
ATOM     35  C   UNL     1      -8.903  -6.438   5.304  0.00  0.00    +0.001 A 
ATOM     36  C   UNL     1      -8.585  -5.895   4.076  0.00  0.00    +0.009 A 
ENDBRANCH  23  24
ENDBRANCH  22  23
ENDBRANCH   2  22
TORSDOF 8
