REMARK  Name = ZINC09695181
REMARK  7 active torsions:
REMARK  status: ('A' for Active; 'I' for Inactive)
REMARK    1  A    between atoms: C_1  and  C_2
REMARK    2  A    between atoms: C_2  and  C_3
REMARK    3  A    between atoms: C_3  and  C_4
REMARK    4  A    between atoms: C_4  and  O_5
REMARK    5  A    between atoms: O_5  and  C_6
REMARK    6  A    between atoms: C_6  and  C_8
REMARK    7  A    between atoms: C_9  and  N_29
REMARK                            x       y       z     vdW  Elec       q    Type
REMARK                         _______ _______ _______ _____ _____    ______ ____
ROOT
ATOM      1  C   UNL     1       2.871   0.651  -1.194  0.00  0.00    +0.117 C 
ATOM      2  C   UNL     1       4.228   0.589  -1.263  0.00  0.00    +0.195 C 
ATOM      3  O   UNL     1       4.973   0.385  -0.167  0.00  0.00    -0.446 OA
ATOM      4  C   UNL     1       4.471   0.653   1.053  0.00  0.00    +0.115 C 
ATOM      5  C   UNL     1       3.143   0.723   1.264  0.00  0.00    +0.057 C 
ATOM      6  C   UNL     1       2.178   0.498   0.129  0.00  0.00    +0.141 C 
ATOM      7  C   UNL     1       1.529  -0.846   0.244  0.00  0.00    -0.001 A 
ATOM      8  C   UNL     1       2.057  -2.119   0.224  0.00  0.00    +0.022 A 
ATOM      9  C   UNL     1       1.161  -3.175   0.358  0.00  0.00    +0.018 A 
ATOM     10  C   UNL     1      -0.194  -2.954   0.505  0.00  0.00    +0.017 A 
ATOM     11  C   UNL     1      -0.731  -1.677   0.526  0.00  0.00    +0.025 A 
ATOM     12  C   UNL     1       0.157  -0.608   0.393  0.00  0.00    +0.038 A 
ATOM     13  N   UNL     1      -0.099   0.752   0.381  0.00  0.00    -0.284 N 
ATOM     14  C   UNL     1       1.028   1.478   0.231  0.00  0.00    +0.237 C 
ATOM     15  O   UNL     1       1.106   2.688   0.186  0.00  0.00    -0.274 OA
ATOM     16 BR   UNL     1       1.813  -4.950   0.339  0.00  0.00    -0.050 Br
ATOM     17  C   UNL     1       2.619   1.006   2.540  0.00  0.00    +0.164 C 
ATOM     18  O   UNL     1       1.415   1.041   2.696  0.00  0.00    -0.292 OA
ATOM     19  C   UNL     1       3.524   1.266   3.714  0.00  0.00    +0.080 C 
ATOM     20  C   UNL     1       4.845   1.849   3.200  0.00  0.00    +0.016 C 
ATOM     21  C   UNL     1       5.444   0.871   2.187  0.00  0.00    +0.075 C 
ATOM     22  H   UNL     1      -0.985   1.137   0.465  0.00  0.00    +0.155 HD
ENDROOT
BRANCH   2  23
ATOM     23  N   UNL     1       4.845   0.739  -2.476  0.00  0.00    -0.329 N 
ATOM     24  H   UNL     1       5.663   0.253  -2.667  0.00  0.00    +0.145 HD
ATOM     25  H   UNL     1       4.464   1.330  -3.144  0.00  0.00    +0.145 HD
ENDBRANCH   2  23
BRANCH   1  26
ATOM     26  C   UNL     1       2.118   0.858  -2.360  0.00  0.00    +0.342 C 
ATOM     27  O   UNL     1       2.669   0.874  -3.446  0.00  0.00    -0.245 OA
BRANCH  26  28
ATOM     28  O   UNL     1       0.782   1.039  -2.278  0.00  0.00    -0.461 OA
BRANCH  28  29
ATOM     29  C   UNL     1       0.079   1.244  -3.505  0.00  0.00    +0.232 C 
BRANCH  29  30
ATOM     30  C   UNL     1      -1.412   1.429  -3.213  0.00  0.00    +0.041 C 
BRANCH  30  32
ATOM     31  C   UNL     1      -3.655   1.833  -4.236  0.00  0.00    +0.004 C 
ATOM     32  C   UNL     1      -2.165   1.648  -4.527  0.00  0.00    -0.000 C 
ENDBRANCH  30  32
ENDBRANCH  29  30
ENDBRANCH  28  29
ENDBRANCH  26  28
ENDBRANCH   1  26
TORSDOF 6
