REMARK  Name = ZINC36019267
REMARK  7 active torsions:
REMARK  status: ('A' for Active; 'I' for Inactive)
REMARK    1  A    between atoms: C_3  and  C_6
REMARK    2  A    between atoms: N_8  and  C_9
REMARK    3  A    between atoms: C_12  and  N_26
REMARK    4  A    between atoms: C_13  and  C_15
REMARK    5  A    between atoms: N_17  and  C_18
REMARK    6  A    between atoms: C_18  and  C_19
REMARK    7  A    between atoms: C_33  and  C_35
REMARK                            x       y       z     vdW  Elec       q    Type
REMARK                         _______ _______ _______ _____ _____    ______ ____
ROOT
ATOM      1  C   UNL     1       5.304   0.614   0.611  0.00  0.00    +0.035 A 
ATOM      2  C   UNL     1       6.252   1.630   0.672  0.00  0.00    +0.025 A 
ATOM      3  C   UNL     1       7.572   1.371   0.371  0.00  0.00    +0.026 A 
ATOM      4  C   UNL     1       7.965   0.090   0.003  0.00  0.00    +0.042 A 
ATOM      5  C   UNL     1       7.015  -0.940  -0.061  0.00  0.00    +0.059 A 
ATOM      6  C   UNL     1       5.680  -0.669   0.252  0.00  0.00    +0.038 A 
ENDROOT
BRANCH   4   7
ATOM      7  N   UNL     1       9.297  -0.170  -0.302  0.00  0.00    -0.328 N 
ATOM      8  C   UNL     1       9.740  -0.009  -1.695  0.00  0.00    +0.107 C 
ATOM      9  C   UNL     1      11.094   0.697  -1.804  0.00  0.00    +0.038 C 
ATOM     10  C   UNL     1      11.172   1.844  -0.817  0.00  0.00    +0.109 C 
ATOM     11  N   UNL     1      11.641   1.311   0.461  0.00  0.00    -0.300 N 
ATOM     12  C   UNL     1      10.810   0.675   1.423  0.00  0.00    +0.126 C 
ATOM     13  C   UNL     1      10.183  -0.582   0.773  0.00  0.00    +0.124 C 
ATOM     14  C   UNL     1      12.953   1.431   0.747  0.00  0.00    +0.219 C 
ATOM     15  O   UNL     1      13.404   0.919   1.750  0.00  0.00    -0.275 OA
BRANCH  14  16
ATOM     16  C   UNL     1      13.859   2.200  -0.179  0.00  0.00    +0.075 C 
ATOM     17  C   UNL     1      14.298   1.303  -1.355  0.00  0.00    +0.013 C 
ATOM     18  C   UNL     1      15.768   1.714  -1.618  0.00  0.00    +0.001 C 
ATOM     19  C   UNL     1      16.317   1.953  -0.190  0.00  0.00    +0.001 C 
ATOM     20  C   UNL     1      15.143   2.613   0.562  0.00  0.00    +0.013 C 
ENDBRANCH  14  16
ENDBRANCH   4   7
BRANCH   1  23
ATOM     21  C   UNL     1       3.422   2.071   0.571  0.00  0.00    +0.284 C 
ATOM     22  O   UNL     1       4.119   2.939   0.079  0.00  0.00    -0.266 OA
ATOM     23  N   UNL     1       3.965   0.888   0.919  0.00  0.00    -0.279 N 
ATOM     24  H   UNL     1       3.429   0.226   1.383  0.00  0.00    +0.155 HD
BRANCH  21  27
ATOM     25  C   UNL     1      -0.020   3.253   0.851  0.00  0.00    +0.042 A 
ATOM     26  C   UNL     1       1.317   3.461   0.480  0.00  0.00    +0.054 A 
ATOM     27  C   UNL     1       1.992   2.313   0.785  0.00  0.00    +0.189 A 
ATOM     28  O   UNL     1       1.111   1.441   1.319  0.00  0.00    -0.458 OA
ATOM     29  C   UNL     1      -0.103   2.004   1.360  0.00  0.00    +0.196 A 
ENDBRANCH  21  27
ENDBRANCH   1  23
BRANCH   5  30
ATOM     30  C   UNL     1       7.423  -2.302  -0.450  0.00  0.00    +0.246 C 
ATOM     31  O   UNL     1       8.586  -2.535  -0.717  0.00  0.00    -0.270 OA
ATOM     32  N   UNL     1       6.506  -3.288  -0.510  0.00  0.00    -0.307 N 
ATOM     33  H   UNL     1       5.579  -3.102  -0.297  0.00  0.00    +0.149 HD
BRANCH  32  34
ATOM     34  C   UNL     1       6.912  -4.642  -0.897  0.00  0.00    +0.139 C 
BRANCH  34  35
ATOM     35  C   UNL     1       5.708  -5.549  -0.886  0.00  0.00    -0.030 A 
ATOM     36  C   UNL     1       5.364  -6.226   0.269  0.00  0.00    +0.008 A 
ATOM     37  C   UNL     1       4.261  -7.058   0.281  0.00  0.00    +0.038 A 
ATOM     38  C   UNL     1       3.500  -7.213  -0.866  0.00  0.00    +0.123 A 
ATOM     39  C   UNL     1       3.846  -6.535  -2.022  0.00  0.00    +0.038 A 
ATOM     40  C   UNL     1       4.947  -5.700  -2.030  0.00  0.00    +0.008 A 
ATOM     41  F   UNL     1       2.421  -8.027  -0.856  0.00  0.00    -0.205 F 
ENDBRANCH  34  35
ENDBRANCH  32  34
ENDBRANCH   5  30
TORSDOF 7
