REMARK  Name = ZINC45606647
REMARK  9 active torsions:
REMARK  status: ('A' for Active; 'I' for Inactive)
REMARK    1  A    between atoms: C_1  and  C_2
REMARK    2  A    between atoms: C_2  and  C_4
REMARK    3  A    between atoms: C_2  and  N_13
REMARK    4  A    between atoms: C_4  and  C_5
REMARK    5  A    between atoms: C_5  and  C_6
REMARK    6  A    between atoms: C_9  and  O_12
REMARK    7  A    between atoms: N_16  and  C_17
REMARK    8  A    between atoms: C_17  and  C_19
REMARK    9  A    between atoms: C_17  and  C_20
REMARK                            x       y       z     vdW  Elec       q    Type
REMARK                         _______ _______ _______ _____ _____    ______ ____
ROOT
ATOM      1  N   UNL     1       0.688  -0.476  -1.203  0.00  0.00    -0.297 N 
ATOM      2  C   UNL     1       0.006  -0.608  -2.358  0.00  0.00    +0.300 C 
ATOM      3  O   UNL     1      -1.178  -0.335  -2.400  0.00  0.00    -0.253 OA
ATOM      4  N   UNL     1       0.637  -1.043  -3.467  0.00  0.00    -0.293 N 
ATOM      5  H   UNL     1       1.632  -0.695  -1.170  0.00  0.00    +0.151 HD
ATOM      6  H   UNL     1       1.582  -1.261  -3.434  0.00  0.00    +0.151 HD
ENDROOT
BRANCH   1   8
ATOM      7  C   UNL     1      -0.019   1.526   0.010  0.00  0.00    +0.028 C 
ATOM      8  C   UNL     1       0.002  -0.004   0.002  0.00  0.00    +0.072 C 
BRANCH   8   9
ATOM      9  C   UNL     1       0.742  -0.511   1.242  0.00  0.00    +0.026 C 
BRANCH   9  10
ATOM     10  C   UNL     1       0.655  -2.037   1.299  0.00  0.00    +0.037 C 
BRANCH  10  11
ATOM     11  C   UNL     1       1.384  -2.537   2.519  0.00  0.00    -0.047 A 
ATOM     12  C   UNL     1       2.731  -2.841   2.443  0.00  0.00    +0.007 A 
ATOM     13  C   UNL     1       3.401  -3.299   3.561  0.00  0.00    +0.045 A 
ATOM     14  C   UNL     1       2.722  -3.453   4.761  0.00  0.00    +0.117 A 
ATOM     15  C   UNL     1       1.371  -3.147   4.835  0.00  0.00    +0.045 A 
ATOM     16  C   UNL     1       0.707  -2.684   3.716  0.00  0.00    +0.007 A 
BRANCH  14  17
ATOM     17  O   UNL     1       3.379  -3.905   5.861  0.00  0.00    -0.507 OA
ATOM     18  H   UNL     1       3.771  -3.204   6.401  0.00  0.00    +0.292 HD
ENDBRANCH  14  17
ENDBRANCH  10  11
ENDBRANCH   9  10
ENDBRANCH   8   9
ENDBRANCH   1   8
BRANCH   4  19
ATOM     19  C   UNL     1      -0.104  -1.186  -4.723  0.00  0.00    +0.102 C 
ATOM     20  C   UNL     1      -0.141   0.160  -5.449  0.00  0.00    +0.033 C 
BRANCH  19  21
ATOM     21  C   UNL     1       0.578  -2.208  -5.595  0.00  0.00    -0.024 A 
ATOM     22  C   UNL     1       1.958  -2.249  -5.659  0.00  0.00    +0.009 A 
ATOM     23  C   UNL     1       2.589  -3.186  -6.457  0.00  0.00    +0.050 A 
ATOM     24  C   UNL     1       1.837  -4.086  -7.195  0.00  0.00    +0.166 A 
ATOM     25  C   UNL     1       0.447  -4.045  -7.131  0.00  0.00    +0.167 A 
ATOM     26  C   UNL     1      -0.178  -3.107  -6.324  0.00  0.00    +0.055 A 
ATOM     27  O   UNL     1      -0.057  -5.022  -7.939  0.00  0.00    -0.453 OA
ATOM     28  C   UNL     1       1.026  -5.395  -8.812  0.00  0.00    +0.466 C 
ATOM     29  O   UNL     1       2.205  -5.090  -8.044  0.00  0.00    -0.453 OA
ENDBRANCH  19  21
ENDBRANCH   4  19
TORSDOF 7
