REMARK  Name = ZINC02359432
REMARK  8 active torsions:
REMARK  status: ('A' for Active; 'I' for Inactive)
REMARK    1  A    between atoms: C_2  and  C_7
REMARK    2  A    between atoms: N_8  and  N_9
REMARK    3  A    between atoms: C_10  and  C_12
REMARK    4  A    between atoms: C_12  and  C_13
REMARK    5  A    between atoms: C_13  and  C_14
REMARK    6  A    between atoms: C_14  and  C_15
REMARK    7  A    between atoms: N_17  and  N_18
REMARK    8  A    between atoms: C_19  and  C_20
REMARK                            x       y       z     vdW  Elec       q    Type
REMARK                         _______ _______ _______ _____ _____    ______ ____
ROOT
ATOM      1  C   UNL     1       6.795   6.518  -0.029  0.00  0.00    +0.018 C 
ENDROOT
BRANCH   1   2
ATOM      2  C   UNL     1       5.265   6.491  -0.015  0.00  0.00    +0.098 C 
BRANCH   2   4
ATOM      3  N   UNL     1       3.467   4.792  -0.006  0.00  0.00    -0.207 N 
ATOM      4  C   UNL     1       4.788   5.062  -0.017  0.00  0.00    +0.232 C 
ATOM      5  O   UNL     1       5.592   4.153  -0.029  0.00  0.00    -0.274 OA
ATOM      6  H   UNL     1       2.824   5.518   0.004  0.00  0.00    +0.177 HD
BRANCH   3   8
ATOM      7  C   UNL     1       1.749   3.203   0.002  0.00  0.00    +0.176 C 
ATOM      8  N   UNL     1       3.024   3.463  -0.009  0.00  0.00    -0.185 NA
BRANCH   7  10
ATOM      9  C   UNL     1      -0.017   1.403   0.010  0.00  0.00    +0.052 A 
ATOM     10  C   UNL     1       1.285   1.813  -0.001  0.00  0.00    +0.149 A 
ATOM     11  O   UNL     1       2.069   0.716  -0.014  0.00  0.00    -0.447 OA
ATOM     12  C   UNL     1       1.298  -0.383  -0.012  0.00  0.00    +0.171 A 
ATOM     13  C   UNL     1       0.002  -0.004   0.002  0.00  0.00    +0.057 A 
ATOM     14 BR   UNL     1       1.923  -2.168  -0.028  0.00  0.00    -0.008 Br
ENDBRANCH   7  10
ENDBRANCH   3   8
ENDBRANCH   2   4
ENDBRANCH   1   2
BRANCH   1  15
ATOM     15  C   UNL     1       7.280   7.969  -0.026  0.00  0.00    +0.098 C 
BRANCH  15  16
ATOM     16  C   UNL     1       8.786   7.995  -0.040  0.00  0.00    +0.232 C 
ATOM     17  O   UNL     1       9.411   6.955  -0.051  0.00  0.00    -0.274 OA
ATOM     18  N   UNL     1       9.440   9.174  -0.041  0.00  0.00    -0.207 N 
ATOM     19  H   UNL     1       8.940  10.006  -0.032  0.00  0.00    +0.177 HD
BRANCH  18  20
ATOM     20  N   UNL     1      10.841   9.199  -0.054  0.00  0.00    -0.185 NA
ATOM     21  C   UNL     1      11.471  10.337  -0.054  0.00  0.00    +0.176 C 
BRANCH  21  22
ATOM     22  C   UNL     1      12.937  10.363  -0.068  0.00  0.00    +0.149 A 
ATOM     23  O   UNL     1      13.748   9.285  -0.086  0.00  0.00    -0.447 OA
ATOM     24  C   UNL     1      15.027   9.691  -0.095  0.00  0.00    +0.171 A 
ATOM     25  C   UNL     1      15.055  11.041  -0.081  0.00  0.00    +0.057 A 
ATOM     26  C   UNL     1      13.719  11.481  -0.069  0.00  0.00    +0.052 A 
ATOM     27 BR   UNL     1      16.542   8.559  -0.121  0.00  0.00    -0.008 Br
ENDBRANCH  21  22
ENDBRANCH  18  20
ENDBRANCH  15  16
ENDBRANCH   1  15
TORSDOF 8
