REMARK  Name = ZINC36129345
REMARK  10 active torsions:
REMARK  status: ('A' for Active; 'I' for Inactive)
REMARK    1  A    between atoms: C_1  and  C_2
REMARK    2  A    between atoms: C_2  and  C_3
REMARK    3  A    between atoms: C_3  and  C_4
REMARK    4  A    between atoms: C_4  and  C_5
REMARK    5  A    between atoms: C_5  and  C_6
REMARK    6  A    between atoms: C_6  and  C_8
REMARK    7  A    between atoms: C_6  and  N_9
REMARK    8  A    between atoms: N_9  and  S_10
REMARK    9  A    between atoms: S_10  and  C_13
REMARK   10  A    between atoms: C_14  and  N_21
REMARK                            x       y       z     vdW  Elec       q    Type
REMARK                         _______ _______ _______ _____ _____    ______ ____
ROOT
ATOM      1  S   UNL     1      -0.628  -6.744  -1.311  0.00  0.00    +0.061 S 
ATOM      2  O   UNL     1      -0.122  -7.351  -2.491  0.00  0.00    -0.153 OA
ATOM      3  O   UNL     1       0.153  -6.598  -0.133  0.00  0.00    -0.153 OA
ENDROOT
BRANCH   1   4
ATOM      4  C   UNL     1      -2.065  -7.656  -0.852  0.00  0.00    +0.140 A 
ATOM      5  C   UNL     1      -2.436  -7.742   0.484  0.00  0.00    +0.053 A 
ATOM      6  C   UNL     1      -3.569  -8.462   0.842  0.00  0.00    +0.040 A 
ATOM      7  C   UNL     1      -4.323  -9.089  -0.132  0.00  0.00    +0.021 A 
ATOM      8  C   UNL     1      -3.950  -9.002  -1.461  0.00  0.00    +0.032 A 
ATOM      9  C   UNL     1      -2.825  -8.281  -1.821  0.00  0.00    +0.047 A 
ATOM     10 BR   UNL     1      -2.325  -8.158  -3.641  0.00  0.00    -0.048 Br
ATOM     11 BR   UNL     1      -5.866 -10.069   0.354  0.00  0.00    -0.050 Br
BRANCH   5  12
ATOM     12  N   UNL     1      -1.672  -7.107   1.465  0.00  0.00    -0.356 N 
ATOM     13  H   UNL     1      -1.149  -6.321   1.240  0.00  0.00    +0.142 HD
ATOM     14  H   UNL     1      -1.663  -7.452   2.372  0.00  0.00    +0.142 HD
ENDBRANCH   5  12
ENDBRANCH   1   4
BRANCH   1  15
ATOM     15  N   UNL     1      -1.129  -5.224  -1.738  0.00  0.00    -0.187 NA
ATOM     16  H   UNL     1      -1.024  -4.918  -2.652  0.00  0.00    +0.148 HD
BRANCH  15  17
ATOM     17  C   UNL     1      -1.731  -4.343  -0.734  0.00  0.00    +0.073 C 
ATOM     18  C   UNL     1      -3.255  -4.465  -0.796  0.00  0.00    +0.025 C 
BRANCH  17  19
ATOM     19  C   UNL     1      -1.325  -2.895  -1.017  0.00  0.00    +0.020 C 
BRANCH  19  20
ATOM     20  C   UNL     1       0.187  -2.745  -0.833  0.00  0.00    +0.002 C 
BRANCH  20  21
ATOM     21  C   UNL     1       0.594  -1.297  -1.116  0.00  0.00    -0.000 C 
BRANCH  21  23
ATOM     22  C   UNL     1       2.512   0.301  -1.215  0.00  0.00    +0.004 C 
ATOM     23  C   UNL     1       2.105  -1.147  -0.932  0.00  0.00    -0.003 C 
ENDBRANCH  21  23
ENDBRANCH  20  21
ENDBRANCH  19  20
ENDBRANCH  17  19
ENDBRANCH  15  17
ENDBRANCH   1  15
TORSDOF 8
