REMARK  Name = ZINC01572538
REMARK  0 active torsions:
REMARK  status: ('A' for Active; 'I' for Inactive)
REMARK                            x       y       z     vdW  Elec       q    Type
REMARK                         _______ _______ _______ _____ _____    ______ ____
ROOT
ATOM      1  C   UNL     1       3.115   6.185  -1.222  0.00  0.00    +0.002 A 
ATOM      2  C   UNL     1       3.236   6.459   0.128  0.00  0.00    +0.001 A 
ATOM      3  C   UNL     1       2.865   5.489   1.045  0.00  0.00    +0.016 A 
ATOM      4  C   UNL     1       2.385   4.277   0.605  0.00  0.00    +0.032 A 
ATOM      5  C   UNL     1       2.251   3.970  -0.754  0.00  0.00    +0.042 A 
ATOM      6  C   UNL     1       2.635   4.972  -1.661  0.00  0.00    +0.024 A 
ATOM      7  N   UNL     1       1.754   2.709  -1.096  0.00  0.00    -0.318 N 
ATOM      8  C   UNL     1       1.420   1.810  -0.002  0.00  0.00    +0.188 C 
ATOM      9  S   UNL     1       1.824   2.824   1.466  0.00  0.00    -0.084 S 
ATOM     10  C   UNL     1      -0.017   1.389   0.010  0.00  0.00    +0.019 A 
ATOM     11  C   UNL     1      -1.213   2.071   0.030  0.00  0.00    +0.029 A 
ATOM     12  C   UNL     1      -2.410   1.376   0.037  0.00  0.00    +0.043 A 
ATOM     13  C   UNL     1      -2.403  -0.008   0.029  0.00  0.00    +0.042 A 
ATOM     14  C   UNL     1      -1.207  -0.697   0.011  0.00  0.00    +0.064 A 
ATOM     15  C   UNL     1       0.002  -0.004   0.002  0.00  0.00    +0.059 A 
ATOM     16  N   UNL     1       1.320  -0.471  -0.013  0.00  0.00    -0.281 N 
ATOM     17  C   UNL     1       2.215   0.538  -0.014  0.00  0.00    +0.256 C 
ATOM     18  O   UNL     1       3.423   0.437  -0.022  0.00  0.00    -0.272 OA
ATOM     19 CL   UNL     1      -1.209  -2.433   0.000  0.00  0.00    -0.082 Cl
ATOM     20 CL   UNL     1      -3.917   2.238   0.058  0.00  0.00    -0.083 Cl
ATOM     21  H   UNL     1       1.638   2.444  -2.022  0.00  0.00    +0.148 HD
ATOM     22  H   UNL     1       1.563  -1.410  -0.023  0.00  0.00    +0.155 HD
ENDROOT
TORSDOF 0
