REMARK  Name = ZINC36108718
REMARK  12 active torsions:
REMARK  status: ('A' for Active; 'I' for Inactive)
REMARK    1  A    between atoms: C_1  and  C_2
REMARK    2  A    between atoms: C_2  and  C_3
REMARK    3  A    between atoms: C_8  and  N_9
REMARK    4  A    between atoms: N_9  and  C_10
REMARK    5  A    between atoms: N_9  and  S_29
REMARK    6  A    between atoms: C_10  and  C_11
REMARK    7  A    between atoms: N_13  and  C_14
REMARK    8  A    between atoms: C_14  and  C_15
REMARK    9  A    between atoms: C_18  and  N_21
REMARK   10  A    between atoms: C_25  and  C_28
REMARK   11  A    between atoms: S_29  and  C_32
REMARK   12  A    between atoms: C_35  and  C_38
REMARK                            x       y       z     vdW  Elec       q    Type
REMARK                         _______ _______ _______ _____ _____    ______ ____
ROOT
ATOM      1  N   UNL     1      -1.396  -0.066   2.623  0.00  0.00    -0.194 N 
ENDROOT
BRANCH   1   7
ATOM      2  C   UNL     1      -0.052   0.670   0.758  0.00  0.00    -0.025 A 
ATOM      3  C   UNL     1       0.175   1.556  -0.277  0.00  0.00    +0.005 A 
ATOM      4  C   UNL     1      -0.698   2.607  -0.493  0.00  0.00    +0.000 A 
ATOM      5  C   UNL     1      -1.800   2.774   0.326  0.00  0.00    +0.002 A 
ATOM      6  C   UNL     1      -2.033   1.891   1.362  0.00  0.00    +0.025 A 
ATOM      7  C   UNL     1      -1.161   0.832   1.579  0.00  0.00    +0.055 A 
BRANCH   2   9
ATOM      8  C   UNL     1       1.990  -0.460  -0.081  0.00  0.00    +0.009 C 
ATOM      9  C   UNL     1       0.900  -0.474   0.993  0.00  0.00    +0.033 C 
ENDBRANCH   2   9
ENDBRANCH   1   7
BRANCH   1  10
ATOM     10  S   UNL     1      -2.676  -1.113   2.542  0.00  0.00    +0.075 S 
ATOM     11  O   UNL     1      -3.749  -0.398   1.945  0.00  0.00    -0.150 OA
ATOM     12  O   UNL     1      -2.174  -2.327   1.999  0.00  0.00    -0.150 OA
BRANCH  10  13
ATOM     13  C   UNL     1      -3.166  -1.467   4.197  0.00  0.00    +0.109 A 
ATOM     14  C   UNL     1      -2.636  -2.561   4.856  0.00  0.00    +0.029 A 
ATOM     15  C   UNL     1      -3.020  -2.838   6.154  0.00  0.00    +0.005 A 
ATOM     16  C   UNL     1      -3.933  -2.021   6.794  0.00  0.00    -0.050 A 
ATOM     17  C   UNL     1      -4.462  -0.927   6.136  0.00  0.00    +0.005 A 
ATOM     18  C   UNL     1      -4.075  -0.647   4.839  0.00  0.00    +0.029 A 
ATOM     19  C   UNL     1      -4.353  -2.324   8.210  0.00  0.00    +0.044 C 
ENDBRANCH  10  13
ENDBRANCH   1  10
BRANCH   1  20
ATOM     20  C   UNL     1      -0.510  -0.081   3.789  0.00  0.00    +0.227 C 
BRANCH  20  21
ATOM     21  C   UNL     1      -0.961   0.965   4.776  0.00  0.00    +0.232 C 
ATOM     22  O   UNL     1      -1.997   1.567   4.590  0.00  0.00    -0.274 OA
ATOM     23  N   UNL     1      -0.212   1.232   5.864  0.00  0.00    -0.310 N 
ATOM     24  H   UNL     1       0.617   0.751   6.013  0.00  0.00    +0.149 HD
BRANCH  23  25
ATOM     25  C   UNL     1      -0.650   2.249   6.823  0.00  0.00    +0.139 C 
BRANCH  25  26
ATOM     26  C   UNL     1       0.356   2.353   7.940  0.00  0.00    -0.030 A 
ATOM     27  C   UNL     1       0.224   1.559   9.065  0.00  0.00    +0.007 A 
ATOM     28  C   UNL     1       1.144   1.652  10.090  0.00  0.00    +0.023 A 
ATOM     29  C   UNL     1       2.204   2.545   9.991  0.00  0.00    +0.030 A 
ATOM     30  C   UNL     1       2.334   3.341   8.860  0.00  0.00    +0.023 A 
ATOM     31  C   UNL     1       1.413   3.239   7.836  0.00  0.00    +0.007 A 
BRANCH  29  32
ATOM     32  N   UNL     1       3.137   2.642  11.026  0.00  0.00    -0.330 N 
ATOM     33  C   UNL     1       4.064   3.780  11.094  0.00  0.00    +0.105 C 
ATOM     34  C   UNL     1       3.946   4.428  12.477  0.00  0.00    +0.019 C 
ATOM     35  C   UNL     1       4.174   3.366  13.555  0.00  0.00    +0.006 C 
ATOM     36  C   UNL     1       3.102   2.280  13.439  0.00  0.00    +0.003 C 
ATOM     37  C   UNL     1       3.206   1.611  12.070  0.00  0.00    +0.108 C 
ATOM     38  C   UNL     1       3.311   1.237  14.538  0.00  0.00    +0.009 C 
ENDBRANCH  29  32
ENDBRANCH  25  26
ENDBRANCH  23  25
ENDBRANCH  20  21
ENDBRANCH   1  20
TORSDOF 9
