REMARK  Name = ZINC61894999
REMARK  5 active torsions:
REMARK  status: ('A' for Active; 'I' for Inactive)
REMARK    1  A    between atoms: C_1  and  C_2
REMARK    2  A    between atoms: C_2  and  C_3
REMARK    3  A    between atoms: C_9  and  C_15
REMARK    4  A    between atoms: C_10  and  N_14
REMARK    5  A    between atoms: C_11  and  C_13
REMARK                            x       y       z     vdW  Elec       q    Type
REMARK                         _______ _______ _______ _____ _____    ______ ____
ROOT
ATOM      1  C   UNL     1      -1.412  -0.526   0.013  0.00  0.00    +0.051 A 
ATOM      2  C   UNL     1      -1.855  -1.393  -0.932  0.00  0.00    +0.072 A 
ATOM      3  S   UNL     1      -3.542  -1.631  -0.400  0.00  0.00    -0.056 S 
ATOM      4  C   UNL     1      -3.506  -0.620   0.945  0.00  0.00    +0.194 A 
ATOM      5  N   UNL     1      -2.272  -0.164   0.945  0.00  0.00    -0.226 NA
ATOM      6  N   UNL     1      -4.533  -0.338   1.844  0.00  0.00    -0.211 N 
ATOM      7  C   UNL     1      -5.797  -0.847   1.805  0.00  0.00    +0.065 A 
ATOM      8  C   UNL     1      -6.481  -0.323   2.853  0.00  0.00    +0.069 A 
ATOM      9  C   UNL     1      -5.612   0.530   3.551  0.00  0.00    +0.081 A 
ATOM     10  N   UNL     1      -4.449   0.515   2.952  0.00  0.00    -0.168 NA
ATOM     11  C   UNL     1      -5.958   1.322   4.786  0.00  0.00    +0.069 C 
ATOM     12  C   UNL     1      -6.336  -1.816   0.784  0.00  0.00    +0.068 C 
ENDROOT
BRANCH   8  13
ATOM     13  N   UNL     1      -7.824  -0.587   3.181  0.00  0.00    -0.355 N 
ATOM     14  H   UNL     1      -8.346  -1.194   2.635  0.00  0.00    +0.142 HD
ATOM     15  H   UNL     1      -8.227  -0.162   3.954  0.00  0.00    +0.142 HD
ENDBRANCH   8  13
BRANCH   1  17
ATOM     16  C   UNL     1      -0.019   1.526   0.010  0.00  0.00    +0.010 C 
ATOM     17  C   UNL     1       0.002  -0.004   0.002  0.00  0.00    +0.052 C 
ENDBRANCH   1  17
TORSDOF 2
