REMARK  Name = ZINC13065058
REMARK  12 active torsions:
REMARK  status: ('A' for Active; 'I' for Inactive)
REMARK    1  A    between atoms: C_1  and  C_2
REMARK    2  A    between atoms: C_2  and  C_3
REMARK    3  A    between atoms: C_3  and  C_5
REMARK    4  A    between atoms: C_3  and  N_68
REMARK    5  A    between atoms: N_9  and  C_10
REMARK    6  A    between atoms: C_10  and  C_11
REMARK    7  A    between atoms: C_17  and  C_18
REMARK    8  A    between atoms: C_17  and  N_68
REMARK    9  A    between atoms: C_24  and  C_25
REMARK   10  A    between atoms: C_24  and  N_68
REMARK   11  A    between atoms: C_30  and  C_38
REMARK   12  A    between atoms: C_31  and  C_37
REMARK                            x       y       z     vdW  Elec       q    Type
REMARK                         _______ _______ _______ _____ _____    ______ ____
ROOT
ATOM      1  N   UNL     1       1.020   6.038  -3.365  0.00  0.00    +0.392 N 
ATOM      2  H   UNL     1       1.486   6.111  -4.277  0.00  0.00    -0.080 HD
ENDROOT
BRANCH   1   3
ATOM      3  C   UNL     1       2.049   5.937  -2.308  0.00  0.00    +0.003 C 
BRANCH   3   4
ATOM      4  C   UNL     1       3.208   6.826  -2.678  0.00  0.00    +0.138 A 
ATOM      5  N   UNL     1       3.257   7.674  -3.676  0.00  0.00    -0.115 NA
ATOM      6  N   UNL     1       4.412   8.243  -3.659  0.00  0.00    -0.023 NA
ATOM      7  N   UNL     1       5.100   7.784  -2.672  0.00  0.00    -0.044 NA
ATOM      8  N   UNL     1       4.394   6.904  -2.046  0.00  0.00    -0.226 N 
BRANCH   8   9
ATOM      9  C   UNL     1       4.804   6.138  -0.866  0.00  0.00    +0.182 C 
BRANCH   9  10
ATOM     10  C   UNL     1       5.460   4.854  -1.304  0.00  0.00    -0.026 A 
ATOM     11  C   UNL     1       6.825   4.814  -1.519  0.00  0.00    +0.005 A 
ATOM     12  C   UNL     1       7.427   3.636  -1.920  0.00  0.00    +0.000 A 
ATOM     13  C   UNL     1       6.663   2.500  -2.112  0.00  0.00    +0.000 A 
ATOM     14  C   UNL     1       5.299   2.539  -1.893  0.00  0.00    +0.000 A 
ATOM     15  C   UNL     1       4.697   3.717  -1.491  0.00  0.00    +0.005 A 
ENDBRANCH   9  10
ENDBRANCH   8   9
ENDBRANCH   3   4
BRANCH   3  17
ATOM     16  C   UNL     1       0.239   5.541  -0.632  0.00  0.00    +0.002 C 
ATOM     17  C   UNL     1       1.475   6.381  -0.961  0.00  0.00    -0.011 C 
ENDBRANCH   3  17
ENDBRANCH   1   3
BRANCH   1  18
ATOM     18  C   UNL     1       0.168   4.830  -3.357  0.00  0.00    -0.040 C 
BRANCH  18  19
ATOM     19  C   UNL     1      -0.547   4.736  -4.681  0.00  0.00    -0.046 A 
ATOM     20  C   UNL     1      -1.870   5.137  -4.794  0.00  0.00    +0.005 A 
ATOM     21  C   UNL     1      -2.486   5.036  -6.032  0.00  0.00    +0.020 A 
ATOM     22  C   UNL     1      -1.770   4.533  -7.102  0.00  0.00    +0.111 A 
ATOM     23  N   UNL     1      -0.514   4.157  -6.956  0.00  0.00    -0.263 NA
ATOM     24  C   UNL     1       0.105   4.243  -5.795  0.00  0.00    +0.112 A 
ENDBRANCH  18  19
ENDBRANCH   1  18
BRANCH   1  25
ATOM     25  C   UNL     1       0.192   7.243  -3.151  0.00  0.00    -0.036 C 
BRANCH  25  26
ATOM     26  C   UNL     1       0.865   8.414  -3.820  0.00  0.00    +0.001 A 
ATOM     27  C   UNL     1       0.555   8.729  -5.101  0.00  0.00    +0.017 A 
ATOM     28  C   UNL     1       1.224   9.875  -5.721  0.00  0.00    -0.001 A 
ATOM     29  C   UNL     1       0.942  10.253  -7.038  0.00  0.00    +0.010 A 
ATOM     30  C   UNL     1       1.587  11.324  -7.588  0.00  0.00    +0.004 A 
ATOM     31  C   UNL     1       2.519  12.042  -6.851  0.00  0.00    -0.046 A 
ATOM     32  C   UNL     1       2.812  11.688  -5.552  0.00  0.00    -0.024 A 
ATOM     33  C   UNL     1       2.169  10.601  -4.971  0.00  0.00    +0.052 A 
ATOM     34  N   UNL     1       2.442  10.225  -3.673  0.00  0.00    -0.322 N 
ATOM     35  H   UNL     1       3.094  10.726  -3.157  0.00  0.00    +0.169 HD
ATOM     36  C   UNL     1       1.820   9.174  -3.111  0.00  0.00    +0.251 A 
ATOM     37  O   UNL     1       2.087   8.870  -1.961  0.00  0.00    -0.268 OA
ATOM     38  C   UNL     1       3.826  12.477  -4.764  0.00  0.00    +0.046 C 
ATOM     39  C   UNL     1       3.218  13.220  -7.479  0.00  0.00    +0.044 C 
ENDBRANCH  25  26
ENDBRANCH   1  25
TORSDOF 9
