REMARK  Name = ZINC12477205
REMARK  13 active torsions:
REMARK  status: ('A' for Active; 'I' for Inactive)
REMARK    1  A    between atoms: C_1  and  C_2
REMARK    2  A    between atoms: C_5  and  C_7
REMARK    3  A    between atoms: N_10  and  C_12
REMARK    4  A    between atoms: C_12  and  C_13
REMARK    5  A    between atoms: N_15  and  C_16
REMARK    6  A    between atoms: N_15  and  C_23
REMARK    7  A    between atoms: C_16  and  C_17
REMARK    8  A    between atoms: C_23  and  C_25
REMARK    9  A    between atoms: C_23  and  C_32
REMARK   10  A    between atoms: N_34  and  C_35
REMARK   11  A    between atoms: C_35  and  C_36
REMARK   12  A    between atoms: C_35  and  C_37
REMARK   13  A    between atoms: C_35  and  C_38
REMARK                            x       y       z     vdW  Elec       q    Type
REMARK                         _______ _______ _______ _____ _____    ______ ____
ROOT
ATOM      1  C   UNL     1       2.157  -2.415  -1.854  0.00  0.00    +0.240 C 
ATOM      2  O   UNL     1       2.149  -1.792  -2.894  0.00  0.00    -0.273 OA
ATOM      3  N   UNL     1       2.415  -3.738  -1.863  0.00  0.00    -0.282 N 
ENDROOT
BRANCH   1   4
ATOM      4  C   UNL     1       1.877  -1.710  -0.551  0.00  0.00    +0.264 C 
BRANCH   4   8
ATOM      5  C   UNL     1       1.928   1.778  -1.091  0.00  0.00    +0.239 A 
ATOM      6  N   UNL     1       0.622   1.502  -1.229  0.00  0.00    -0.105 NA
ATOM      7  N   UNL     1       0.478   0.233  -1.051  0.00  0.00    -0.045 NA
ATOM      8  N   UNL     1       1.629  -0.289  -0.809  0.00  0.00    -0.154 N 
ATOM      9  N   UNL     1       2.529   0.633  -0.828  0.00  0.00    -0.127 NA
BRANCH   5  14
ATOM     10  C   UNL     1       5.438   5.366  -1.163  0.00  0.00    +0.086 C 
ATOM     11  C   UNL     1       4.099   4.679  -1.243  0.00  0.00    +0.103 A 
ATOM     12  C   UNL     1       2.922   5.280  -1.501  0.00  0.00    +0.045 A 
ATOM     13  C   UNL     1       1.933   4.276  -1.482  0.00  0.00    +0.053 A 
ATOM     14  C   UNL     1       2.568   3.106  -1.210  0.00  0.00    +0.175 A 
ATOM     15  O   UNL     1       3.881   3.366  -1.062  0.00  0.00    -0.457 OA
ENDBRANCH   5  14
ENDBRANCH   4   8
ENDBRANCH   1   4
BRANCH   3  16
ATOM     16  C   UNL     1       2.425  -4.490  -0.606  0.00  0.00    +0.140 C 
BRANCH  16  17
ATOM     17  C   UNL     1       1.113  -5.265  -0.466  0.00  0.00    +0.136 C 
ATOM     18  C   UNL     1       1.159  -6.181   0.778  0.00  0.00    +0.035 C 
ATOM     19  C   UNL     1       0.407  -7.455   0.334  0.00  0.00    +0.031 C 
ATOM     20  C   UNL     1      -0.005  -7.159  -1.125  0.00  0.00    +0.160 C 
ATOM     21  O   UNL     1       0.939  -6.165  -1.583  0.00  0.00    -0.375 OA
ENDBRANCH  16  17
ENDBRANCH   3  16
BRANCH   3  22
ATOM     22  C   UNL     1       2.687  -4.423  -3.129  0.00  0.00    +0.192 C 
BRANCH  22  23
ATOM     23  C   UNL     1       1.495  -4.285  -4.040  0.00  0.00    -0.018 A 
ATOM     24  C   UNL     1       0.219  -4.257  -3.510  0.00  0.00    +0.007 A 
ATOM     25  C   UNL     1      -0.875  -4.125  -4.345  0.00  0.00    +0.020 A 
ATOM     26  C   UNL     1      -0.692  -4.032  -5.713  0.00  0.00    +0.041 A 
ATOM     27  C   UNL     1       0.585  -4.065  -6.244  0.00  0.00    +0.020 A 
ATOM     28  C   UNL     1       1.678  -4.191  -5.407  0.00  0.00    +0.007 A 
ATOM     29 CL   UNL     1      -2.066  -3.873  -6.763  0.00  0.00    -0.084 Cl
ENDBRANCH  22  23
BRANCH  22  30
ATOM     30  C   UNL     1       2.950  -5.883  -2.863  0.00  0.00    +0.238 C 
ATOM     31  O   UNL     1       3.032  -6.287  -1.723  0.00  0.00    -0.273 OA
ATOM     32  N   UNL     1       3.095  -6.739  -3.894  0.00  0.00    -0.309 N 
ATOM     33  H   UNL     1       3.030  -6.416  -4.806  0.00  0.00    +0.149 HD
BRANCH  32  34
ATOM     34  C   UNL     1       3.352  -8.159  -3.636  0.00  0.00    +0.026 C 
ATOM     35  C   UNL     1       2.194  -8.747  -2.826  0.00  0.00    +0.031 C 
ATOM     36  C   UNL     1       3.474  -8.904  -4.966  0.00  0.00    +0.031 C 
ATOM     37  C   UNL     1       4.653  -8.307  -2.846  0.00  0.00    +0.031 C 
ENDBRANCH  32  34
ENDBRANCH  22  30
ENDBRANCH   3  22
TORSDOF 9
