REMARK  Name = ZINC13411220
REMARK  5 active torsions:
REMARK  status: ('A' for Active; 'I' for Inactive)
REMARK    1  A    between atoms: C_1  and  C_2
REMARK    2  A    between atoms: C_9  and  S_11
REMARK    3  A    between atoms: S_11  and  C_12
REMARK    4  A    between atoms: C_12  and  C_13
REMARK    5  A    between atoms: C_21  and  C_22
REMARK                            x       y       z     vdW  Elec       q    Type
REMARK                         _______ _______ _______ _____ _____    ______ ____
ROOT
ATOM      1  C   UNL     1       0.105  -7.035   1.047  0.00  0.00    +0.117 C 
ENDROOT
BRANCH   1   2
ATOM      2  C   UNL     1       0.128  -8.426   1.625  0.00  0.00    +0.023 A 
ATOM      3  C   UNL     1       1.309  -9.219   1.961  0.00  0.00    +0.025 A 
ATOM      4  C   UNL     1       2.687  -8.998   1.877  0.00  0.00    +0.012 A 
ATOM      5  C   UNL     1       3.555  -9.970   2.285  0.00  0.00    +0.001 A 
ATOM      6  C   UNL     1       3.078 -11.175   2.783  0.00  0.00    +0.004 A 
ATOM      7  C   UNL     1       1.723 -11.413   2.874  0.00  0.00    +0.047 A 
ATOM      8  C   UNL     1       0.820 -10.439   2.465  0.00  0.00    +0.136 A 
ATOM      9  O   UNL     1      -0.525 -10.383   2.434  0.00  0.00    -0.448 OA
ATOM     10  C   UNL     1      -0.946  -9.197   1.945  0.00  0.00    +0.221 A 
BRANCH  10  11
ATOM     11  C   UNL     1      -2.347  -8.801   1.782  0.00  0.00    +0.421 C 
ATOM     12  O   UNL     1      -2.623  -7.699   1.324  0.00  0.00    -0.237 OA
ATOM     13  O   UNL     1      -3.243  -9.572   2.102  0.00  0.00    -0.237 OA
ENDBRANCH  10  11
ENDBRANCH   1   2
BRANCH   1  14
ATOM     14  S   UNL     1       0.096  -5.820   2.394  0.00  0.00    -0.083 S 
BRANCH  14  23
ATOM     15  C   UNL     1      -0.018   1.503   0.010  0.00  0.00    +0.044 C 
ATOM     16  C   UNL     1       0.002  -0.004   0.002  0.00  0.00    -0.048 A 
ATOM     17  C   UNL     1       0.006  -0.686  -1.206  0.00  0.00    +0.005 A 
ATOM     18  C   UNL     1       0.024  -2.063  -1.230  0.00  0.00    +0.030 A 
ATOM     19  C   UNL     1       0.040  -2.778  -0.030  0.00  0.00    +0.090 A 
ATOM     20  C   UNL     1       0.037  -2.082   1.190  0.00  0.00    +0.067 A 
ATOM     21  C   UNL     1       0.023  -0.696   1.196  0.00  0.00    +0.031 A 
ATOM     22  N   UNL     1       0.055  -3.047   2.184  0.00  0.00    -0.333 N 
ATOM     23  C   UNL     1       0.069  -4.265   1.566  0.00  0.00    +0.168 A 
ATOM     24  N   UNL     1       0.060  -4.104   0.266  0.00  0.00    -0.222 NA
ATOM     25  H   UNL     1       0.058  -2.887   3.141  0.00  0.00    +0.168 HD
ENDBRANCH  14  23
ENDBRANCH   1  14
TORSDOF 4
