REMARK  Name = ZINC35747292
REMARK  15 active torsions:
REMARK  status: ('A' for Active; 'I' for Inactive)
REMARK    1  A    between atoms: C_1  and  O_2
REMARK    2  A    between atoms: O_2  and  C_3
REMARK    3  A    between atoms: C_3  and  C_4
REMARK    4  A    between atoms: C_4  and  C_6
REMARK    5  A    between atoms: C_4  and  O_36
REMARK    6  A    between atoms: C_6  and  N_7
REMARK    7  A    between atoms: N_7  and  C_8
REMARK    8  A    between atoms: N_7  and  C_14
REMARK    9  A    between atoms: C_8  and  C_9
REMARK   10  A    between atoms: C_14  and  C_15
REMARK   11  A    between atoms: C_21  and  C_26
REMARK   12  A    between atoms: C_29  and  O_34
REMARK   13  A    between atoms: C_30  and  O_32
REMARK   14  A    between atoms: O_32  and  C_33
REMARK   15  A    between atoms: O_34  and  C_35
REMARK                            x       y       z     vdW  Elec       q    Type
REMARK                         _______ _______ _______ _____ _____    ______ ____
ROOT
ATOM      1  C   UNL     1      -3.397  -6.369  -0.324  0.00  0.00    +0.094 A 
ATOM      2  N   UNL     1      -4.473  -7.175  -0.513  0.00  0.00    -0.312 N 
ATOM      3  H   UNL     1      -5.352  -6.779  -0.618  0.00  0.00    +0.170 HD
ATOM      4  C   UNL     1      -4.344  -8.514  -0.560  0.00  0.00    +0.260 A 
ATOM      5  O   UNL     1      -5.320  -9.224  -0.731  0.00  0.00    -0.267 OA
ATOM      6  C   UNL     1      -3.043  -9.091  -0.405  0.00  0.00    +0.080 A 
ATOM      7  C   UNL     1      -2.649 -10.495  -0.418  0.00  0.00    +0.004 A 
ATOM      8  C   UNL     1      -1.341 -10.806  -0.250  0.00  0.00    +0.056 A 
ATOM      9  S   UNL     1      -0.559  -9.216  -0.064  0.00  0.00    -0.076 S 
ATOM     10  C   UNL     1      -1.992  -8.180  -0.214  0.00  0.00    +0.116 A 
ATOM     11  N   UNL     1      -2.197  -6.866  -0.184  0.00  0.00    -0.229 NA
ENDROOT
BRANCH   7  12
ATOM     12  C   UNL     1      -3.661 -11.562  -0.611  0.00  0.00    -0.013 A 
ATOM     13  C   UNL     1      -4.824 -11.568   0.157  0.00  0.00    +0.012 A 
ATOM     14  C   UNL     1      -5.766 -12.561  -0.023  0.00  0.00    +0.050 A 
ATOM     15  C   UNL     1      -5.557 -13.555  -0.967  0.00  0.00    +0.162 A 
ATOM     16  C   UNL     1      -4.397 -13.554  -1.737  0.00  0.00    +0.162 A 
ATOM     17  C   UNL     1      -3.453 -12.557  -1.564  0.00  0.00    +0.058 A 
BRANCH  16  18
ATOM     18  O   UNL     1      -4.194 -14.529  -2.663  0.00  0.00    -0.491 OA
ATOM     19  C   UNL     1      -2.982 -14.466  -3.417  0.00  0.00    +0.277 C 
ENDBRANCH  16  18
BRANCH  15  20
ATOM     20  O   UNL     1      -6.486 -14.532  -1.141  0.00  0.00    -0.491 OA
ATOM     21  C   UNL     1      -7.652 -14.472  -0.317  0.00  0.00    +0.277 C 
ENDBRANCH  15  20
ENDBRANCH   7  12
BRANCH   1  22
ATOM     22  C   UNL     1      -3.590  -4.875  -0.279  0.00  0.00    -0.003 C 
BRANCH  22  23
ATOM     23  N   UNL     1      -2.292  -4.220  -0.072  0.00  0.00    +0.391 N 
ATOM     24  H   UNL     1      -1.848  -4.604   0.749  0.00  0.00    -0.080 HD
BRANCH  23  25
ATOM     25  C   UNL     1      -2.495  -2.776   0.111  0.00  0.00    -0.044 C 
BRANCH  25  26
ATOM     26  C   UNL     1      -3.217  -2.528   1.437  0.00  0.00    +0.124 C 
BRANCH  26  27
ATOM     27  O   UNL     1      -4.557  -3.018   1.349  0.00  0.00    -0.391 OA
ATOM     28  H   UNL     1      -5.084  -2.599   0.654  0.00  0.00    +0.210 HD
ENDBRANCH  26  27
BRANCH  26  29
ATOM     29  C   UNL     1      -3.242  -1.026   1.730  0.00  0.00    +0.188 C 
BRANCH  29  31
ATOM     30  C   UNL     1      -3.881   0.575   3.396  0.00  0.00    +0.194 C 
ATOM     31  O   UNL     1      -3.812  -0.803   3.022  0.00  0.00    -0.381 OA
ENDBRANCH  29  31
ENDBRANCH  26  29
ENDBRANCH  25  26
ENDBRANCH  23  25
BRANCH  23  32
ATOM     32  C   UNL     1      -1.435  -4.448  -1.244  0.00  0.00    -0.002 C 
BRANCH  32  33
ATOM     33  C   UNL     1      -0.057  -3.902  -0.973  0.00  0.00    +0.089 A 
ATOM     34  C   UNL     1       0.991  -4.606  -0.511  0.00  0.00    +0.042 A 
ATOM     35  C   UNL     1       2.075  -3.704  -0.406  0.00  0.00    +0.041 A 
ATOM     36  C   UNL     1       1.625  -2.503  -0.811  0.00  0.00    +0.195 A 
ATOM     37  O   UNL     1       0.334  -2.630  -1.159  0.00  0.00    -0.470 OA
ENDBRANCH  32  33
ENDBRANCH  23  32
ENDBRANCH  22  23
ENDBRANCH   1  22
TORSDOF 12
