REMARK  Name = ZINC12478894
REMARK  4 active torsions:
REMARK  status: ('A' for Active; 'I' for Inactive)
REMARK    1  A    between atoms: C_6  and  C_7
REMARK    2  A    between atoms: N_14  and  C_17
REMARK    3  A    between atoms: C_17  and  C_18
REMARK    4  A    between atoms: N_20  and  N_21
REMARK                            x       y       z     vdW  Elec       q    Type
REMARK                         _______ _______ _______ _____ _____    ______ ____
ROOT
ATOM      1  C   UNL     1       2.436   0.994  -0.015  0.00  0.00    +0.223 C 
ENDROOT
BRANCH   1   9
ATOM      2  C   UNL     1      -2.322   5.189   0.050  0.00  0.00    +0.022 A 
ATOM      3  C   UNL     1      -2.421   3.829   0.044  0.00  0.00    +0.044 A 
ATOM      4  C   UNL     1      -1.263   3.046   0.030  0.00  0.00    +0.086 A 
ATOM      5  C   UNL     1      -0.048   3.756   0.022  0.00  0.00    +0.103 A 
ATOM      6  S   UNL     1      -0.557   5.454   0.035  0.00  0.00    -0.081 S 
ATOM      7  C   UNL     1       1.179   3.093   0.007  0.00  0.00    +0.269 A 
ATOM      8  O   UNL     1       2.228   3.716   0.001  0.00  0.00    -0.266 OA
ATOM      9  N   UNL     1       1.174   1.738   0.000  0.00  0.00    -0.289 N 
ATOM     10  C   UNL     1      -0.013   1.076   0.008  0.00  0.00    +0.203 A 
ATOM     11  N   UNL     1      -1.159   1.675   0.017  0.00  0.00    -0.236 NA
BRANCH   2  17
ATOM     12  C   UNL     1      -4.741   5.785   0.069  0.00  0.00    +0.010 A 
ATOM     13  C   UNL     1      -5.749   6.727   0.088  0.00  0.00    +0.020 A 
ATOM     14  C   UNL     1      -5.439   8.076   0.092  0.00  0.00    +0.041 A 
ATOM     15  C   UNL     1      -4.117   8.489   0.083  0.00  0.00    +0.020 A 
ATOM     16  C   UNL     1      -3.100   7.556   0.069  0.00  0.00    +0.010 A 
ATOM     17  C   UNL     1      -3.407   6.194   0.065  0.00  0.00    -0.011 A 
ATOM     18 CL   UNL     1      -6.712   9.256   0.110  0.00  0.00    -0.084 Cl
ENDBRANCH   2  17
ENDBRANCH   1   9
BRANCH   1  19
ATOM     19  C   UNL     1       2.856   0.745  -1.441  0.00  0.00    +0.250 C 
ATOM     20  O   UNL     1       2.168   1.150  -2.354  0.00  0.00    -0.272 OA
ATOM     21  N   UNL     1       3.995   0.073  -1.701  0.00  0.00    -0.222 N 
ATOM     22  H   UNL     1       4.544  -0.250  -0.970  0.00  0.00    +0.174 HD
BRANCH  21  23
ATOM     23  N   UNL     1       4.385  -0.158  -3.026  0.00  0.00    -0.137 N 
ATOM     24  C   UNL     1       5.379   0.507  -3.651  0.00  0.00    +0.263 C 
ATOM     25  O   UNL     1       6.078   1.384  -3.190  0.00  0.00    -0.271 OA
ATOM     26  C   UNL     1       5.438  -0.072  -5.046  0.00  0.00    +0.114 C 
ATOM     27  C   UNL     1       6.797  -0.715  -5.298  0.00  0.00    +0.035 C 
ATOM     28  C   UNL     1       6.826  -1.320  -6.704  0.00  0.00    +0.003 C 
ATOM     29  C   UNL     1       6.564  -0.221  -7.735  0.00  0.00    +0.000 C 
ATOM     30  C   UNL     1       5.187   0.398  -7.485  0.00  0.00    +0.003 C 
ATOM     31  C   UNL     1       5.151   1.009  -6.082  0.00  0.00    +0.035 C 
ATOM     32  N   UNL     1       4.377  -1.088  -5.055  0.00  0.00    -0.284 N 
ATOM     33  C   UNL     1       3.821  -1.069  -3.829  0.00  0.00    +0.326 C 
ATOM     34  O   UNL     1       2.908  -1.796  -3.489  0.00  0.00    -0.251 OA
ATOM     35  H   UNL     1       4.130  -1.662  -5.796  0.00  0.00    +0.151 HD
ENDBRANCH  21  23
ENDBRANCH   1  19
TORSDOF 4
