REMARK  Name = ZINC63588479
REMARK  8 active torsions:
REMARK  status: ('A' for Active; 'I' for Inactive)
REMARK    1  A    between atoms: C_1  and  C_2
REMARK    2  A    between atoms: C_4  and  C_32
REMARK    3  A    between atoms: C_6  and  N_8
REMARK    4  A    between atoms: N_10  and  C_11
REMARK    5  A    between atoms: C_11  and  C_12
REMARK    6  A    between atoms: C_12  and  C_13
REMARK    7  A    between atoms: N_22  and  C_23
REMARK    8  A    between atoms: C_23  and  C_25
REMARK                            x       y       z     vdW  Elec       q    Type
REMARK                         _______ _______ _______ _____ _____    ______ ____
ROOT
ATOM      1  N   UNL     1       0.828  -2.696   2.464  0.00  0.00    -0.328 N 
ATOM      2  C   UNL     1       0.273  -2.121   3.572  0.00  0.00    +0.194 C 
ATOM      3  N   UNL     1      -0.040  -2.890   4.655  0.00  0.00    -0.357 N 
ATOM      4  N   UNL     1       0.039  -0.818   3.595  0.00  0.00    -0.143 NA
ATOM      5  H   UNL     1      -0.433  -2.482   5.442  0.00  0.00    +0.162 HD
ATOM      6  H   UNL     1       0.574  -3.595   2.206  0.00  0.00    +0.169 HD
ENDROOT
BRANCH   1  12
ATOM      7  C   UNL     1       4.050   0.998   2.084  0.00  0.00    +0.044 C 
ATOM      8  C   UNL     1       3.339  -0.192   1.493  0.00  0.00    -0.048 A 
ATOM      9  C   UNL     1       3.609  -0.583   0.194  0.00  0.00    +0.006 A 
ATOM     10  C   UNL     1       2.959  -1.674  -0.352  0.00  0.00    -0.048 A 
ATOM     11  C   UNL     1       2.036  -2.377   0.398  0.00  0.00    +0.029 A 
ATOM     12  C   UNL     1       1.762  -1.986   1.702  0.00  0.00    +0.042 A 
ATOM     13  C   UNL     1       2.421  -0.894   2.250  0.00  0.00    +0.029 A 
ATOM     14  C   UNL     1       3.257  -2.097  -1.767  0.00  0.00    +0.044 C 
ENDBRANCH   1  12
BRANCH   4  15
ATOM     15  C   UNL     1      -0.074  -0.137   2.447  0.00  0.00    +0.270 C 
ATOM     16  O   UNL     1      -0.071  -0.731   1.384  0.00  0.00    -0.268 OA
BRANCH  15  17
ATOM     17  C   UNL     1      -0.204   1.337   2.471  0.00  0.00    +0.039 A 
ATOM     18  C   UNL     1      -0.097   2.031   3.677  0.00  0.00    +0.014 A 
ATOM     19  C   UNL     1      -0.219   3.405   3.693  0.00  0.00    +0.021 A 
ATOM     20  C   UNL     1      -0.447   4.096   2.514  0.00  0.00    +0.041 A 
ATOM     21  C   UNL     1      -0.555   3.413   1.314  0.00  0.00    +0.021 A 
ATOM     22  C   UNL     1      -0.429   2.040   1.286  0.00  0.00    +0.014 A 
ATOM     23 CL   UNL     1      -0.599   5.825   2.542  0.00  0.00    -0.084 Cl
ENDBRANCH  15  17
ENDBRANCH   4  15
BRANCH   3  24
ATOM     24  C   UNL     1       0.219  -4.332   4.629  0.00  0.00    +0.120 C 
BRANCH  24  25
ATOM     25  C   UNL     1      -0.220  -4.952   5.957  0.00  0.00    +0.054 C 
BRANCH  25  26
ATOM     26  C   UNL     1       0.046  -6.435   5.930  0.00  0.00    -0.040 C 
ATOM     27  C   UNL     1       1.136  -7.075   6.412  0.00  0.00    -0.001 A 
ATOM     28  C   UNL     1       2.354  -6.599   7.079  0.00  0.00    +0.010 A 
ATOM     29  C   UNL     1       3.291  -7.499   7.455  0.00  0.00    +0.001 A 
ATOM     30  C   UNL     1       3.128  -8.872   7.223  0.00  0.00    +0.002 A 
ATOM     31  C   UNL     1       2.037  -9.385   6.616  0.00  0.00    +0.026 A 
ATOM     32  C   UNL     1       0.989  -8.529   6.180  0.00  0.00    +0.043 A 
ATOM     33  N   UNL     1      -0.148  -8.779   5.577  0.00  0.00    -0.380 N 
ATOM     34  C   UNL     1      -0.854  -7.511   5.365  0.00  0.00    +0.144 C 
ATOM     35  H   UNL     1      -0.471  -9.657   5.319  0.00  0.00    +0.160 HD
ENDBRANCH  25  26
ENDBRANCH  24  25
ENDBRANCH   3  24
TORSDOF 6
