REMARK  Name = ZINC35550038
REMARK  7 active torsions:
REMARK  status: ('A' for Active; 'I' for Inactive)
REMARK    1  A    between atoms: C_1  and  C_2
REMARK    2  A    between atoms: N_5  and  C_7
REMARK    3  A    between atoms: C_14  and  C_31
REMARK    4  A    between atoms: C_14  and  C_32
REMARK    5  A    between atoms: C_16  and  N_18
REMARK    6  A    between atoms: C_19  and  C_21
REMARK    7  A    between atoms: C_25  and  N_27
REMARK                            x       y       z     vdW  Elec       q    Type
REMARK                         _______ _______ _______ _____ _____    ______ ____
ROOT
ATOM      1  C   UNL     1       0.217   1.701  -0.179  0.00  0.00    +0.068 C 
ATOM      2  C   UNL     1       0.230   0.198  -0.068  0.00  0.00    +0.066 A 
ATOM      3  C   UNL     1       0.035  -0.701  -1.114  0.00  0.00    +0.017 A 
ATOM      4  C   UNL     1       0.122  -1.958  -0.608  0.00  0.00    +0.051 A 
ATOM      5  N   UNL     1       0.362  -1.855   0.713  0.00  0.00    -0.236 N 
ATOM      6  N   UNL     1       0.433  -0.490   1.030  0.00  0.00    -0.171 NA
ATOM      7  C   UNL     1      -0.029  -3.213  -1.430  0.00  0.00    +0.062 C 
ATOM      8  C   UNL     1       0.125  -2.844  -2.910  0.00  0.00    -0.027 C 
ATOM      9  C   UNL     1      -0.781  -1.654  -3.238  0.00  0.00    +0.034 C 
ATOM     10  C   UNL     1      -0.230  -0.391  -2.566  0.00  0.00    +0.108 C 
ATOM     11  C   UNL     1      -0.270  -4.040  -3.778  0.00  0.00    +0.011 C 
ATOM     12  C   UNL     1       1.581  -2.468  -3.193  0.00  0.00    +0.011 C 
ENDROOT
BRANCH   5  13
ATOM     13  C   UNL     1       0.519  -2.921   1.609  0.00  0.00    +0.066 A 
ATOM     14  C   UNL     1      -0.215  -4.087   1.438  0.00  0.00    +0.028 A 
ATOM     15  C   UNL     1      -0.058  -5.136   2.324  0.00  0.00    +0.002 A 
ATOM     16  C   UNL     1       0.828  -5.024   3.380  0.00  0.00    +0.000 A 
ATOM     17  C   UNL     1       1.559  -3.864   3.553  0.00  0.00    +0.002 A 
ATOM     18  C   UNL     1       1.412  -2.814   2.667  0.00  0.00    +0.028 A 
ENDBRANCH   5  13
BRANCH  10  19
ATOM     19  N   UNL     1      -1.213   0.691  -2.667  0.00  0.00    -0.304 N 
ATOM     20  C   UNL     1      -1.220   1.496  -3.748  0.00  0.00    +0.245 C 
ATOM     21  O   UNL     1      -0.472   1.270  -4.679  0.00  0.00    -0.270 OA
ATOM     22  H   UNL     1      -1.860   0.827  -1.957  0.00  0.00    +0.150 HD
BRANCH  20  23
ATOM     23  C   UNL     1      -2.137   2.654  -3.800  0.00  0.00    +0.039 A 
ATOM     24  C   UNL     1      -2.993   2.920  -2.730  0.00  0.00    +0.014 A 
ATOM     25  C   UNL     1      -3.846   4.001  -2.785  0.00  0.00    +0.023 A 
ATOM     26  C   UNL     1      -3.854   4.824  -3.899  0.00  0.00    +0.071 A 
ATOM     27  C   UNL     1      -3.008   4.566  -4.964  0.00  0.00    +0.145 A 
ATOM     28  C   UNL     1      -2.146   3.490  -4.918  0.00  0.00    +0.047 A 
ATOM     29 CL   UNL     1      -4.931   6.185  -3.961  0.00  0.00    -0.081 Cl
BRANCH  27  30
ATOM     30  N   UNL     1      -3.023   5.450  -6.152  0.00  0.00    +0.058 N 
ATOM     31  O   UNL     1      -2.285   5.225  -7.082  0.00  0.00    -0.126 OA
ATOM     32  O   UNL     1      -3.775   6.396  -6.191  0.00  0.00    -0.126 OA
ENDBRANCH  27  30
ENDBRANCH  20  23
ENDBRANCH  10  19
TORSDOF 4
