REMARK  Name = ZINC15005303
REMARK  11 active torsions:
REMARK  status: ('A' for Active; 'I' for Inactive)
REMARK    1  A    between atoms: C_1  and  C_2
REMARK    2  A    between atoms: C_9  and  C_21
REMARK    3  A    between atoms: C_10  and  N_12
REMARK    4  A    between atoms: N_12  and  C_13
REMARK    5  A    between atoms: N_12  and  C_14
REMARK    6  A    between atoms: C_14  and  C_15
REMARK    7  A    between atoms: C_21  and  N_22
REMARK    8  A    between atoms: N_22  and  C_23
REMARK    9  A    between atoms: C_23  and  C_24
REMARK   10  A    between atoms: C_30  and  C_32
REMARK   11  A    between atoms: C_35  and  C_37
REMARK                            x       y       z     vdW  Elec       q    Type
REMARK                         _______ _______ _______ _____ _____    ______ ____
ROOT
ATOM      1  C   UNL     1      -0.075   1.476  -0.077  0.00  0.00    +0.044 C 
ATOM      2  C   UNL     1      -0.096  -0.031  -0.067  0.00  0.00    -0.050 A 
ATOM      3  C   UNL     1      -0.162  -0.726  -1.272  0.00  0.00    +0.005 A 
ATOM      4  C   UNL     1      -0.183  -2.086  -1.298  0.00  0.00    +0.026 A 
ATOM      5  C   UNL     1      -0.137  -2.808  -0.092  0.00  0.00    +0.048 A 
ATOM      6  C   UNL     1      -0.068  -2.099   1.132  0.00  0.00    -0.001 A 
ATOM      7  C   UNL     1      -0.044  -0.696   1.121  0.00  0.00    +0.013 A 
ATOM      8  C   UNL     1      -0.021  -2.822   2.342  0.00  0.00    +0.018 A 
ATOM      9  C   UNL     1      -0.044  -4.183   2.282  0.00  0.00    +0.008 A 
ATOM     10  C   UNL     1      -0.112  -4.826   1.038  0.00  0.00    +0.104 A 
ATOM     11  N   UNL     1      -0.155  -4.145  -0.089  0.00  0.00    -0.343 N 
ATOM     12  H   UNL     1      -0.202  -4.622  -0.932  0.00  0.00    +0.167 HD
ENDROOT
BRANCH  10  13
ATOM     13  N   UNL     1      -0.134  -6.212   0.993  0.00  0.00    -0.314 N 
ATOM     14  C   UNL     1       1.122  -6.966   1.016  0.00  0.00    +0.131 C 
BRANCH  13  15
ATOM     15  C   UNL     1      -1.413  -6.923   0.921  0.00  0.00    +0.163 C 
BRANCH  15  16
ATOM     16  C   UNL     1      -1.798  -7.121  -0.523  0.00  0.00    +0.080 A 
ATOM     17  C   UNL     1      -1.546  -8.263  -1.289  0.00  0.00    +0.045 A 
ATOM     18  C   UNL     1      -2.045  -8.051  -2.529  0.00  0.00    +0.105 A 
ATOM     19  N   UNL     1      -2.592  -6.818  -2.547  0.00  0.00    -0.284 N 
ATOM     20  N   UNL     1      -2.429  -6.256  -1.274  0.00  0.00    -0.177 NA
ATOM     21  H   UNL     1      -3.026  -6.397  -3.306  0.00  0.00    +0.188 HD
ENDBRANCH  15  16
ENDBRANCH  13  15
ENDBRANCH  10  13
BRANCH   9  22
ATOM     22  C   UNL     1       0.005  -4.995   3.550  0.00  0.00    +0.146 C 
BRANCH  22  23
ATOM     23  N   UNL     1       0.191  -4.101   4.696  0.00  0.00    -0.290 N 
ATOM     24  C   UNL     1       1.430  -3.868   5.174  0.00  0.00    +0.254 C 
ATOM     25  O   UNL     1       2.400  -4.332   4.604  0.00  0.00    -0.269 OA
BRANCH  24  26
ATOM     26  C   UNL     1       1.608  -3.055   6.380  0.00  0.00    +0.074 A 
ATOM     27  C   UNL     1       2.783  -2.615   6.972  0.00  0.00    +0.021 A 
ATOM     28  C   UNL     1       2.631  -1.860   8.110  0.00  0.00    +0.011 A 
ATOM     29  C   UNL     1       1.381  -1.600   8.568  0.00  0.00    -0.013 A 
ATOM     30  S   UNL     1       0.372  -2.366   7.464  0.00  0.00    -0.089 S 
ATOM     31  C   UNL     1       0.988  -0.802   9.783  0.00  0.00    +0.051 C 
ENDBRANCH  24  26
BRANCH  23  32
ATOM     32  C   UNL     1      -0.968  -3.461   5.321  0.00  0.00    +0.140 C 
BRANCH  32  33
ATOM     33  C   UNL     1      -1.450  -4.314   6.497  0.00  0.00    +0.136 C 
ATOM     34  C   UNL     1      -2.698  -3.672   7.152  0.00  0.00    +0.035 C 
ATOM     35  C   UNL     1      -3.363  -4.916   7.802  0.00  0.00    +0.031 C 
ATOM     36  C   UNL     1      -3.023  -6.034   6.793  0.00  0.00    +0.160 C 
ATOM     37  O   UNL     1      -1.887  -5.601   6.032  0.00  0.00    -0.375 OA
ENDBRANCH  32  33
ENDBRANCH  23  32
ENDBRANCH  22  23
ENDBRANCH   9  22
TORSDOF 8
