REMARK  Name = ZINC19941642
REMARK  8 active torsions:
REMARK  status: ('A' for Active; 'I' for Inactive)
REMARK    1  A    between atoms: C_1  and  C_2
REMARK    2  A    between atoms: C_4  and  C_41
REMARK    3  A    between atoms: C_9  and  C_14
REMARK    4  A    between atoms: C_14  and  C_16
REMARK    5  A    between atoms: C_14  and  N_26
REMARK    6  A    between atoms: N_20  and  C_21
REMARK    7  A    between atoms: N_29  and  C_32
REMARK    8  A    between atoms: C_35  and  N_38
REMARK                            x       y       z     vdW  Elec       q    Type
REMARK                         _______ _______ _______ _____ _____    ______ ____
ROOT
ATOM      1  C   UNL     1      -1.332   7.432   0.058  0.00  0.00    +0.162 C 
ENDROOT
BRANCH   1  10
ATOM      2  C   UNL     1       2.491   1.029  -0.016  0.00  0.00    +0.044 C 
ATOM      3  C   UNL     1       1.185   1.779   0.000  0.00  0.00    -0.050 A 
ATOM      4  C   UNL     1      -0.013   1.076   0.008  0.00  0.00    +0.008 A 
ATOM      5  C   UNL     1      -1.219   1.741   0.017  0.00  0.00    -0.026 A 
ATOM      6  C   UNL     1      -1.240   3.132   0.031  0.00  0.00    +0.052 A 
ATOM      7  C   UNL     1      -0.025   3.842   0.023  0.00  0.00    -0.001 A 
ATOM      8  C   UNL     1       1.188   3.145   0.008  0.00  0.00    +0.013 A 
ATOM      9  C   UNL     1      -0.057   5.306   0.033  0.00  0.00    +0.021 A 
ATOM     10  C   UNL     1      -1.263   5.926   0.048  0.00  0.00    +0.042 A 
ATOM     11  C   UNL     1      -2.453   5.168   0.055  0.00  0.00    +0.254 A 
ATOM     12  O   UNL     1      -3.526   5.746   0.068  0.00  0.00    -0.268 OA
ATOM     13  N   UNL     1      -2.433   3.824   0.047  0.00  0.00    -0.322 N 
ATOM     14  H   UNL     1      -3.386   3.275   0.053  0.00  0.00    +0.169 HD
ATOM     15  C   UNL     1      -2.511   0.965   0.019  0.00  0.00    +0.046 C 
ENDBRANCH   1  10
BRANCH   1  16
ATOM     16  N   UNL     1      -2.158   7.892  -1.066  0.00  0.00    -0.286 NA
ATOM     17  C   UNL     1      -1.643   7.380  -2.343  0.00  0.00    +0.104 C 
ATOM     18  C   UNL     1      -2.574   7.814  -3.477  0.00  0.00    +0.120 C 
ATOM     19  N   UNL     1      -2.664   9.280  -3.499  0.00  0.00    -0.327 N 
ATOM     20  C   UNL     1      -3.180   9.793  -2.222  0.00  0.00    +0.120 C 
ATOM     21  C   UNL     1      -2.248   9.358  -1.088  0.00  0.00    +0.104 C 
BRANCH  19  22
ATOM     22  C   UNL     1      -3.450   9.718  -4.568  0.00  0.00    +0.030 A 
ATOM     23  C   UNL     1      -4.556  10.524  -4.334  0.00  0.00    +0.025 A 
ATOM     24  C   UNL     1      -5.328  10.960  -5.393  0.00  0.00    +0.034 A 
ATOM     25  C   UNL     1      -5.007  10.584  -6.685  0.00  0.00    +0.126 A 
ATOM     26  C   UNL     1      -3.909   9.777  -6.921  0.00  0.00    +0.034 A 
ATOM     27  C   UNL     1      -3.130   9.342  -5.866  0.00  0.00    +0.025 A 
BRANCH  25  28
ATOM     28  N   UNL     1      -5.839  11.048  -7.817  0.00  0.00    +0.056 N 
ATOM     29  O   UNL     1      -5.558  10.719  -8.955  0.00  0.00    -0.126 OA
ATOM     30  O   UNL     1      -6.806  11.759  -7.611  0.00  0.00    -0.126 OA
ENDBRANCH  25  28
ENDBRANCH  19  22
ENDBRANCH   1  16
BRANCH   1  31
ATOM     31  C   UNL     1      -1.942   7.898   1.355  0.00  0.00    +0.173 A 
ATOM     32  N   UNL     1      -3.209   7.841   1.688  0.00  0.00    -0.111 NA
ATOM     33  N   UNL     1      -3.331   8.336   2.872  0.00  0.00    -0.023 NA
ATOM     34  N   UNL     1      -2.175   8.706   3.302  0.00  0.00    -0.044 NA
ATOM     35  N   UNL     1      -1.292   8.447   2.397  0.00  0.00    -0.224 N 
BRANCH  35  36
ATOM     36  C   UNL     1       0.147   8.707   2.487  0.00  0.00    +0.111 C 
ATOM     37  C   UNL     1       0.741   7.974   3.707  0.00  0.00    +0.027 C 
ATOM     38  C   UNL     1       1.808   8.955   4.256  0.00  0.00    +0.002 C 
ATOM     39  C   UNL     1       1.137  10.337   4.057  0.00  0.00    +0.002 C 
ATOM     40  C   UNL     1       0.399  10.209   2.708  0.00  0.00    +0.027 C 
ENDBRANCH  35  36
ENDBRANCH   1  31
TORSDOF 6
