REMARK  Name = ZINC43406956
REMARK  4 active torsions:
REMARK  status: ('A' for Active; 'I' for Inactive)
REMARK    1  A    between atoms: C_1  and  C_2
REMARK    2  A    between atoms: C_8  and  O_10
REMARK    3  A    between atoms: O_10  and  C_11
REMARK    4  A    between atoms: C_12  and  C_20
REMARK                            x       y       z     vdW  Elec       q    Type
REMARK                         _______ _______ _______ _____ _____    ______ ____
ROOT
ATOM      1  C   UNL     1       0.853   0.284   3.481  0.00  0.00    +0.226 A 
ATOM      2  C   UNL     1       0.239   0.608   4.700  0.00  0.00    +0.074 A 
ATOM      3  C   UNL     1       1.033   0.695   5.848  0.00  0.00    +0.022 A 
ATOM      4  C   UNL     1       2.393   0.457   5.731  0.00  0.00    -0.025 A 
ATOM      5  C   UNL     1       2.929   0.143   4.495  0.00  0.00    +0.048 A 
ATOM      6  N   UNL     1       2.153   0.062   3.426  0.00  0.00    -0.217 NA
ATOM      7  C   UNL     1       4.423  -0.070   4.630  0.00  0.00    +0.056 C 
ATOM      8  C   UNL     1       4.804   0.574   5.980  0.00  0.00    +0.011 C 
ATOM      9  C   UNL     1       3.486   0.478   6.777  0.00  0.00    +0.037 C 
ENDROOT
BRANCH   2  10
ATOM     10  C   UNL     1      -1.216   0.852   4.770  0.00  0.00    +0.099 C 
ATOM     11  N   UNL     1      -2.069  -0.076   4.339  0.00  0.00    -0.387 N 
ATOM     12  N   UNL     1      -1.675   2.001   5.264  0.00  0.00    -0.344 N 
ATOM     13  H   UNL     1      -1.739  -0.942   4.050  0.00  0.00    +0.157 HD
ATOM     14  H   UNL     1      -1.055   2.677   5.578  0.00  0.00    +0.144 HD
ATOM     15  H   UNL     1      -2.631   2.162   5.310  0.00  0.00    +0.144 HD
ATOM     16  H   UNL     1      -3.020   0.113   4.315  0.00  0.00    +0.157 HD
ENDBRANCH   2  10
BRANCH   1  17
ATOM     17  O   UNL     1       0.106   0.194   2.355  0.00  0.00    -0.472 OA
BRANCH  17  24
ATOM     18  C   UNL     1       0.054   2.013   0.124  0.00  0.00    +0.011 C 
ATOM     19  C   UNL     1       0.071   0.492  -0.043  0.00  0.00    +0.027 C 
ATOM     20  C   UNL     1       0.804   0.129  -1.336  0.00  0.00    +0.007 C 
ATOM     21  C   UNL     1       0.821  -1.392  -1.503  0.00  0.00    +0.000 C 
ATOM     22  C   UNL     1       1.541  -2.028  -0.312  0.00  0.00    +0.004 C 
ATOM     23  C   UNL     1       0.807  -1.665   0.980  0.00  0.00    +0.045 C 
ATOM     24  C   UNL     1       0.791  -0.145   1.148  0.00  0.00    +0.178 C 
ENDBRANCH  17  24
ENDBRANCH   1  17
TORSDOF 3
