REMARK  Name = ZINC24831406
REMARK  3 active torsions:
REMARK  status: ('A' for Active; 'I' for Inactive)
REMARK    1  A    between atoms: N_13  and  C_17
REMARK    2  A    between atoms: C_17  and  C_18
REMARK    3  A    between atoms: C_23  and  C_26
REMARK                            x       y       z     vdW  Elec       q    Type
REMARK                         _______ _______ _______ _____ _____    ______ ____
ROOT
ATOM      1  C   UNL     1       7.968   0.264   0.877  0.00  0.00    +0.237 C 
ATOM      2  O   UNL     1       7.794  -0.931   0.766  0.00  0.00    -0.274 OA
ATOM      3  N   UNL     1       9.146   0.734   1.332  0.00  0.00    -0.263 N 
ATOM      4  C   UNL     1      10.162  -0.151   1.673  0.00  0.00    +0.165 A 
ATOM      5  N   UNL     1      11.364   0.122   2.135  0.00  0.00    -0.229 NA
ATOM      6  C   UNL     1      12.223  -0.841   2.414  0.00  0.00    +0.057 A 
ATOM      7  C   UNL     1      11.810  -2.115   2.203  0.00  0.00    +0.072 A 
ATOM      8  S   UNL     1      10.152  -1.833   1.603  0.00  0.00    -0.060 S 
ATOM      9  H   UNL     1       9.285   1.690   1.422  0.00  0.00    +0.157 HD
ENDROOT
BRANCH   6  10
ATOM     10  C   UNL     1      13.601  -0.537   2.942  0.00  0.00    +0.014 C 
ATOM     11  C   UNL     1      14.631  -1.390   2.200  0.00  0.00    +0.016 C 
ATOM     12  C   UNL     1      16.030  -1.082   2.736  0.00  0.00    -0.010 C 
ATOM     13  C   UNL     1      16.344   0.400   2.520  0.00  0.00    +0.007 C 
ATOM     14  C   UNL     1      15.314   1.253   3.263  0.00  0.00    -0.010 C 
ATOM     15  C   UNL     1      13.915   0.945   2.726  0.00  0.00    +0.016 C 
ATOM     16  C   UNL     1      15.369   0.933   4.758  0.00  0.00    +0.007 C 
ATOM     17  C   UNL     1      15.055  -0.549   4.974  0.00  0.00    -0.010 C 
ATOM     18  C   UNL     1      16.085  -1.402   4.231  0.00  0.00    +0.007 C 
ATOM     19  C   UNL     1      13.656  -0.857   4.437  0.00  0.00    +0.016 C 
ENDBRANCH   6  10
BRANCH   1  20
ATOM     20  C   UNL     1       6.866   1.223   0.508  0.00  0.00    +0.214 C 
BRANCH  20  33
ATOM     21  C   UNL     1      -0.017   1.375   0.010  0.00  0.00    +0.000 A 
ATOM     22  C   UNL     1       1.174   2.078   0.002  0.00  0.00    +0.000 A 
ATOM     23  C   UNL     1       2.373   1.395  -0.017  0.00  0.00    +0.006 A 
ATOM     24  C   UNL     1       2.394   0.006  -0.026  0.00  0.00    -0.012 A 
ATOM     25  C   UNL     1       1.207  -0.694  -0.013  0.00  0.00    -0.042 A 
ATOM     26  C   UNL     1       0.002  -0.004   0.002  0.00  0.00    +0.004 A 
ATOM     27  C   UNL     1       1.158  -2.199  -0.005  0.00  0.00    +0.035 C 
ATOM     28  C   UNL     1       2.489  -2.786  -0.470  0.00  0.00    +0.008 C 
ATOM     29  C   UNL     1       3.616  -2.144   0.349  0.00  0.00    +0.040 C 
ATOM     30  C   UNL     1       3.731  -0.679  -0.055  0.00  0.00    +0.138 C 
ATOM     31  C   UNL     1       4.706   0.039   0.851  0.00  0.00    +0.251 C 
ATOM     32  O   UNL     1       4.615   0.195   2.050  0.00  0.00    -0.272 OA
ATOM     33  N   UNL     1       5.698   0.470   0.045  0.00  0.00    -0.215 N 
ATOM     34  C   UNL     1       5.482   0.125  -1.230  0.00  0.00    +0.310 C 
ATOM     35  O   UNL     1       6.236   0.402  -2.142  0.00  0.00    -0.252 OA
ATOM     36  N   UNL     1       4.335  -0.562  -1.389  0.00  0.00    -0.281 N 
ATOM     37  H   UNL     1       3.978  -0.911  -2.221  0.00  0.00    +0.152 HD
ENDBRANCH  20  33
ENDBRANCH   1  20
TORSDOF 3
