REMARK  Name = ZINC51607448
REMARK  6 active torsions:
REMARK  status: ('A' for Active; 'I' for Inactive)
REMARK    1  A    between atoms: C_1  and  C_2
REMARK    2  A    between atoms: C_4  and  C_17
REMARK    3  A    between atoms: C_7  and  S_8
REMARK    4  A    between atoms: S_8  and  C_9
REMARK    5  A    between atoms: C_11  and  C_16
REMARK    6  A    between atoms: C_13  and  C_15
REMARK                            x       y       z     vdW  Elec       q    Type
REMARK                         _______ _______ _______ _____ _____    ______ ____
ROOT
ATOM      1  C   UNL     1      -0.007   1.940   0.272  0.00  0.00    +0.045 C 
ATOM      2  C   UNL     1      -0.050   0.456   0.013  0.00  0.00    -0.036 A 
ATOM      3  C   UNL     1      -0.095  -0.015  -1.280  0.00  0.00    +0.015 A 
ATOM      4  C   UNL     1      -0.135  -1.391  -1.520  0.00  0.00    +0.012 A 
ATOM      5  C   UNL     1      -0.130  -2.285  -0.446  0.00  0.00    +0.012 A 
ATOM      6  C   UNL     1      -0.085  -1.808   0.844  0.00  0.00    +0.016 A 
ATOM      7  C   UNL     1      -0.039  -0.437   1.080  0.00  0.00    +0.019 A 
ENDROOT
BRANCH   4   8
ATOM      8  C   UNL     1      -0.184  -1.899  -2.905  0.00  0.00    +0.094 C 
ATOM      9  N   UNL     1      -0.222  -3.212  -3.133  0.00  0.00    -0.387 N 
ATOM     10  N   UNL     1      -0.189  -1.045  -3.929  0.00  0.00    -0.345 N 
ATOM     11  H   UNL     1      -0.218  -3.833  -2.388  0.00  0.00    +0.157 HD
ATOM     12  H   UNL     1      -0.162  -0.090  -3.763  0.00  0.00    +0.144 HD
ATOM     13  H   UNL     1      -0.221  -1.379  -4.839  0.00  0.00    +0.144 HD
ATOM     14  H   UNL     1      -0.254  -3.546  -4.043  0.00  0.00    +0.157 HD
ENDBRANCH   4   8
BRANCH   7  15
ATOM     15  S   UNL     1       0.026   0.169   2.733  0.00  0.00    -0.050 S 
BRANCH  15  16
ATOM     16  C   UNL     1       1.706   0.655   2.944  0.00  0.00    +0.193 A 
ATOM     17  N   UNL     1       2.576   0.413   1.973  0.00  0.00    -0.227 NA
ATOM     18  C   UNL     1       3.845   0.765   2.099  0.00  0.00    +0.043 A 
ATOM     19  C   UNL     1       4.260   1.393   3.263  0.00  0.00    +0.046 A 
ATOM     20  C   UNL     1       3.324   1.631   4.258  0.00  0.00    +0.043 A 
ATOM     21  N   UNL     1       2.070   1.258   4.067  0.00  0.00    -0.227 NA
ATOM     22  C   UNL     1       3.730   2.310   5.541  0.00  0.00    +0.066 C 
ATOM     23  C   UNL     1       4.827   0.486   0.991  0.00  0.00    +0.066 C 
ENDBRANCH  15  16
ENDBRANCH   7  15
TORSDOF 3
