REMARK  Name = ZINC36557204
REMARK  10 active torsions:
REMARK  status: ('A' for Active; 'I' for Inactive)
REMARK    1  A    between atoms: C_1  and  C_2
REMARK    2  A    between atoms: C_5  and  C_7
REMARK    3  A    between atoms: C_7  and  N_8
REMARK    4  A    between atoms: N_8  and  C_9
REMARK    5  A    between atoms: C_9  and  C_11
REMARK    6  A    between atoms: C_9  and  C_20
REMARK    7  A    between atoms: N_22  and  C_23
REMARK    8  A    between atoms: C_29  and  C_31
REMARK    9  A    between atoms: C_31  and  C_32
REMARK   10  A    between atoms: C_32  and  C_33
REMARK                            x       y       z     vdW  Elec       q    Type
REMARK                         _______ _______ _______ _____ _____    ______ ____
ROOT
ATOM      1  C   UNL     1       3.042  -3.212  -2.166  0.00  0.00    +0.193 C 
ENDROOT
BRANCH   1   2
ATOM      2  C   UNL     1       3.891  -4.384  -2.587  0.00  0.00    -0.015 A 
ATOM      3  C   UNL     1       4.187  -5.383  -1.679  0.00  0.00    +0.010 A 
ATOM      4  C   UNL     1       4.965  -6.459  -2.061  0.00  0.00    +0.050 A 
ATOM      5  C   UNL     1       5.450  -6.540  -3.356  0.00  0.00    +0.166 A 
ATOM      6  C   UNL     1       5.152  -5.534  -4.271  0.00  0.00    +0.167 A 
ATOM      7  C   UNL     1       4.366  -4.460  -3.883  0.00  0.00    +0.055 A 
ATOM      8  O   UNL     1       5.739  -5.840  -5.465  0.00  0.00    -0.453 OA
ATOM      9  C   UNL     1       6.736  -6.833  -5.158  0.00  0.00    +0.466 C 
ATOM     10  O   UNL     1       6.225  -7.477  -3.976  0.00  0.00    -0.453 OA
ENDBRANCH   1   2
BRANCH   1  11
ATOM     11  C   UNL     1       3.855  -2.290  -1.295  0.00  0.00    +0.238 C 
ATOM     12  O   UNL     1       3.549  -2.127  -0.133  0.00  0.00    -0.273 OA
ATOM     13  N   UNL     1       4.922  -1.646  -1.807  0.00  0.00    -0.311 N 
ATOM     14  H   UNL     1       5.167  -1.776  -2.737  0.00  0.00    +0.149 HD
BRANCH  13  15
ATOM     15  C   UNL     1       5.713  -0.749  -0.960  0.00  0.00    +0.073 C 
ATOM     16  C   UNL     1       5.068   0.638  -0.945  0.00  0.00    +0.022 C 
ATOM     17  C   UNL     1       5.894   1.574  -0.060  0.00  0.00    +0.002 C 
ATOM     18  C   UNL     1       7.316   1.679  -0.616  0.00  0.00    +0.000 C 
ATOM     19  C   UNL     1       7.960   0.291  -0.631  0.00  0.00    +0.002 C 
ATOM     20  C   UNL     1       7.135  -0.645  -1.516  0.00  0.00    +0.022 C 
ENDBRANCH  13  15
ENDBRANCH   1  11
BRANCH   1  21
ATOM     21  N   UNL     1       1.880  -3.696  -1.415  0.00  0.00    -0.279 N 
ATOM     22  C   UNL     1       0.828  -4.226  -2.069  0.00  0.00    +0.217 C 
ATOM     23  O   UNL     1       0.842  -4.303  -3.279  0.00  0.00    -0.276 OA
BRANCH  21  24
ATOM     24  C   UNL     1       1.863  -3.603   0.047  0.00  0.00    +0.183 C 
BRANCH  24  29
ATOM     25  C   UNL     1       1.219   1.156   1.590  0.00  0.00    +0.086 C 
ATOM     26  C   UNL     1       0.916  -0.247   1.132  0.00  0.00    +0.102 A 
ATOM     27  C   UNL     1      -0.311  -0.769   0.955  0.00  0.00    +0.045 A 
ATOM     28  C   UNL     1      -0.131  -2.103   0.522  0.00  0.00    +0.046 A 
ATOM     29  C   UNL     1       1.196  -2.316   0.461  0.00  0.00    +0.122 A 
ATOM     30  O   UNL     1       1.825  -1.187   0.825  0.00  0.00    -0.463 OA
ENDBRANCH  24  29
ENDBRANCH  21  24
BRANCH  22  31
ATOM     31  C   UNL     1      -0.366  -4.723  -1.296  0.00  0.00    +0.096 C 
BRANCH  31  32
ATOM     32  C   UNL     1      -1.411  -5.272  -2.270  0.00  0.00    +0.013 C 
BRANCH  32  33
ATOM     33  C   UNL     1      -2.624  -5.777  -1.486  0.00  0.00    -0.011 C 
ATOM     34  C   UNL     1      -2.211  -6.969  -0.621  0.00  0.00    +0.003 C 
ATOM     35  C   UNL     1      -3.424  -7.474   0.164  0.00  0.00    +0.000 C 
ATOM     36  C   UNL     1      -4.519  -7.908  -0.813  0.00  0.00    +0.000 C 
ATOM     37  C   UNL     1      -4.931  -6.715  -1.678  0.00  0.00    +0.000 C 
ATOM     38  C   UNL     1      -3.719  -6.210  -2.463  0.00  0.00    +0.003 C 
ENDBRANCH  32  33
ENDBRANCH  31  32
ENDBRANCH  22  31
ENDBRANCH   1  21
TORSDOF 9
