REMARK  Name = ZINC17794237
REMARK  11 active torsions:
REMARK  status: ('A' for Active; 'I' for Inactive)
REMARK    1  A    between atoms: C_1  and  C_2
REMARK    2  A    between atoms: C_5  and  N_32
REMARK    3  A    between atoms: C_7  and  S_8
REMARK    4  A    between atoms: S_8  and  N_11
REMARK    5  A    between atoms: C_14  and  C_17
REMARK    6  A    between atoms: N_19  and  C_20
REMARK    7  A    between atoms: C_20  and  C_21
REMARK    8  A    between atoms: C_21  and  C_23
REMARK    9  A    between atoms: C_21  and  N_63
REMARK   10  A    between atoms: C_30  and  N_63
REMARK   11  A    between atoms: C_31  and  N_63
REMARK                            x       y       z     vdW  Elec       q    Type
REMARK                         _______ _______ _______ _____ _____    ______ ____
ROOT
ATOM      1  N   UNL     1       7.172   1.949   3.350  0.00  0.00    -0.177 NA
ATOM      2  C   UNL     1       6.117   2.407   4.263  0.00  0.00    +0.110 C 
ATOM      3  C   UNL     1       4.877   1.529   4.065  0.00  0.00    +0.030 C 
ATOM      4  C   UNL     1       4.479   1.542   2.587  0.00  0.00    +0.077 C 
ATOM      5  C   UNL     1       5.619   0.966   1.745  0.00  0.00    +0.030 C 
ATOM      6  C   UNL     1       6.867   1.837   1.917  0.00  0.00    +0.110 C 
ENDROOT
BRANCH   4   7
ATOM      7  C   UNL     1       3.240   0.706   2.394  0.00  0.00    +0.216 C 
ATOM      8  O   UNL     1       2.726   0.155   3.344  0.00  0.00    -0.276 OA
ATOM      9  N   UNL     1       2.702   0.572   1.165  0.00  0.00    -0.316 N 
ATOM     10  H   UNL     1       3.113   1.013   0.406  0.00  0.00    +0.149 HD
BRANCH   9  11
ATOM     11  C   UNL     1       1.498  -0.240   0.978  0.00  0.00    +0.093 C 
BRANCH  11  12
ATOM     12  C   UNL     1       1.033  -0.135  -0.476  0.00  0.00    -0.021 C 
BRANCH  12  13
ATOM     13  C   UNL     1       2.086  -0.716  -1.384  0.00  0.00    -0.057 A 
ATOM     14  C   UNL     1       2.961   0.120  -2.052  0.00  0.00    +0.002 A 
ATOM     15  C   UNL     1       3.928  -0.411  -2.884  0.00  0.00    +0.003 A 
ATOM     16  C   UNL     1       4.021  -1.780  -3.051  0.00  0.00    +0.038 A 
ATOM     17  C   UNL     1       3.145  -2.619  -2.383  0.00  0.00    +0.124 A 
ATOM     18  C   UNL     1       2.180  -2.085  -1.544  0.00  0.00    +0.040 A 
ATOM     19  F   UNL     1       3.235  -3.957  -2.544  0.00  0.00    -0.205 F 
ENDBRANCH  12  13
BRANCH  12  22
ATOM     20  C   UNL     1      -1.256  -0.382   0.275  0.00  0.00    -0.096 C 
ATOM     21  C   UNL     1      -0.686  -0.821  -2.037  0.00  0.00    -0.096 C 
ATOM     22  N   UNL     1      -0.218  -0.906  -0.638  0.00  0.00    +0.382 N 
ATOM     23  H   UNL     1      -0.035  -1.889  -0.406  0.00  0.00    -0.082 HD
ENDBRANCH  12  22
ENDBRANCH  11  12
ENDBRANCH   9  11
ENDBRANCH   4   7
BRANCH   1  24
ATOM     24  S   UNL     1       8.677   1.565   3.924  0.00  0.00    +0.061 S 
ATOM     25  O   UNL     1       9.597   1.863   2.883  0.00  0.00    -0.153 OA
ATOM     26  O   UNL     1       8.778   2.144   5.218  0.00  0.00    -0.153 OA
BRANCH  24  33
ATOM     27  C   UNL     1       7.110   0.087   6.047  0.00  0.00    +0.046 C 
ATOM     28  C   UNL     1       7.967  -0.768   5.149  0.00  0.00    -0.024 A 
ATOM     29  C   UNL     1       7.996  -2.140   5.322  0.00  0.00    +0.007 A 
ATOM     30  C   UNL     1       8.787  -2.923   4.503  0.00  0.00    +0.033 A 
ATOM     31  C   UNL     1       9.543  -2.336   3.506  0.00  0.00    +0.128 A 
ATOM     32  C   UNL     1       9.510  -0.965   3.329  0.00  0.00    +0.061 A 
ATOM     33  C   UNL     1       8.720  -0.182   4.149  0.00  0.00    +0.111 A 
BRANCH  31  34
ATOM     34  N   UNL     1      10.390  -3.175   2.628  0.00  0.00    +0.056 N 
ATOM     35  O   UNL     1      11.057  -2.657   1.750  0.00  0.00    -0.126 OA
ATOM     36  O   UNL     1      10.419  -4.382   2.783  0.00  0.00    -0.126 OA
ENDBRANCH  31  34
ENDBRANCH  24  33
ENDBRANCH   1  24
TORSDOF 8
