REMARK  Name = ZINC65298617
REMARK  7 active torsions:
REMARK  status: ('A' for Active; 'I' for Inactive)
REMARK    1  A    between atoms: C_1  and  C_2
REMARK    2  A    between atoms: C_2  and  C_3
REMARK    3  A    between atoms: C_2  and  C_4
REMARK    4  A    between atoms: C_7  and  C_10
REMARK    5  A    between atoms: C_13  and  C_25
REMARK    6  A    between atoms: C_22  and  C_24
REMARK    7  A    between atoms: C_30  and  O_31
REMARK                            x       y       z     vdW  Elec       q    Type
REMARK                         _______ _______ _______ _____ _____    ______ ____
ROOT
ATOM      1  C   UNL     1      -5.401  -1.980   0.008  0.00  0.00    -0.032 C 
ATOM      2  C   UNL     1      -5.406  -3.431   0.499  0.00  0.00    +0.044 C 
ATOM      3  C   UNL     1      -6.756  -4.040   0.237  0.00  0.00    +0.044 C 
ATOM      4  N   UNL     1      -7.616  -3.510  -0.551  0.00  0.00    -0.300 NA
ATOM      5  C   UNL     1      -7.400  -2.262  -1.276  0.00  0.00    +0.032 C 
ATOM      6  N   UNL     1      -5.967  -1.950  -1.350  0.00  0.00    +0.400 N 
ATOM      7  C   UNL     1      -8.126  -1.121  -0.556  0.00  0.00    +0.029 C 
ATOM      8  C   UNL     1      -9.618  -1.453  -0.458  0.00  0.00    +0.108 C 
ATOM      9  N   UNL     1     -10.130  -1.732  -1.806  0.00  0.00    -0.302 N 
ATOM     10  C   UNL     1      -9.448  -2.744  -2.625  0.00  0.00    +0.108 C 
ATOM     11  C   UNL     1      -7.958  -2.397  -2.697  0.00  0.00    +0.029 C 
ATOM     12  C   UNL     1     -11.205  -1.073  -2.283  0.00  0.00    +0.212 C 
ATOM     13  O   UNL     1     -11.559  -1.241  -3.431  0.00  0.00    -0.276 OA
ATOM     14  C   UNL     1     -11.967  -0.129  -1.390  0.00  0.00    +0.109 C 
ATOM     15  H   UNL     1      -5.841  -1.031  -1.748  0.00  0.00    -0.081 HD
ATOM     16  H   UNL     1      -5.502  -2.636  -1.925  0.00  0.00    -0.081 HD
ENDROOT
BRANCH   1  20
ATOM     17  C   UNL     1      -1.395  -0.498  -0.066  0.00  0.00    -0.045 A 
ATOM     18  C   UNL     1      -2.235  -0.168   0.981  0.00  0.00    +0.004 A 
ATOM     19  C   UNL     1      -3.531  -0.647   1.005  0.00  0.00    +0.002 A 
ATOM     20  C   UNL     1      -3.988  -1.456  -0.018  0.00  0.00    -0.061 A 
ATOM     21  C   UNL     1      -3.149  -1.786  -1.066  0.00  0.00    +0.002 A 
ATOM     22  C   UNL     1      -1.854  -1.303  -1.092  0.00  0.00    +0.004 A 
BRANCH  17  24
ATOM     23  C   UNL     1      -0.004   1.554  -0.097  0.00  0.00    +0.012 C 
ATOM     24  C   UNL     1       0.018   0.024  -0.092  0.00  0.00    +0.013 C 
ATOM     25  C   UNL     1       0.768  -0.471   1.147  0.00  0.00    +0.012 C 
ENDBRANCH  17  24
ENDBRANCH   1  20
BRANCH   3  26
ATOM     26  C   UNL     1      -7.105  -5.300   0.916  0.00  0.00    +0.037 A 
ATOM     27  C   UNL     1      -6.194  -5.904   1.787  0.00  0.00    +0.013 A 
ATOM     28  C   UNL     1      -6.527  -7.083   2.420  0.00  0.00    +0.001 A 
ATOM     29  C   UNL     1      -7.760  -7.672   2.195  0.00  0.00    +0.004 A 
ATOM     30  C   UNL     1      -8.669  -7.086   1.337  0.00  0.00    +0.046 A 
ATOM     31  C   UNL     1      -8.354  -5.897   0.697  0.00  0.00    +0.126 A 
BRANCH  31  32
ATOM     32  O   UNL     1      -9.248  -5.317  -0.142  0.00  0.00    -0.506 OA
ATOM     33  H   UNL     1      -9.170  -5.606  -1.062  0.00  0.00    +0.292 HD
ENDBRANCH  31  32
ENDBRANCH   3  26
TORSDOF 4
