REMARK  Name = ZINC09051498
REMARK  16 active torsions:
REMARK  status: ('A' for Active; 'I' for Inactive)
REMARK    1  A    between atoms: C_1  and  C_2
REMARK    2  A    between atoms: C_2  and  C_3
REMARK    3  A    between atoms: C_3  and  C_5
REMARK    4  A    between atoms: C_3  and  N_65
REMARK    5  A    between atoms: C_8  and  S_17
REMARK    6  A    between atoms: N_9  and  C_10
REMARK    7  A    between atoms: C_10  and  C_11
REMARK    8  A    between atoms: S_17  and  C_18
REMARK    9  A    between atoms: C_18  and  C_20
REMARK   10  A    between atoms: C_18  and  C_21
REMARK   11  A    between atoms: C_21  and  C_23
REMARK   12  A    between atoms: C_24  and  N_33
REMARK   13  A    between atoms: N_25  and  C_32
REMARK   14  A    between atoms: N_28  and  C_31
REMARK   15  A    between atoms: C_34  and  N_65
REMARK   16  A    between atoms: C_35  and  N_65
REMARK                            x       y       z     vdW  Elec       q    Type
REMARK                         _______ _______ _______ _____ _____    ______ ____
ROOT
ATOM      1  C   UNL     1      -5.327  -0.670  -1.722  0.00  0.00    +0.121 A 
ATOM      2  N   UNL     1      -4.450  -0.989  -0.813  0.00  0.00    -0.135 NA
ATOM      3  N   UNL     1      -3.467  -0.161  -0.838  0.00  0.00    -0.123 NA
ATOM      4  C   UNL     1      -3.667   0.740  -1.772  0.00  0.00    +0.193 A 
ATOM      5  N   UNL     1      -4.863   0.446  -2.362  0.00  0.00    -0.303 N 
ENDROOT
BRANCH   1   6
ATOM      6  C   UNL     1      -6.617  -1.394  -2.011  0.00  0.00    +0.000 C 
BRANCH   6   9
ATOM      7  C   UNL     1      -6.635  -2.073   0.313  0.00  0.00    -0.096 C 
ATOM      8  C   UNL     1      -7.940  -0.162  -0.400  0.00  0.00    -0.096 C 
ATOM      9  N   UNL     1      -7.438  -1.498  -0.786  0.00  0.00    +0.383 N 
ATOM     10  H   UNL     1      -8.238  -2.113  -0.973  0.00  0.00    -0.082 HD
ENDBRANCH   6   9
BRANCH   6  12
ATOM     11  C   UNL     1      -7.614  -3.507  -2.894  0.00  0.00    +0.002 C 
ATOM     12  C   UNL     1      -6.309  -2.804  -2.519  0.00  0.00    -0.011 C 
ENDBRANCH   6  12
ENDBRANCH   1   6
BRANCH   5  13
ATOM     13  C   UNL     1      -5.513   1.173  -3.455  0.00  0.00    +0.160 C 
BRANCH  13  14
ATOM     14  C   UNL     1      -5.067   0.598  -4.775  0.00  0.00    -0.028 A 
ATOM     15  C   UNL     1      -3.953   1.112  -5.412  0.00  0.00    +0.005 A 
ATOM     16  C   UNL     1      -3.542   0.581  -6.620  0.00  0.00    +0.000 A 
ATOM     17  C   UNL     1      -4.251  -0.456  -7.197  0.00  0.00    +0.000 A 
ATOM     18  C   UNL     1      -5.369  -0.966  -6.563  0.00  0.00    +0.000 A 
ATOM     19  C   UNL     1      -5.777  -0.439  -5.352  0.00  0.00    +0.005 A 
ENDBRANCH  13  14
ENDBRANCH   5  13
BRANCH   4  20
ATOM     20  S   UNL     1      -2.598   2.079  -2.183  0.00  0.00    -0.075 S 
BRANCH  20  21
ATOM     21  C   UNL     1      -1.269   1.798  -0.986  0.00  0.00    +0.122 C 
ATOM     22  C   UNL     1      -1.811   1.992   0.432  0.00  0.00    +0.028 C 
BRANCH  21  23
ATOM     23  C   UNL     1      -0.153   2.779  -1.235  0.00  0.00    +0.185 C 
ATOM     24  O   UNL     1      -0.386   3.839  -1.781  0.00  0.00    -0.291 OA
BRANCH  23  25
ATOM     25  C   UNL     1       1.164   2.467  -0.835  0.00  0.00    +0.121 A 
ATOM     26  C   UNL     1       2.240   3.311  -1.159  0.00  0.00    +0.116 A 
ATOM     27  N   UNL     1       3.496   2.969  -0.744  0.00  0.00    -0.284 N 
ATOM     28  C   UNL     1       3.718   1.843  -0.048  0.00  0.00    +0.333 A 
ATOM     29  O   UNL     1       4.854   1.581   0.294  0.00  0.00    -0.246 OA
ATOM     30  N   UNL     1       2.731   0.996   0.286  0.00  0.00    -0.263 N 
ATOM     31  C   UNL     1       1.454   1.246  -0.072  0.00  0.00    +0.269 A 
ATOM     32  O   UNL     1       0.561   0.476   0.233  0.00  0.00    -0.267 OA
ATOM     33  C   UNL     1       3.044  -0.216   1.047  0.00  0.00    +0.157 C 
ATOM     34  C   UNL     1       4.623   3.845  -1.071  0.00  0.00    +0.155 C 
BRANCH  26  35
ATOM     35  N   UNL     1       2.034   4.453  -1.869  0.00  0.00    -0.344 N 
ATOM     36  H   UNL     1       1.130   4.748  -2.060  0.00  0.00    +0.144 HD
ATOM     37  H   UNL     1       2.791   4.971  -2.183  0.00  0.00    +0.144 HD
ENDBRANCH  26  35
ENDBRANCH  23  25
ENDBRANCH  21  23
ENDBRANCH  20  21
ENDBRANCH   4  20
TORSDOF 10
