REMARK  Name = ZINC10001580
REMARK  11 active torsions:
REMARK  status: ('A' for Active; 'I' for Inactive)
REMARK    1  A    between atoms: C_1  and  C_2
REMARK    2  A    between atoms: C_2  and  C_3
REMARK    3  A    between atoms: C_3  and  O_4
REMARK    4  A    between atoms: O_4  and  C_5
REMARK    5  A    between atoms: C_6  and  O_30
REMARK    6  A    between atoms: C_8  and  C_12
REMARK    7  A    between atoms: N_13  and  N_14
REMARK    8  A    between atoms: C_15  and  C_17
REMARK    9  A    between atoms: C_17  and  N_18
REMARK   10  A    between atoms: C_19  and  C_21
REMARK   11  A    between atoms: O_30  and  C_31
REMARK                            x       y       z     vdW  Elec       q    Type
REMARK                         _______ _______ _______ _____ _____    ______ ____
ROOT
ATOM      1  N   UNL     1       8.214  -3.671   4.473  0.00  0.00    -0.206 N 
ATOM      2  C   UNL     1       7.043  -3.338   3.894  0.00  0.00    +0.249 C 
ATOM      3  O   UNL     1       6.159  -4.163   3.793  0.00  0.00    -0.272 OA
ATOM      4  H   UNL     1       8.920  -3.012   4.554  0.00  0.00    +0.177 HD
ENDROOT
BRANCH   1   6
ATOM      5  C   UNL     1       9.538  -5.292   5.515  0.00  0.00    +0.138 C 
ATOM      6  N   UNL     1       8.410  -4.971   4.958  0.00  0.00    -0.188 NA
BRANCH   5  10
ATOM      7  C   UNL     1      10.130  -9.236   6.983  0.00  0.00    +0.176 A 
ATOM      8  C   UNL     1      11.147  -8.291   7.101  0.00  0.00    +0.163 A 
ATOM      9  C   UNL     1      10.960  -7.009   6.620  0.00  0.00    +0.059 A 
ATOM     10  C   UNL     1       9.745  -6.660   6.025  0.00  0.00    -0.001 A 
ATOM     11  C   UNL     1       8.728  -7.612   5.909  0.00  0.00    +0.028 A 
ATOM     12  C   UNL     1       8.924  -8.891   6.387  0.00  0.00    +0.064 A 
ATOM     13 BR   UNL     1       7.548 -10.178   6.230  0.00  0.00    -0.046 Br
BRANCH   8  14
ATOM     14  O   UNL     1      12.326  -8.632   7.686  0.00  0.00    -0.491 OA
ATOM     15  C   UNL     1      13.325  -7.614   7.774  0.00  0.00    +0.277 C 
ENDBRANCH   8  14
BRANCH   7  16
ATOM     16  O   UNL     1      10.318 -10.498   7.452  0.00  0.00    -0.487 OA
BRANCH  16  17
ATOM     17  C   UNL     1      10.867 -11.453   6.543  0.00  0.00    +0.229 C 
BRANCH  17  19
ATOM     18  C   UNL     1      11.593 -13.828   6.271  0.00  0.00    +0.007 C 
ATOM     19  C   UNL     1      11.005 -12.805   7.245  0.00  0.00    +0.038 C 
ENDBRANCH  17  19
ENDBRANCH  16  17
ENDBRANCH   7  16
ENDBRANCH   5  10
ENDBRANCH   1   6
BRANCH   2  20
ATOM     20  C   UNL     1       6.831  -1.940   3.373  0.00  0.00    +0.202 C 
BRANCH  20  21
ATOM     21  N   UNL     1       5.489  -1.832   2.796  0.00  0.00    -0.303 N 
ATOM     22  C   UNL     1       5.076  -0.664   2.264  0.00  0.00    +0.245 C 
ATOM     23  O   UNL     1       5.818   0.300   2.264  0.00  0.00    -0.270 OA
ATOM     24  H   UNL     1       4.898  -2.601   2.795  0.00  0.00    +0.150 HD
BRANCH  22  25
ATOM     25  C   UNL     1       3.724  -0.555   1.682  0.00  0.00    +0.040 A 
ATOM     26  C   UNL     1       2.871  -1.662   1.681  0.00  0.00    +0.017 A 
ATOM     27  C   UNL     1       1.609  -1.558   1.138  0.00  0.00    +0.050 A 
ATOM     28  C   UNL     1       1.181  -0.356   0.590  0.00  0.00    +0.166 A 
ATOM     29  C   UNL     1       2.028   0.752   0.588  0.00  0.00    +0.167 A 
ATOM     30  C   UNL     1       3.294   0.654   1.131  0.00  0.00    +0.062 A 
ATOM     31  O   UNL     1       1.376   1.797  -0.001  0.00  0.00    -0.453 OA
ATOM     32  C   UNL     1      -0.017   1.435   0.010  0.00  0.00    +0.466 C 
ATOM     33  O   UNL     1       0.002  -0.004   0.002  0.00  0.00    -0.453 OA
ENDBRANCH  22  25
ENDBRANCH  20  21
ENDBRANCH   2  20
TORSDOF 9
