REMARK  Name = ZINC45285656
REMARK  3 active torsions:
REMARK  status: ('A' for Active; 'I' for Inactive)
REMARK    1  A    between atoms: C_1  and  C_2
REMARK    2  A    between atoms: C_9  and  N_19
REMARK    3  A    between atoms: C_14  and  C_16
REMARK                            x       y       z     vdW  Elec       q    Type
REMARK                         _______ _______ _______ _____ _____    ______ ____
ROOT
ATOM      1  C   UNL     1      -0.018   1.503   0.010  0.00  0.00    +0.039 C 
ATOM      2  C   UNL     1       0.002  -0.004   0.002  0.00  0.00    -0.076 C 
ATOM      3  C   UNL     1       0.005  -0.609  -1.143  0.00  0.00    -0.024 C 
ATOM      4  C   UNL     1       0.019  -2.099  -1.311  0.00  0.00    +0.018 C 
ATOM      5  C   UNL     1      -1.379  -2.594  -1.683  0.00  0.00    +0.063 C 
ATOM      6  C   UNL     1      -2.324  -2.408  -0.521  0.00  0.00    +0.051 A 
ATOM      7  C   UNL     1      -1.872  -2.221   0.766  0.00  0.00    +0.000 A 
ATOM      8  C   UNL     1      -2.797  -2.058   1.800  0.00  0.00    +0.061 A 
ATOM      9  C   UNL     1      -4.163  -2.087   1.485  0.00  0.00    +0.150 A 
ATOM     10  C   UNL     1      -4.544  -2.279   0.150  0.00  0.00    +0.250 A 
ATOM     11  N   UNL     1      -3.624  -2.430  -0.786  0.00  0.00    -0.215 NA
ATOM     12  O   UNL     1      -5.895  -2.262   0.142  0.00  0.00    -0.421 OA
ATOM     13  C   UNL     1      -6.321  -2.070   1.401  0.00  0.00    +0.202 A 
ATOM     14  N   UNL     1      -5.308  -1.965   2.206  0.00  0.00    -0.209 NA
ATOM     15  C   UNL     1      -0.411  -2.178   1.123  0.00  0.00    +0.027 C 
ATOM     16  C   UNL     1       0.434  -2.780  -0.002  0.00  0.00    +0.016 C 
ATOM     17  C   UNL     1       0.024  -0.720   1.322  0.00  0.00    +0.038 C 
ENDROOT
BRANCH  13  18
ATOM     18  C   UNL     1      -7.767  -1.988   1.818  0.00  0.00    +0.075 C 
ATOM     19  C   UNL     1      -8.820  -1.932   0.710  0.00  0.00    +0.013 C 
ATOM     20  C   UNL     1      -8.652  -3.205   1.542  0.00  0.00    +0.013 C 
ENDBRANCH  13  18
BRANCH   8  21
ATOM     21  N   UNL     1      -2.374  -1.873   3.111  0.00  0.00    -0.356 N 
ATOM     22  H   UNL     1      -1.426  -1.855   3.317  0.00  0.00    +0.142 HD
ATOM     23  H   UNL     1      -3.026  -1.761   3.820  0.00  0.00    +0.142 HD
ENDBRANCH   8  21
TORSDOF 2
