REMARK  Name = ZINC09074498
REMARK  6 active torsions:
REMARK  status: ('A' for Active; 'I' for Inactive)
REMARK    1  A    between atoms: C_6  and  C_7
REMARK    2  A    between atoms: C_7  and  O_9
REMARK    3  A    between atoms: O_9  and  C_10
REMARK    4  A    between atoms: C_10  and  C_11
REMARK    5  A    between atoms: N_13  and  C_14
REMARK    6  A    between atoms: C_15  and  C_24
REMARK                            x       y       z     vdW  Elec       q    Type
REMARK                         _______ _______ _______ _____ _____    ______ ____
ROOT
ATOM      1  C   UNL     1       6.093  -0.691  -0.083  0.00  0.00    +0.328 C 
ENDROOT
BRANCH   1   2
ATOM      2  C   UNL     1       7.265   0.257  -0.091  0.00  0.00    +0.255 C 
ATOM      3  O   UNL     1       7.075   1.455  -0.079  0.00  0.00    -0.272 OA
ATOM      4  N   UNL     1       8.523  -0.226  -0.111  0.00  0.00    -0.276 N 
ATOM      5  H   UNL     1       8.674  -1.184  -0.121  0.00  0.00    +0.155 HD
BRANCH   4   6
ATOM      6  C   UNL     1       9.601   0.647  -0.118  0.00  0.00    +0.090 A 
ATOM      7  C   UNL     1      10.953   0.346  -0.133  0.00  0.00    +0.084 A 
ATOM      8  C   UNL     1      11.896   1.456  -0.144  0.00  0.00    -0.018 A 
ATOM      9  C   UNL     1      11.331   2.683  -0.122  0.00  0.00    -0.004 A 
ATOM     10  S   UNL     1       9.585   2.379  -0.103  0.00  0.00    -0.077 S 
ATOM     11  C   UNL     1      12.024   4.009  -0.103  0.00  0.00    +0.043 C 
ATOM     12  C   UNL     1      13.101   4.034  -1.195  0.00  0.00    +0.005 C 
ATOM     13  C   UNL     1      14.404   3.509  -0.599  0.00  0.00    +0.001 C 
ATOM     14  C   UNL     1      14.108   2.443   0.455  0.00  0.00    +0.005 C 
ATOM     15  C   UNL     1      13.405   1.249  -0.179  0.00  0.00    +0.037 C 
BRANCH   7  16
ATOM     16  C   UNL     1      11.408  -1.012  -0.140  0.00  0.00    +0.102 C 
ATOM     17  N   UNL     1      11.769  -2.089  -0.146  0.00  0.00    -0.191 NA
ENDBRANCH   7  16
ENDBRANCH   4   6
ENDBRANCH   1   2
BRANCH   1  18
ATOM     18  O   UNL     1       4.856   0.069  -0.061  0.00  0.00    -0.452 OA
BRANCH  18  19
ATOM     19  C   UNL     1       3.706  -0.635  -0.051  0.00  0.00    +0.340 C 
ATOM     20  O   UNL     1       3.737  -1.850  -0.062  0.00  0.00    -0.245 OA
BRANCH  19  26
ATOM     21  C   UNL     1       2.378   1.467  -0.018  0.00  0.00    +0.016 A 
ATOM     22  C   UNL     1       1.166   2.122   0.002  0.00  0.00    +0.017 A 
ATOM     23  C   UNL     1      -0.017   1.396   0.010  0.00  0.00    +0.030 A 
ATOM     24  C   UNL     1       0.002  -0.004   0.002  0.00  0.00    +0.048 A 
ATOM     25  C   UNL     1       1.221  -0.662  -0.019  0.00  0.00    +0.039 A 
ATOM     26  C   UNL     1       2.412   0.069  -0.029  0.00  0.00    +0.061 A 
ATOM     27  N   UNL     1      -1.175  -0.748   0.021  0.00  0.00    -0.284 N 
ATOM     28  C   UNL     1      -2.379  -0.325  -0.354  0.00  0.00    +0.227 C 
ATOM     29  O   UNL     1      -3.307  -1.104  -0.288  0.00  0.00    -0.275 OA
ATOM     30  C   UNL     1      -2.654   1.066  -0.857  0.00  0.00    +0.170 C 
ATOM     31  S   UNL     1      -1.572   2.232   0.022  0.00  0.00    -0.114 S 
ATOM     32  H   UNL     1      -1.111  -1.663   0.338  0.00  0.00    +0.155 HD
ENDBRANCH  19  26
ENDBRANCH  18  19
ENDBRANCH   1  18
TORSDOF 6
