REMARK  Name = ZINC13222758
REMARK  9 active torsions:
REMARK  status: ('A' for Active; 'I' for Inactive)
REMARK    1  A    between atoms: C_1  and  O_2
REMARK    2  A    between atoms: O_2  and  C_3
REMARK    3  A    between atoms: C_3  and  C_5
REMARK    4  A    between atoms: C_9  and  N_10
REMARK    5  A    between atoms: C_11  and  C_13
REMARK    6  A    between atoms: C_13  and  S_14
REMARK    7  A    between atoms: S_14  and  C_15
REMARK    8  A    between atoms: N_25  and  C_26
REMARK    9  A    between atoms: C_26  and  C_27
REMARK                            x       y       z     vdW  Elec       q    Type
REMARK                         _______ _______ _______ _____ _____    ______ ____
ROOT
ATOM      1  C   UNL     1      -3.801  -1.496   0.033  0.00  0.00    +0.173 C 
ENDROOT
BRANCH   1   3
ATOM      2  N   UNL     1      -6.248  -1.135   0.060  0.00  0.00    -0.279 N 
ATOM      3  C   UNL     1      -5.219  -2.005   0.045  0.00  0.00    +0.228 C 
ATOM      4  O   UNL     1      -5.434  -3.199   0.041  0.00  0.00    -0.275 OA
ATOM      5  H   UNL     1      -6.076  -0.180   0.063  0.00  0.00    +0.155 HD
BRANCH   2  10
ATOM      6  C   UNL     1      -8.729  -0.874   0.092  0.00  0.00    +0.091 A 
ATOM      7  C   UNL     1      -9.988  -1.620   0.095  0.00  0.00    -0.021 A 
ATOM      8  C   UNL     1      -9.859  -2.958   0.087  0.00  0.00    -0.004 A 
ATOM      9  S   UNL     1      -8.106  -3.244   0.068  0.00  0.00    -0.077 S 
ATOM     10  C   UNL     1      -7.552  -1.604   0.070  0.00  0.00    +0.086 A 
ATOM     11  C   UNL     1     -11.193  -3.654   0.094  0.00  0.00    +0.043 C 
ATOM     12  C   UNL     1     -12.202  -2.564  -0.329  0.00  0.00    +0.010 C 
ATOM     13  C   UNL     1     -11.478  -1.277   0.114  0.00  0.00    +0.037 C 
BRANCH   6  14
ATOM     14  C   UNL     1      -8.715   0.590   0.105  0.00  0.00    +0.342 C 
ATOM     15  O   UNL     1      -8.722   1.208  -0.942  0.00  0.00    -0.245 OA
BRANCH  14  17
ATOM     16  C   UNL     1      -8.680   2.704   1.218  0.00  0.00    +0.280 C 
ATOM     17  O   UNL     1      -8.693   1.253   1.280  0.00  0.00    -0.464 OA
ENDBRANCH  14  17
ENDBRANCH   6  14
ENDBRANCH   2  10
ENDBRANCH   1   3
BRANCH   1  18
ATOM     18  S   UNL     1      -2.656  -2.897   0.014  0.00  0.00    -0.078 S 
BRANCH  18  19
ATOM     19  C   UNL     1      -1.119  -2.036   0.003  0.00  0.00    +0.173 A 
ATOM     20  N   UNL     1      -1.136  -0.726   0.009  0.00  0.00    -0.223 NA
ATOM     21  C   UNL     1       0.002  -0.004   0.002  0.00  0.00    +0.079 A 
ATOM     22  C   UNL     1      -0.017   1.394   0.010  0.00  0.00    +0.028 A 
ATOM     23  C   UNL     1       1.161   2.086   0.002  0.00  0.00    +0.002 A 
ATOM     24  C   UNL     1       2.381   1.422  -0.013  0.00  0.00    +0.001 A 
ATOM     25  C   UNL     1       2.432   0.055  -0.021  0.00  0.00    +0.015 A 
ATOM     26  C   UNL     1       1.245  -0.677  -0.013  0.00  0.00    +0.065 A 
ATOM     27  C   UNL     1       1.239  -2.146  -0.021  0.00  0.00    +0.263 A 
ATOM     28  O   UNL     1       2.277  -2.782  -0.034  0.00  0.00    -0.267 OA
ATOM     29  N   UNL     1       0.036  -2.766  -0.012  0.00  0.00    -0.276 N 
BRANCH  29  30
ATOM     30  C   UNL     1      -0.028  -4.229  -0.019  0.00  0.00    +0.252 C 
BRANCH  30  31
ATOM     31  C   UNL     1      -0.037  -4.738   1.399  0.00  0.00    +0.375 C 
ATOM     32  O   UNL     1       0.007  -3.959   2.321  0.00  0.00    -0.244 OA
ATOM     33  O   UNL     1      -0.092  -6.058   1.639  0.00  0.00    -0.244 OA
ENDBRANCH  30  31
ENDBRANCH  29  30
ENDBRANCH  18  19
ENDBRANCH   1  18
TORSDOF 8
