REMARK  Name = ZINC08868243
REMARK  7 active torsions:
REMARK  status: ('A' for Active; 'I' for Inactive)
REMARK    1  A    between atoms: C_1  and  C_2
REMARK    2  A    between atoms: C_2  and  C_3
REMARK    3  A    between atoms: C_9  and  C_29
REMARK    4  A    between atoms: C_10  and  C_12
REMARK    5  A    between atoms: C_18  and  S_20
REMARK    6  A    between atoms: S_20  and  C_21
REMARK    7  A    between atoms: C_21  and  C_22
REMARK                            x       y       z     vdW  Elec       q    Type
REMARK                         _______ _______ _______ _____ _____    ______ ____
ROOT
ATOM      1  C   UNL     1       1.178  -0.662  -0.012  0.00  0.00    +0.285 C 
ATOM      2  O   UNL     1       2.224  -0.039  -0.018  0.00  0.00    -0.266 OA
ATOM      3  N   UNL     1       0.002  -0.004   0.002  0.00  0.00    -0.257 N 
ATOM      4  C   UNL     1      -0.017   1.387   0.010  0.00  0.00    +0.189 A 
ATOM      5  N   UNL     1       0.985   2.251   0.005  0.00  0.00    -0.125 NA
ATOM      6  N   UNL     1       0.793   3.498   0.013  0.00  0.00    -0.133 NA
ATOM      7  C   UNL     1      -0.425   4.019   0.027  0.00  0.00    +0.160 A 
ATOM      8  S   UNL     1      -1.404   2.519   0.021  0.00  0.00    -0.024 S 
ATOM      9  H   UNL     1      -0.831  -0.500   0.007  0.00  0.00    +0.157 HD
ENDROOT
BRANCH   1  17
ATOM     10  C   UNL     1       1.767  -6.674  -0.049  0.00  0.00    -0.047 A 
ATOM     11  C   UNL     1       0.380  -6.618  -0.035  0.00  0.00    +0.007 A 
ATOM     12  C   UNL     1      -0.276  -5.406  -0.023  0.00  0.00    +0.047 A 
ATOM     13  C   UNL     1       0.455  -4.224  -0.024  0.00  0.00    +0.136 A 
ATOM     14  C   UNL     1       1.861  -4.286  -0.037  0.00  0.00    +0.024 A 
ATOM     15  C   UNL     1       2.507  -5.525  -0.049  0.00  0.00    +0.015 A 
ATOM     16  C   UNL     1       2.320  -2.898  -0.035  0.00  0.00    +0.008 A 
ATOM     17  C   UNL     1       1.198  -2.131  -0.020  0.00  0.00    +0.194 A 
ATOM     18  O   UNL     1       0.105  -2.923  -0.009  0.00  0.00    -0.450 OA
ATOM     19  C   UNL     1       3.747  -2.415  -0.046  0.00  0.00    +0.048 C 
BRANCH  10  21
ATOM     20  C   UNL     1       2.684  -8.456  -1.510  0.00  0.00    +0.009 C 
ATOM     21  C   UNL     1       2.462  -8.011  -0.063  0.00  0.00    +0.032 C 
ENDBRANCH  10  21
ENDBRANCH   1  17
BRANCH   7  22
ATOM     22  S   UNL     1      -0.936   5.705   0.040  0.00  0.00    -0.092 S 
BRANCH  22  23
ATOM     23  C   UNL     1       0.621   6.635   0.031  0.00  0.00    +0.111 C 
BRANCH  23  24
ATOM     24  C   UNL     1       0.323   8.113   0.042  0.00  0.00    -0.037 A 
ATOM     25  C   UNL     1       0.182   8.797  -1.151  0.00  0.00    +0.007 A 
ATOM     26  C   UNL     1      -0.096  10.151  -1.143  0.00  0.00    +0.038 A 
ATOM     27  C   UNL     1      -0.222  10.824   0.061  0.00  0.00    +0.123 A 
ATOM     28  C   UNL     1      -0.075  10.138   1.255  0.00  0.00    +0.038 A 
ATOM     29  C   UNL     1       0.197   8.783   1.244  0.00  0.00    +0.007 A 
ATOM     30  F   UNL     1      -0.489  12.148   0.070  0.00  0.00    -0.205 F 
ENDBRANCH  23  24
ENDBRANCH  22  23
ENDBRANCH   7  22
TORSDOF 5
