REMARK  Name = ZINC10108689
REMARK  11 active torsions:
REMARK  status: ('A' for Active; 'I' for Inactive)
REMARK    1  A    between atoms: C_1  and  C_2
REMARK    2  A    between atoms: C_2  and  O_3
REMARK    3  A    between atoms: O_3  and  C_4
REMARK    4  A    between atoms: C_9  and  N_10
REMARK    5  A    between atoms: C_11  and  C_35
REMARK    6  A    between atoms: N_20  and  C_25
REMARK    7  A    between atoms: N_23  and  C_24
REMARK    8  A    between atoms: C_25  and  C_26
REMARK    9  A    between atoms: C_26  and  C_27
REMARK   10  A    between atoms: C_27  and  N_69
REMARK   11  A    between atoms: C_32  and  C_34
REMARK                            x       y       z     vdW  Elec       q    Type
REMARK                         _______ _______ _______ _____ _____    ______ ____
ROOT
ATOM      1  N   UNL     1      -0.933   4.202   2.171  0.00  0.00    -0.279 N 
ATOM      2  C   UNL     1      -1.893   4.592   3.087  0.00  0.00    +0.041 A 
ATOM      3  C   UNL     1      -2.991   4.931   2.418  0.00  0.00    +0.116 A 
ATOM      4  N   UNL     1      -2.749   4.762   1.067  0.00  0.00    -0.277 N 
ATOM      5  C   UNL     1      -1.478   4.319   0.917  0.00  0.00    +0.223 A 
ATOM      6  N   UNL     1      -1.220   4.156  -0.372  0.00  0.00    -0.193 NA
ATOM      7  C   UNL     1      -2.289   4.484  -1.093  0.00  0.00    +0.170 A 
ATOM      8  C   UNL     1      -3.292   4.870  -0.205  0.00  0.00    +0.157 A 
ATOM      9  C   UNL     1      -4.539   5.271  -0.712  0.00  0.00    +0.283 A 
ATOM     10  O   UNL     1      -5.426   5.626   0.045  0.00  0.00    -0.265 OA
ATOM     11  N   UNL     1      -4.745   5.259  -2.045  0.00  0.00    -0.259 N 
ATOM     12  C   UNL     1      -3.778   4.870  -2.893  0.00  0.00    +0.333 A 
ATOM     13  O   UNL     1      -4.001   4.873  -4.088  0.00  0.00    -0.246 OA
ATOM     14  N   UNL     1      -2.560   4.500  -2.453  0.00  0.00    -0.279 N 
ATOM     15  C   UNL     1      -1.530   4.089  -3.410  0.00  0.00    +0.155 C 
ATOM     16  C   UNL     1      -1.723   4.627   4.584  0.00  0.00    +0.065 C 
ENDROOT
BRANCH   1  22
ATOM     17  C   UNL     1       1.409   4.691   2.542  0.00  0.00    +0.144 A 
ATOM     18  C   UNL     1       2.693   4.258   2.832  0.00  0.00    +0.048 A 
ATOM     19  C   UNL     1       2.937   2.915   3.048  0.00  0.00    +0.004 A 
ATOM     20  C   UNL     1       1.903   2.000   2.977  0.00  0.00    +0.002 A 
ATOM     21  C   UNL     1       0.620   2.424   2.688  0.00  0.00    +0.030 A 
ATOM     22  C   UNL     1       0.367   3.770   2.470  0.00  0.00    +0.091 A 
BRANCH  17  23
ATOM     23  O   UNL     1       1.168   6.012   2.328  0.00  0.00    -0.490 OA
BRANCH  23  25
ATOM     24  C   UNL     1       1.821   8.332   2.149  0.00  0.00    +0.048 C 
ATOM     25  C   UNL     1       2.285   6.899   2.418  0.00  0.00    +0.226 C 
ENDBRANCH  23  25
ENDBRANCH  17  23
ENDBRANCH   1  22
BRANCH  11  26
ATOM     26  C   UNL     1      -6.045   5.677  -2.576  0.00  0.00    +0.128 C 
BRANCH  26  27
ATOM     27  C   UNL     1      -6.025   7.182  -2.847  0.00  0.00    +0.003 C 
BRANCH  27  28
ATOM     28  C   UNL     1      -7.383   7.618  -3.402  0.00  0.00    -0.077 C 
BRANCH  28  35
ATOM     29  C   UNL     1      -6.457   9.389  -4.769  0.00  0.00    -0.078 C 
ATOM     30  C   UNL     1      -6.351  10.908  -4.916  0.00  0.00    -0.019 C 
ATOM     31  C   UNL     1      -7.743  11.488  -5.185  0.00  0.00    -0.003 C 
ATOM     32  C   UNL     1      -8.681  11.095  -4.040  0.00  0.00    -0.016 C 
ATOM     33  C   UNL     1      -8.719   9.570  -3.919  0.00  0.00    -0.072 C 
ATOM     34  C   UNL     1      -9.639   9.173  -2.763  0.00  0.00    -0.013 C 
ATOM     35  N   UNL     1      -7.354   9.077  -3.636  0.00  0.00    +0.381 N 
ATOM     36  H   UNL     1      -6.999   9.543  -2.793  0.00  0.00    -0.081 HD
ENDBRANCH  28  35
ENDBRANCH  27  28
ENDBRANCH  26  27
ENDBRANCH  11  26
TORSDOF 7
