REMARK  Name = ZINC46905908
REMARK  5 active torsions:
REMARK  status: ('A' for Active; 'I' for Inactive)
REMARK    1  A    between atoms: C_1  and  N_2
REMARK    2  A    between atoms: N_5  and  C_6
REMARK    3  A    between atoms: C_9  and  N_13
REMARK    4  A    between atoms: N_13  and  C_14
REMARK    5  A    between atoms: N_13  and  C_15
REMARK                            x       y       z     vdW  Elec       q    Type
REMARK                         _______ _______ _______ _____ _____    ______ ____
ROOT
ATOM      1  C   UNL     1       1.300  -2.648  -2.062  0.00  0.00    +0.038 A 
ATOM      2  C   UNL     1       1.953  -1.892  -3.026  0.00  0.00    +0.025 A 
ATOM      3  C   UNL     1       2.639  -2.518  -4.048  0.00  0.00    +0.028 A 
ATOM      4  C   UNL     1       2.677  -3.904  -4.113  0.00  0.00    +0.065 A 
ATOM      5  C   UNL     1       2.023  -4.662  -3.148  0.00  0.00    +0.146 A 
ATOM      6  C   UNL     1       1.341  -4.035  -2.122  0.00  0.00    +0.063 A 
ATOM      7  F   UNL     1       2.059  -6.011  -3.210  0.00  0.00    -0.203 F 
ENDROOT
BRANCH   1  12
ATOM      8  C   UNL     1      -0.025  -2.492   2.566  0.00  0.00    +0.129 C 
ATOM      9  N   UNL     1      -0.005  -1.900   1.226  0.00  0.00    -0.302 N 
ATOM     10  C   UNL     1       0.585  -2.557   0.207  0.00  0.00    +0.304 C 
ATOM     11  O   UNL     1       1.100  -3.641   0.401  0.00  0.00    -0.253 OA
ATOM     12  N   UNL     1       0.603  -2.012  -1.025  0.00  0.00    -0.269 N 
ATOM     13  H   UNL     1      -0.416  -1.035   1.071  0.00  0.00    +0.150 HD
ATOM     14  H   UNL     1       0.135  -1.180  -1.195  0.00  0.00    +0.156 HD
ENDBRANCH   1  12
BRANCH   4  15
ATOM     15  N   UNL     1       3.373  -4.538  -5.150  0.00  0.00    -0.328 N 
ATOM     16  C   UNL     1       4.789  -4.875  -4.984  0.00  0.00    +0.129 C 
BRANCH  15  17
ATOM     17  C   UNL     1       2.684  -4.866  -6.401  0.00  0.00    +0.073 C 
ATOM     18  C   UNL     1       2.735  -6.378  -6.630  0.00  0.00    +0.022 C 
ATOM     19  C   UNL     1       2.015  -6.719  -7.937  0.00  0.00    +0.002 C 
ATOM     20  C   UNL     1       2.704  -6.004  -9.101  0.00  0.00    +0.000 C 
ATOM     21  C   UNL     1       2.654  -4.492  -8.871  0.00  0.00    +0.002 C 
ATOM     22  C   UNL     1       3.373  -4.150  -7.565  0.00  0.00    +0.022 C 
ENDBRANCH  15  17
ENDBRANCH   4  15
TORSDOF 3
