REMARK  Name = ZINC42412932
REMARK  3 active torsions:
REMARK  status: ('A' for Active; 'I' for Inactive)
REMARK    1  A    between atoms: C_1  and  C_2
REMARK    2  A    between atoms: N_7  and  S_8
REMARK    3  A    between atoms: S_8  and  C_11
REMARK                            x       y       z     vdW  Elec       q    Type
REMARK                         _______ _______ _______ _____ _____    ______ ____
ROOT
ATOM      1  S   UNL     1       2.291  -0.210   1.571  0.00  0.00    +0.067 S 
ATOM      2  O   UNL     1       2.706  -1.266   2.426  0.00  0.00    -0.152 OA
ATOM      3  O   UNL     1       2.951   0.085   0.347  0.00  0.00    -0.152 OA
ENDROOT
BRANCH   1   9
ATOM      4  C   UNL     1      -0.019   1.526   0.010  0.00  0.00    +0.026 C 
ATOM      5  C   UNL     1       0.002  -0.004   0.002  0.00  0.00    +0.077 C 
ATOM      6  C   UNL     1      -1.441  -0.549   0.056  0.00  0.00    +0.021 C 
ATOM      7  C   UNL     1      -1.311  -1.785   0.985  0.00  0.00    +0.019 C 
ATOM      8  C   UNL     1      -0.241  -1.303   1.997  0.00  0.00    +0.110 C 
ATOM      9  N   UNL     1       0.705  -0.501   1.194  0.00  0.00    -0.173 NA
ENDBRANCH   1   9
BRANCH   1  10
ATOM     10  C   UNL     1       2.335   1.265   2.534  0.00  0.00    +0.144 A 
ATOM     11  C   UNL     1       2.258   1.407   3.880  0.00  0.00    +0.037 A 
ATOM     12  C   UNL     1       2.314   2.677   4.424  0.00  0.00    +0.025 A 
ATOM     13  C   UNL     1       2.445   3.742   3.594  0.00  0.00    +0.057 A 
ATOM     14  S   UNL     1       2.501   2.958   1.992  0.00  0.00    -0.062 S 
ATOM     15 BR   UNL     1       2.550   5.581   4.024  0.00  0.00    -0.043 Br
ENDBRANCH   1  10
TORSDOF 2
