REMARK  Name = ZINC23642061
REMARK  7 active torsions:
REMARK  status: ('A' for Active; 'I' for Inactive)
REMARK    1  A    between atoms: C_4  and  C_7
REMARK    2  A    between atoms: C_8  and  C_9
REMARK    3  A    between atoms: C_9  and  N_10
REMARK    4  A    between atoms: C_16  and  C_18
REMARK    5  A    between atoms: C_18  and  C_19
REMARK    6  A    between atoms: C_19  and  C_20
REMARK    7  A    between atoms: C_20  and  N_21
REMARK                            x       y       z     vdW  Elec       q    Type
REMARK                         _______ _______ _______ _____ _____    ______ ____
ROOT
ATOM      1  N   UNL     1      -0.701   1.560   1.216  0.00  0.00    -0.296 NA
ATOM      2  C   UNL     1      -0.013   1.086   0.008  0.00  0.00    +0.103 C 
ATOM      3  C   UNL     1      -0.755   1.594  -1.233  0.00  0.00    +0.123 C 
ATOM      4  N   UNL     1      -0.893   3.055  -1.129  0.00  0.00    -0.299 N 
ATOM      5  C   UNL     1      -1.450   3.614   0.112  0.00  0.00    +0.123 C 
ATOM      6  C   UNL     1      -0.681   3.026   1.300  0.00  0.00    +0.103 C 
ATOM      7  C   UNL     1      -0.519   3.859  -2.143  0.00  0.00    +0.216 C 
ATOM      8  O   UNL     1      -0.061   3.380  -3.159  0.00  0.00    -0.276 OA
ENDROOT
BRANCH   1   9
ATOM      9  C   UNL     1      -0.123   0.955   2.423  0.00  0.00    +0.111 C 
BRANCH   9  11
ATOM     10  C   UNL     1      -1.270   0.928   4.594  0.00  0.00    +0.005 C 
ATOM     11  C   UNL     1      -0.680   1.641   3.644  0.00  0.00    -0.011 C 
BRANCH  10  15
ATOM     12  C   UNL     1      -2.838   2.860   8.036  0.00  0.00    +0.000 A 
ATOM     13  C   UNL     1      -2.945   1.486   7.908  0.00  0.00    +0.001 A 
ATOM     14  C   UNL     1      -2.437   0.853   6.792  0.00  0.00    +0.008 A 
ATOM     15  C   UNL     1      -1.816   1.600   5.791  0.00  0.00    -0.025 A 
ATOM     16  C   UNL     1      -1.707   2.984   5.929  0.00  0.00    +0.008 A 
ATOM     17  C   UNL     1      -2.224   3.607   7.046  0.00  0.00    +0.001 A 
ENDBRANCH  10  15
ENDBRANCH   9  11
ENDBRANCH   1   9
BRANCH   7  18
ATOM     18  C   UNL     1      -0.670   5.353  -2.015  0.00  0.00    +0.097 C 
BRANCH  18  19
ATOM     19  C   UNL     1      -0.175   6.027  -3.297  0.00  0.00    +0.029 C 
BRANCH  19  20
ATOM     20  C   UNL     1      -0.328   7.544  -3.167  0.00  0.00    +0.118 C 
BRANCH  20  21
ATOM     21  N   UNL     1       0.146   8.189  -4.394  0.00  0.00    -0.224 N 
ATOM     22  C   UNL     1      -0.636   8.457  -5.462  0.00  0.00    +0.246 C 
ATOM     23  O   UNL     1      -1.819   8.219  -5.585  0.00  0.00    -0.273 OA
ATOM     24  C   UNL     1       0.275   9.114  -6.467  0.00  0.00    +0.113 C 
ATOM     25  C   UNL     1      -0.213  10.528  -6.811  0.00  0.00    +0.035 C 
ATOM     26  C   UNL     1       0.140  10.691  -8.313  0.00  0.00    +0.003 C 
ATOM     27  C   UNL     1      -0.137   9.279  -8.887  0.00  0.00    +0.003 C 
ATOM     28  C   UNL     1       0.330   8.317  -7.772  0.00  0.00    +0.035 C 
ATOM     29  N   UNL     1       1.582   9.151  -5.808  0.00  0.00    -0.285 N 
ATOM     30  C   UNL     1       1.408   8.592  -4.594  0.00  0.00    +0.309 C 
ATOM     31  O   UNL     1       2.296   8.464  -3.775  0.00  0.00    -0.252 OA
ATOM     32  H   UNL     1       2.448   9.584  -6.330  0.00  0.00    +0.151 HD
ENDBRANCH  20  21
ENDBRANCH  19  20
ENDBRANCH  18  19
ENDBRANCH   7  18
TORSDOF 7
