REMARK  Name = ZINC46255914
REMARK  5 active torsions:
REMARK  status: ('A' for Active; 'I' for Inactive)
REMARK    1  A    between atoms: C_1  and  C_2
REMARK    2  A    between atoms: C_5  and  C_7
REMARK    3  A    between atoms: C_10  and  C_12
REMARK    4  A    between atoms: C_13  and  C_14
REMARK    5  A    between atoms: C_21  and  C_23
REMARK                            x       y       z     vdW  Elec       q    Type
REMARK                         _______ _______ _______ _____ _____    ______ ____
ROOT
ATOM      1  C   UNL     1       2.740   3.468   3.386  0.00  0.00    +0.051 C 
ATOM      2  C   UNL     1       3.141   3.805   4.636  0.00  0.00    +0.071 C 
ENDROOT
BRANCH   2   3
ATOM      3  C   UNL     1       4.319   4.569   4.820  0.00  0.00    +0.240 C 
ATOM      4  O   UNL     1       5.024   4.840   3.864  0.00  0.00    -0.271 OA
ATOM      5  N   UNL     1       4.660   4.997   6.051  0.00  0.00    -0.291 N 
ATOM      6  C   UNL     1       3.896   4.577   7.237  0.00  0.00    +0.136 C 
ATOM      7  C   UNL     1       3.531   5.829   8.044  0.00  0.00    +0.179 C 
ATOM      8  O   UNL     1       4.715   6.593   8.289  0.00  0.00    -0.376 OA
ATOM      9  C   UNL     1       5.350   7.082   7.106  0.00  0.00    +0.182 C 
ATOM     10  C   UNL     1       5.811   5.891   6.251  0.00  0.00    +0.099 C 
ATOM     11  C   UNL     1       6.316   6.392   4.896  0.00  0.00    +0.030 C 
ENDBRANCH   2   3
BRANCH   1  15
ATOM     12  C   UNL     1      -0.071   1.600   2.234  0.00  0.00    +0.109 A 
ATOM     13  C   UNL     1      -0.304   1.537   3.564  0.00  0.00    +0.045 A 
ATOM     14  C   UNL     1       0.731   2.239   4.201  0.00  0.00    +0.049 A 
ATOM     15  C   UNL     1       1.562   2.704   3.202  0.00  0.00    +0.128 A 
ATOM     16  O   UNL     1       1.054   2.297   2.020  0.00  0.00    -0.460 OA
BRANCH  12  20
ATOM     17  C   UNL     1      -1.230   3.409   0.239  0.00  0.00    +0.008 C 
ATOM     18  C   UNL     1      -1.543   1.917   0.119  0.00  0.00    -0.003 C 
ATOM     19  C   UNL     1      -0.394   0.983  -0.268  0.00  0.00    +0.015 C 
ATOM     20  C   UNL     1      -0.933   0.981   1.165  0.00  0.00    +0.058 C 
ENDBRANCH  12  20
ENDBRANCH   1  15
TORSDOF 3
