REMARK  Name = ZINC27019555
REMARK  6 active torsions:
REMARK  status: ('A' for Active; 'I' for Inactive)
REMARK    1  A    between atoms: C_4  and  N_7
REMARK    2  A    between atoms: N_9  and  C_29
REMARK    3  A    between atoms: C_10  and  C_13
REMARK    4  A    between atoms: C_16  and  S_19
REMARK    5  A    between atoms: S_19  and  N_22
REMARK    6  A    between atoms: C_29  and  C_30
REMARK                            x       y       z     vdW  Elec       q    Type
REMARK                         _______ _______ _______ _____ _____    ______ ____
ROOT
ATOM      1  N   UNL     1       1.561   7.737  -1.901  0.00  0.00    -0.336 N 
ATOM      2  C   UNL     1       0.498   7.012  -2.195  0.00  0.00    +0.152 A 
ATOM      3  N   UNL     1      -0.674   6.865  -1.491  0.00  0.00    -0.316 N 
ATOM      4  C   UNL     1      -1.650   6.053  -2.003  0.00  0.00    +0.058 A 
ATOM      5  C   UNL     1      -1.441   5.417  -3.174  0.00  0.00    +0.075 A 
ATOM      6  S   UNL     1       0.203   5.963  -3.609  0.00  0.00    -0.059 S 
ATOM      7  H   UNL     1       1.549   8.401  -1.025  0.00  0.00    +0.168 HD
ENDROOT
BRANCH   1  11
ATOM      8  C   UNL     1       4.941   7.506  -4.277  0.00  0.00    +0.000 A 
ATOM      9  C   UNL     1       3.981   8.470  -4.535  0.00  0.00    +0.002 A 
ATOM     10  C   UNL     1       2.852   8.552  -3.748  0.00  0.00    +0.025 A 
ATOM     11  C   UNL     1       2.678   7.660  -2.686  0.00  0.00    +0.041 A 
ATOM     12  C   UNL     1       3.654   6.694  -2.428  0.00  0.00    +0.025 A 
ATOM     13  C   UNL     1       4.775   6.619  -3.227  0.00  0.00    +0.002 A 
ENDBRANCH   1  11
BRANCH   4  14
ATOM     14  C   UNL     1      -2.926   5.876  -1.278  0.00  0.00    -0.001 A 
ATOM     15  C   UNL     1      -2.922   5.476   0.060  0.00  0.00    +0.012 A 
ATOM     16  C   UNL     1      -4.116   5.317   0.732  0.00  0.00    +0.029 A 
ATOM     17  C   UNL     1      -5.316   5.542   0.081  0.00  0.00    +0.106 A 
ATOM     18  C   UNL     1      -5.327   5.933  -1.246  0.00  0.00    +0.029 A 
ATOM     19  C   UNL     1      -4.140   6.101  -1.929  0.00  0.00    +0.012 A 
BRANCH  17  20
ATOM     20  S   UNL     1      -6.836   5.329   0.946  0.00  0.00    +0.061 S 
ATOM     21  O   UNL     1      -6.543   5.489   2.327  0.00  0.00    -0.153 OA
ATOM     22  O   UNL     1      -7.800   6.128   0.274  0.00  0.00    -0.153 OA
BRANCH  20  23
ATOM     23  N   UNL     1      -7.301   3.753   0.739  0.00  0.00    -0.177 NA
ATOM     24  C   UNL     1      -8.140   3.421  -0.390  0.00  0.00    +0.109 C 
ATOM     25  C   UNL     1      -9.626   3.563   0.000  0.00  0.00    +0.017 C 
ATOM     26  C   UNL     1     -10.018   2.485   0.921  0.00  0.00    +0.001 C 
ATOM     27  C   UNL     1      -9.273   2.494   2.252  0.00  0.00    +0.001 C 
ATOM     28  C   UNL     1      -7.964   1.760   2.098  0.00  0.00    +0.017 C 
ATOM     29  C   UNL     1      -6.846   2.747   1.718  0.00  0.00    +0.109 C 
ENDBRANCH  20  23
ENDBRANCH  17  20
ENDBRANCH   4  14
BRANCH   3  30
ATOM     30  C   UNL     1      -0.877   7.568  -0.222  0.00  0.00    +0.161 C 
BRANCH  30  31
ATOM     31  C   UNL     1      -1.523   8.904  -0.485  0.00  0.00    -0.010 A 
ATOM     32  C   UNL     1      -2.898   9.050  -0.386  0.00  0.00    +0.008 A 
ATOM     33  C   UNL     1      -3.449  10.297  -0.637  0.00  0.00    +0.020 A 
ATOM     34  C   UNL     1      -2.615  11.346  -0.975  0.00  0.00    +0.111 A 
ATOM     35  N   UNL     1      -1.311  11.169  -1.064  0.00  0.00    -0.263 NA
ATOM     36  C   UNL     1      -0.752   9.998  -0.827  0.00  0.00    +0.116 A 
ENDBRANCH  30  31
ENDBRANCH   3  30
TORSDOF 6
