REMARK  Name = ZINC05866963
REMARK  6 active torsions:
REMARK  status: ('A' for Active; 'I' for Inactive)
REMARK    1  A    between atoms: C_1  and  C_2
REMARK    2  A    between atoms: C_5  and  C_25
REMARK    3  A    between atoms: C_6  and  C_8
REMARK    4  A    between atoms: C_10  and  C_17
REMARK    5  A    between atoms: C_11  and  C_16
REMARK    6  A    between atoms: C_17  and  C_19
REMARK                            x       y       z     vdW  Elec       q    Type
REMARK                         _______ _______ _______ _____ _____    ______ ____
ROOT
ATOM      1  C   UNL     1       0.168  -2.745   2.383  0.00  0.00    +0.140 C 
ATOM      2  C   UNL     1       1.548  -3.255   2.750  0.00  0.00    +0.041 C 
ATOM      3  C   UNL     1       1.989  -3.025   4.007  0.00  0.00    +0.018 C 
ATOM      4  N   UNL     1       1.217  -2.357   4.913  0.00  0.00    -0.273 N 
ATOM      5  C   UNL     1      -0.007  -1.887   4.643  0.00  0.00    +0.304 C 
ATOM      6  O   UNL     1      -0.619  -1.304   5.516  0.00  0.00    -0.252 OA
ATOM      7  N   UNL     1      -0.582  -2.037   3.434  0.00  0.00    -0.288 N 
ATOM      8  C   UNL     1       3.355  -3.515   4.415  0.00  0.00    +0.061 C 
ATOM      9  H   UNL     1       1.575  -2.216   5.804  0.00  0.00    +0.156 HD
ATOM     10  H   UNL     1      -1.470  -1.687   3.260  0.00  0.00    +0.151 HD
ENDROOT
BRANCH   1  16
ATOM     11  C   UNL     1       0.610   1.895   0.561  0.00  0.00    +0.044 C 
ATOM     12  C   UNL     1       0.525   0.407   0.337  0.00  0.00    -0.050 A 
ATOM     13  C   UNL     1       0.582  -0.102  -0.947  0.00  0.00    +0.003 A 
ATOM     14  C   UNL     1       0.505  -1.467  -1.153  0.00  0.00    +0.004 A 
ATOM     15  C   UNL     1       0.371  -2.322  -0.075  0.00  0.00    -0.045 A 
ATOM     16  C   UNL     1       0.315  -1.813   1.208  0.00  0.00    -0.019 A 
ATOM     17  C   UNL     1       0.397  -0.448   1.415  0.00  0.00    +0.009 A 
ATOM     18  C   UNL     1       0.285  -3.810  -0.300  0.00  0.00    +0.044 C 
ENDBRANCH   1  16
BRANCH   2  19
ATOM     19  C   UNL     1       2.346  -3.947   1.809  0.00  0.00    +0.193 C 
ATOM     20  O   UNL     1       2.124  -5.120   1.568  0.00  0.00    -0.287 OA
BRANCH  19  21
ATOM     21  C   UNL     1       3.451  -3.246   1.118  0.00  0.00    +0.022 A 
ATOM     22  C   UNL     1       3.758  -1.925   1.448  0.00  0.00    +0.012 A 
ATOM     23  C   UNL     1       4.790  -1.278   0.800  0.00  0.00    +0.001 A 
ATOM     24  C   UNL     1       5.519  -1.935  -0.174  0.00  0.00    +0.000 A 
ATOM     25  C   UNL     1       5.220  -3.244  -0.506  0.00  0.00    +0.001 A 
ATOM     26  C   UNL     1       4.194  -3.905   0.138  0.00  0.00    +0.012 A 
ENDBRANCH  19  21
ENDBRANCH   2  19
TORSDOF 3
