REMARK  Name = ZINC54219813
REMARK  9 active torsions:
REMARK  status: ('A' for Active; 'I' for Inactive)
REMARK    1  A    between atoms: C_1  and  C_2
REMARK    2  A    between atoms: C_2  and  O_3
REMARK    3  A    between atoms: O_3  and  C_4
REMARK    4  A    between atoms: C_9  and  C_10
REMARK    5  A    between atoms: C_12  and  C_30
REMARK    6  A    between atoms: C_13  and  C_29
REMARK    7  A    between atoms: C_18  and  S_20
REMARK    8  A    between atoms: S_20  and  C_21
REMARK    9  A    between atoms: C_21  and  C_22
REMARK                            x       y       z     vdW  Elec       q    Type
REMARK                         _______ _______ _______ _____ _____    ______ ____
ROOT
ATOM      1  C   UNL     1       2.104  -1.239   3.436  0.00  0.00    +0.162 C 
ATOM      2  C   UNL     1       3.564  -1.692   3.550  0.00  0.00    +0.148 C 
ATOM      3  C   UNL     1       3.668  -3.006   4.272  0.00  0.00    +0.034 C 
ATOM      4  N   UNL     1       2.854  -3.352   5.216  0.00  0.00    -0.220 NA
ATOM      5  C   UNL     1       1.830  -2.510   5.545  0.00  0.00    +0.250 A 
ATOM      6  N   UNL     1       1.450  -1.494   4.720  0.00  0.00    -0.220 N 
ATOM      7  N   UNL     1       0.397  -0.837   5.347  0.00  0.00    -0.141 NA
ATOM      8  C   UNL     1       0.174  -1.474   6.479  0.00  0.00    +0.211 A 
ATOM      9  N   UNL     1       1.040  -2.493   6.587  0.00  0.00    -0.184 NA
ATOM     10  C   UNL     1       4.766  -3.960   3.880  0.00  0.00    +0.062 C 
ENDROOT
BRANCH   1  16
ATOM     11  C   UNL     1       0.849  -1.354   1.268  0.00  0.00    +0.126 A 
ATOM     12  C   UNL     1       0.217  -2.076   0.266  0.00  0.00    +0.046 A 
ATOM     13  C   UNL     1       0.145  -3.453   0.348  0.00  0.00    +0.004 A 
ATOM     14  C   UNL     1       0.702  -4.112   1.428  0.00  0.00    +0.001 A 
ATOM     15  C   UNL     1       1.331  -3.396   2.429  0.00  0.00    +0.009 A 
ATOM     16  C   UNL     1       1.411  -2.019   2.348  0.00  0.00    +0.020 A 
BRANCH  11  17
ATOM     17  O   UNL     1       0.922   0.001   1.190  0.00  0.00    -0.492 OA
BRANCH  17  19
ATOM     18  C   UNL     1       0.502   2.134   0.136  0.00  0.00    +0.048 C 
ATOM     19  C   UNL     1       0.321   0.617   0.050  0.00  0.00    +0.225 C 
ENDBRANCH  17  19
ENDBRANCH  11  17
ENDBRANCH   1  16
BRANCH   2  20
ATOM     20  C   UNL     1       4.145  -1.840   2.168  0.00  0.00    +0.221 C 
ATOM     21  O   UNL     1       3.818  -2.776   1.470  0.00  0.00    -0.275 OA
ATOM     22  N   UNL     1       5.029  -0.933   1.707  0.00  0.00    -0.329 N 
ATOM     23  H   UNL     1       5.290  -0.184   2.266  0.00  0.00    +0.145 HD
ATOM     24  H   UNL     1       5.403  -1.028   0.817  0.00  0.00    +0.145 HD
ENDBRANCH   2  20
BRANCH   8  25
ATOM     25  S   UNL     1      -1.061  -1.052   7.663  0.00  0.00    -0.080 S 
BRANCH  25  26
ATOM     26  C   UNL     1      -0.856  -2.291   8.972  0.00  0.00    +0.115 C 
BRANCH  26  27
ATOM     27  C   UNL     1      -1.866  -2.042  10.062  0.00  0.00    -0.002 A 
ATOM     28  C   UNL     1      -1.553  -1.204  11.117  0.00  0.00    +0.007 A 
ATOM     29  C   UNL     1      -2.479  -0.976  12.117  0.00  0.00    +0.000 A 
ATOM     30  C   UNL     1      -3.719  -1.584  12.064  0.00  0.00    +0.003 A 
ATOM     31  C   UNL     1      -4.035  -2.421  11.011  0.00  0.00    +0.038 A 
ATOM     32  C   UNL     1      -3.109  -2.647  10.005  0.00  0.00    +0.127 A 
ATOM     33  F   UNL     1      -3.418  -3.461   8.973  0.00  0.00    -0.205 F 
ENDBRANCH  26  27
ENDBRANCH  25  26
ENDBRANCH   8  25
TORSDOF 7
