REMARK  Name = ZINC01188973
REMARK  5 active torsions:
REMARK  status: ('A' for Active; 'I' for Inactive)
REMARK    1  A    between atoms: C_1  and  C_2
REMARK    2  A    between atoms: C_3  and  C_20
REMARK    3  A    between atoms: C_4  and  C_10
REMARK    4  A    between atoms: C_20  and  O_22
REMARK    5  A    between atoms: O_22  and  C_23
REMARK                            x       y       z     vdW  Elec       q    Type
REMARK                         _______ _______ _______ _____ _____    ______ ____
ROOT
ATOM      1  C   UNL     1      -3.127  -0.599   6.453  0.00  0.00    +0.061 C 
ATOM      2  C   UNL     1      -3.676   0.772   6.155  0.00  0.00    +0.021 C 
ATOM      3  C   UNL     1      -3.625   1.248   4.892  0.00  0.00    +0.078 C 
ATOM      4  C   UNL     1      -4.183   2.634   4.637  0.00  0.00    +0.145 C 
ATOM      5  N   UNL     1      -4.748   3.348   5.794  0.00  0.00    -0.288 N 
ATOM      6  C   UNL     1      -4.726   2.740   6.997  0.00  0.00    +0.304 C 
ATOM      7  O   UNL     1      -5.185   3.324   7.959  0.00  0.00    -0.252 OA
ATOM      8  N   UNL     1      -4.216   1.514   7.166  0.00  0.00    -0.273 N 
ATOM      9  H   UNL     1      -5.123   4.237   5.694  0.00  0.00    +0.151 HD
ATOM     10  H   UNL     1      -4.230   1.131   8.057  0.00  0.00    +0.156 HD
ENDROOT
BRANCH   4  11
ATOM     11  C   UNL     1      -5.266   2.514   3.596  0.00  0.00    -0.005 A 
ATOM     12  C   UNL     1      -6.581   2.336   3.986  0.00  0.00    +0.056 A 
ATOM     13  C   UNL     1      -7.578   2.226   3.031  0.00  0.00    +0.167 A 
ATOM     14  C   UNL     1      -7.253   2.296   1.678  0.00  0.00    +0.167 A 
ATOM     15  C   UNL     1      -5.935   2.475   1.294  0.00  0.00    +0.065 A 
ATOM     16  C   UNL     1      -4.944   2.589   2.253  0.00  0.00    +0.027 A 
ATOM     17 BR   UNL     1      -3.145   2.840   1.727  0.00  0.00    -0.050 Br
ATOM     18  O   UNL     1      -8.399   2.163   0.947  0.00  0.00    -0.453 OA
ATOM     19  C   UNL     1      -9.369   1.603   1.851  0.00  0.00    +0.466 C 
ATOM     20  O   UNL     1      -8.927   2.050   3.147  0.00  0.00    -0.453 OA
ENDBRANCH   4  11
BRANCH   3  21
ATOM     21  C   UNL     1      -3.065   0.481   3.843  0.00  0.00    +0.339 C 
ATOM     22  O   UNL     1      -3.791  -0.130   3.082  0.00  0.00    -0.245 OA
BRANCH  21  23
ATOM     23  O   UNL     1      -1.726   0.428   3.687  0.00  0.00    -0.458 OA
BRANCH  23  24
ATOM     24  C   UNL     1      -1.234  -0.270   2.542  0.00  0.00    +0.177 C 
ATOM     25  C   UNL     1      -0.965  -1.730   2.910  0.00  0.00    +0.044 C 
ATOM     26  C   UNL     1      -0.438  -2.477   1.683  0.00  0.00    +0.004 C 
ATOM     27  C   UNL     1       0.862  -1.824   1.208  0.00  0.00    +0.000 C 
ATOM     28  C   UNL     1       0.593  -0.363   0.839  0.00  0.00    +0.004 C 
ATOM     29  C   UNL     1       0.066   0.384   2.066  0.00  0.00    +0.044 C 
ENDBRANCH  23  24
ENDBRANCH  21  23
ENDBRANCH   3  21
TORSDOF 4
