REMARK  Name = ZINC09012062
REMARK  16 active torsions:
REMARK  status: ('A' for Active; 'I' for Inactive)
REMARK    1  A    between atoms: C_1  and  C_2
REMARK    2  A    between atoms: C_2  and  O_3
REMARK    3  A    between atoms: O_3  and  C_4
REMARK    4  A    between atoms: C_4  and  C_6
REMARK    5  A    between atoms: C_9  and  N_12
REMARK    6  A    between atoms: C_13  and  C_15
REMARK    7  A    between atoms: C_16  and  C_38
REMARK    8  A    between atoms: C_18  and  S_29
REMARK    9  A    between atoms: C_19  and  C_27
REMARK   10  A    between atoms: C_20  and  C_22
REMARK   11  A    between atoms: S_29  and  C_30
REMARK   12  A    between atoms: C_30  and  C_31
REMARK   13  A    between atoms: N_33  and  C_34
REMARK   14  A    between atoms: C_34  and  C_35
REMARK   15  A    between atoms: C_34  and  C_36
REMARK   16  A    between atoms: C_34  and  C_37
REMARK                            x       y       z     vdW  Elec       q    Type
REMARK                         _______ _______ _______ _____ _____    ______ ____
ROOT
ATOM      1  C   UNL     1      -0.042   1.013  -0.444  0.00  0.00    +0.047 C 
ATOM      2  C   UNL     1       1.133   1.502  -0.014  0.00  0.00    +0.015 C 
ATOM      3  N   UNL     1       2.276   0.753  -0.081  0.00  0.00    -0.312 N 
ATOM      4  C   UNL     1       2.332  -0.352  -0.901  0.00  0.00    +0.080 C 
ATOM      5  C   UNL     1       1.190  -0.921  -1.371  0.00  0.00    +0.072 C 
ATOM      6  C   UNL     1      -0.161  -0.374  -1.007  0.00  0.00    +0.134 C 
ATOM      7  C   UNL     1       1.193   2.898   0.550  0.00  0.00    +0.061 C 
ATOM      8  H   UNL     1       3.152   1.032   0.522  0.00  0.00    +0.152 HD
ENDROOT
BRANCH   6   9
ATOM      9  C   UNL     1      -1.029  -0.337  -2.238  0.00  0.00    +0.118 A 
ATOM     10  C   UNL     1      -2.094  -1.124  -2.474  0.00  0.00    +0.045 A 
ATOM     11  C   UNL     1      -2.607  -0.751  -3.738  0.00  0.00    +0.041 A 
ATOM     12  C   UNL     1      -1.824   0.241  -4.199  0.00  0.00    +0.195 A 
ATOM     13  O   UNL     1      -0.874   0.492  -3.284  0.00  0.00    -0.467 OA
ENDBRANCH   6   9
BRANCH   1  15
ATOM     14  N   UNL     1      -1.397   2.797  -1.286  0.00  0.00    -0.282 N 
ATOM     15  C   UNL     1      -1.196   1.828  -0.371  0.00  0.00    +0.247 C 
ATOM     16  O   UNL     1      -2.008   1.655   0.520  0.00  0.00    -0.270 OA
ATOM     17  H   UNL     1      -0.621   3.015  -2.035  0.00  0.00    +0.155 HD
BRANCH  14  21
ATOM     18  C   UNL     1      -4.953   4.963  -1.281  0.00  0.00    +0.059 A 
ATOM     19  C   UNL     1      -4.324   4.652  -2.490  0.00  0.00    +0.017 A 
ATOM     20  C   UNL     1      -3.148   3.937  -2.488  0.00  0.00    +0.024 A 
ATOM     21  C   UNL     1      -2.586   3.522  -1.285  0.00  0.00    +0.034 A 
ATOM     22  C   UNL     1      -3.213   3.824  -0.079  0.00  0.00    +0.024 A 
ATOM     23  C   UNL     1      -4.386   4.544  -0.074  0.00  0.00    +0.017 A 
BRANCH  18  24
ATOM     24  C   UNL     1      -6.213   5.729  -1.279  0.00  0.00    +0.339 C 
ATOM     25  O   UNL     1      -6.705   6.091  -2.330  0.00  0.00    -0.245 OA
BRANCH  24  26
ATOM     26  O   UNL     1      -6.819   6.027  -0.113  0.00  0.00    -0.461 OA
BRANCH  26  28
ATOM     27  C   UNL     1      -8.591   7.025   1.225  0.00  0.00    +0.048 C 
ATOM     28  C   UNL     1      -8.055   6.784  -0.187  0.00  0.00    +0.229 C 
ENDBRANCH  26  28
ENDBRANCH  24  26
ENDBRANCH  18  24
ENDBRANCH  14  21
ENDBRANCH   1  15
BRANCH   5  29
ATOM     29  C   UNL     1       1.277  -2.064  -2.230  0.00  0.00    +0.098 C 
ATOM     30  N   UNL     1       1.346  -2.970  -2.912  0.00  0.00    -0.191 NA
ENDBRANCH   5  29
BRANCH   4  31
ATOM     31  S   UNL     1       3.896  -1.032  -1.345  0.00  0.00    -0.100 S 
BRANCH  31  32
ATOM     32  C   UNL     1       4.995   0.100  -0.457  0.00  0.00    +0.171 C 
BRANCH  32  33
ATOM     33  C   UNL     1       6.428  -0.299  -0.698  0.00  0.00    +0.224 C 
ATOM     34  O   UNL     1       6.681  -1.255  -1.400  0.00  0.00    -0.275 OA
ATOM     35  N   UNL     1       7.428   0.406  -0.132  0.00  0.00    -0.310 N 
ATOM     36  H   UNL     1       7.197   1.272   0.505  0.00  0.00    +0.149 HD
BRANCH  35  37
ATOM     37  C   UNL     1       8.821   0.017  -0.365  0.00  0.00    +0.026 C 
ATOM     38  C   UNL     1       9.124   0.082  -1.864  0.00  0.00    +0.031 C 
ATOM     39  C   UNL     1       9.749   0.974   0.385  0.00  0.00    +0.031 C 
ATOM     40  C   UNL     1       9.044  -1.410   0.139  0.00  0.00    +0.031 C 
ENDBRANCH  35  37
ENDBRANCH  32  33
ENDBRANCH  31  32
ENDBRANCH   4  31
TORSDOF 11
