REMARK  Name = ZINC22844126
REMARK  13 active torsions:
REMARK  status: ('A' for Active; 'I' for Inactive)
REMARK    1  A    between atoms: C_1  and  C_2
REMARK    2  A    between atoms: C_2  and  C_4
REMARK    3  A    between atoms: C_2  and  N_31
REMARK    4  A    between atoms: C_7  and  S_16
REMARK    5  A    between atoms: N_8  and  C_9
REMARK    6  A    between atoms: S_16  and  C_17
REMARK    7  A    between atoms: C_17  and  C_18
REMARK    8  A    between atoms: N_20  and  C_21
REMARK    9  A    between atoms: C_26  and  S_27
REMARK   10  A    between atoms: S_27  and  C_28
REMARK   11  A    between atoms: C_28  and  C_29
REMARK   12  A    between atoms: N_31  and  C_32
REMARK   13  A    between atoms: N_31  and  C_33
REMARK                            x       y       z     vdW  Elec       q    Type
REMARK                         _______ _______ _______ _____ _____    ______ ____
ROOT
ATOM      1  C   UNL     1      -1.478   3.515   2.480  0.00  0.00    +0.125 A 
ATOM      2  N   UNL     1      -2.592   3.030   2.950  0.00  0.00    -0.135 NA
ATOM      3  N   UNL     1      -2.911   3.631   4.040  0.00  0.00    -0.122 NA
ATOM      4  C   UNL     1      -2.015   4.547   4.325  0.00  0.00    +0.197 A 
ATOM      5  N   UNL     1      -1.070   4.502   3.338  0.00  0.00    -0.275 N 
ENDROOT
BRANCH   5   6
ATOM      6  C   UNL     1       0.078   5.301   3.226  0.00  0.00    +0.050 A 
ATOM      7  C   UNL     1       1.338   4.725   3.321  0.00  0.00    +0.028 A 
ATOM      8  C   UNL     1       2.466   5.513   3.204  0.00  0.00    +0.022 A 
ATOM      9  C   UNL     1       2.342   6.877   3.005  0.00  0.00    +0.041 A 
ATOM     10  C   UNL     1       1.088   7.454   2.916  0.00  0.00    +0.022 A 
ATOM     11  C   UNL     1      -0.044   6.669   3.026  0.00  0.00    +0.028 A 
ATOM     12 CL   UNL     1       3.763   7.865   2.867  0.00  0.00    -0.084 Cl
ENDBRANCH   5   6
BRANCH   1  14
ATOM     13  C   UNL     1      -1.524   3.610   0.003  0.00  0.00    -0.005 C 
ATOM     14  C   UNL     1      -0.772   3.075   1.223  0.00  0.00    -0.003 C 
BRANCH  14  15
ATOM     15  N   UNL     1      -0.734   1.608   1.171  0.00  0.00    +0.382 N 
ATOM     16  C   UNL     1      -0.051   1.142  -0.044  0.00  0.00    -0.096 C 
ATOM     17  C   UNL     1      -0.100   1.055   2.376  0.00  0.00    -0.096 C 
ATOM     18  H   UNL     1      -1.771   1.243   1.137  0.00  0.00    -0.082 HD
ENDBRANCH  14  15
ENDBRANCH   1  14
BRANCH   4  19
ATOM     19  S   UNL     1      -2.026   5.628   5.717  0.00  0.00    -0.076 S 
BRANCH  19  20
ATOM     20  C   UNL     1      -3.552   5.084   6.525  0.00  0.00    +0.173 C 
BRANCH  20  21
ATOM     21  C   UNL     1      -3.774   5.894   7.776  0.00  0.00    +0.228 C 
ATOM     22  O   UNL     1      -2.978   6.754   8.091  0.00  0.00    -0.275 OA
ATOM     23  N   UNL     1      -4.856   5.662   8.546  0.00  0.00    -0.284 N 
ATOM     24  H   UNL     1      -5.614   4.934   8.223  0.00  0.00    +0.155 HD
BRANCH  23  25
ATOM     25  C   UNL     1      -5.014   6.348   9.758  0.00  0.00    +0.047 A 
ATOM     26  C   UNL     1      -4.580   7.660   9.875  0.00  0.00    +0.024 A 
ATOM     27  C   UNL     1      -4.741   8.337  11.070  0.00  0.00    +0.002 A 
ATOM     28  C   UNL     1      -5.326   7.707  12.153  0.00  0.00    +0.001 A 
ATOM     29  C   UNL     1      -5.757   6.398  12.047  0.00  0.00    +0.016 A 
ATOM     30  C   UNL     1      -5.603   5.712  10.850  0.00  0.00    +0.030 A 
BRANCH  30  31
ATOM     31  S   UNL     1      -6.151   4.043  10.712  0.00  0.00    -0.108 S 
BRANCH  31  32
ATOM     32  C   UNL     1      -6.830   3.667  12.351  0.00  0.00    +0.192 C 
BRANCH  32  33
ATOM     33  C   UNL     1      -7.328   2.282  12.369  0.00  0.00    +0.074 C 
ATOM     34  N   UNL     1      -7.713   1.213  12.383  0.00  0.00    -0.196 NA
ENDBRANCH  32  33
ENDBRANCH  31  32
ENDBRANCH  30  31
ENDBRANCH  23  25
ENDBRANCH  20  21
ENDBRANCH  19  20
ENDBRANCH   4  19
TORSDOF 10
