REMARK  Name = ZINC39691238
REMARK  8 active torsions:
REMARK  status: ('A' for Active; 'I' for Inactive)
REMARK    1  A    between atoms: C_1  and  C_2
REMARK    2  A    between atoms: C_7  and  C_8
REMARK    3  A    between atoms: C_8  and  C_9
REMARK    4  A    between atoms: C_9  and  N_10
REMARK    5  A    between atoms: C_11  and  C_13
REMARK    6  A    between atoms: C_24  and  C_26
REMARK    7  A    between atoms: C_29  and  O_32
REMARK    8  A    between atoms: O_32  and  C_33
REMARK                            x       y       z     vdW  Elec       q    Type
REMARK                         _______ _______ _______ _____ _____    ______ ____
ROOT
ATOM      1  C   UNL     1      -2.589   1.192   6.179  0.00  0.00    +0.100 C 
ATOM      2  C   UNL     1      -2.044   0.575   7.487  0.00  0.00    +0.121 C 
ATOM      3  N   UNL     1      -2.906   1.136   8.554  0.00  0.00    -0.296 N 
ATOM      4  C   UNL     1      -4.266   1.143   7.963  0.00  0.00    +0.115 C 
ATOM      5  C   UNL     1      -4.047   1.563   6.496  0.00  0.00    -0.004 C 
ATOM      6  C   UNL     1      -4.256   3.067   6.341  0.00  0.00    -0.010 C 
ATOM      7  C   UNL     1      -5.726   3.404   6.606  0.00  0.00    -0.082 C 
ATOM      8  N   UNL     1      -6.575   2.672   5.659  0.00  0.00    +0.379 N 
ATOM      9  C   UNL     1      -6.439   1.226   5.876  0.00  0.00    -0.082 C 
ATOM     10  C   UNL     1      -4.998   0.798   5.581  0.00  0.00    -0.010 C 
ATOM     11  C   UNL     1      -2.537   1.546   9.783  0.00  0.00    +0.248 C 
ATOM     12  O   UNL     1      -1.359   1.599  10.078  0.00  0.00    -0.270 OA
ATOM     13  H   UNL     1      -7.538   2.941   5.795  0.00  0.00    -0.086 HD
ATOM     14  H   UNL     1      -6.296   2.896   4.715  0.00  0.00    -0.086 HD
ENDROOT
BRANCH  11  15
ATOM     15  C   UNL     1      -3.564   1.932  10.771  0.00  0.00    +0.055 A 
ATOM     16  C   UNL     1      -4.892   1.504  10.622  0.00  0.00    +0.020 A 
ATOM     17  C   UNL     1      -5.815   1.890  11.572  0.00  0.00    +0.068 A 
ATOM     18  C   UNL     1      -5.403   2.685  12.638  0.00  0.00    +0.220 A 
ATOM     19  N   UNL     1      -4.142   3.072  12.751  0.00  0.00    -0.220 NA
ATOM     20  C   UNL     1      -3.227   2.722  11.871  0.00  0.00    +0.127 A 
BRANCH  18  21
ATOM     21  O   UNL     1      -6.305   3.067  13.574  0.00  0.00    -0.438 OA
BRANCH  21  22
ATOM     22  C   UNL     1      -5.852   3.761  14.651  0.00  0.00    +0.130 A 
ATOM     23  C   UNL     1      -5.582   5.117  14.540  0.00  0.00    +0.046 A 
ATOM     24  C   UNL     1      -5.122   5.820  15.637  0.00  0.00    +0.004 A 
ATOM     25  C   UNL     1      -4.930   5.173  16.844  0.00  0.00    +0.000 A 
ATOM     26  C   UNL     1      -5.198   3.821  16.956  0.00  0.00    +0.004 A 
ATOM     27  C   UNL     1      -5.664   3.115  15.864  0.00  0.00    +0.046 A 
ENDBRANCH  21  22
ENDBRANCH  18  21
ENDBRANCH  11  15
BRANCH   1  29
ATOM     28  N   UNL     1      -2.393   0.599   3.786  0.00  0.00    -0.315 N 
ATOM     29  C   UNL     1      -2.535   0.184   5.061  0.00  0.00    +0.218 C 
ATOM     30  O   UNL     1      -2.619  -1.000   5.307  0.00  0.00    -0.275 OA
ATOM     31  H   UNL     1      -2.325   1.546   3.589  0.00  0.00    +0.149 HD
BRANCH  28  32
ATOM     32  C   UNL     1      -2.341  -0.381   2.698  0.00  0.00    +0.109 C 
BRANCH  32  33
ATOM     33  C   UNL     1      -2.177   0.347   1.363  0.00  0.00    +0.054 C 
BRANCH  33  40
ATOM     34  C   UNL     1      -4.625  -0.653   0.201  0.00  0.00    +0.044 C 
ATOM     35  C   UNL     1      -3.294  -1.139  -0.312  0.00  0.00    -0.047 A 
ATOM     36  C   UNL     1      -3.244  -2.060  -1.342  0.00  0.00    +0.003 A 
ATOM     37  C   UNL     1      -2.024  -2.506  -1.812  0.00  0.00    +0.000 A 
ATOM     38  C   UNL     1      -0.852  -2.031  -1.253  0.00  0.00    +0.000 A 
ATOM     39  C   UNL     1      -0.901  -1.110  -0.223  0.00  0.00    +0.004 A 
ATOM     40  C   UNL     1      -2.123  -0.661   0.244  0.00  0.00    -0.043 A 
ENDBRANCH  33  40
ENDBRANCH  32  33
ENDBRANCH  28  32
ENDBRANCH   1  29
TORSDOF 7
