REMARK  Name = ZINC09311046
REMARK  7 active torsions:
REMARK  status: ('A' for Active; 'I' for Inactive)
REMARK    1  A    between atoms: C_4  and  C_7
REMARK    2  A    between atoms: C_9  and  C_27
REMARK    3  A    between atoms: C_10  and  C_21
REMARK    4  A    between atoms: N_11  and  C_12
REMARK    5  A    between atoms: C_15  and  N_18
REMARK    6  A    between atoms: N_28  and  N_29
REMARK    7  A    between atoms: C_30  and  C_32
REMARK                            x       y       z     vdW  Elec       q    Type
REMARK                         _______ _______ _______ _____ _____    ______ ____
ROOT
ATOM      1  C   UNL     1      -4.035   5.419   0.403  0.00  0.00    +0.055 A 
ATOM      2  C   UNL     1      -4.512   4.123   0.576  0.00  0.00    +0.038 A 
ATOM      3  C   UNL     1      -3.472   3.242   0.283  0.00  0.00    +0.021 A 
ATOM      4  C   UNL     1      -2.304   4.088  -0.082  0.00  0.00    +0.063 A 
ATOM      5  N   UNL     1      -2.712   5.384   0.005  0.00  0.00    -0.308 N 
ENDROOT
BRANCH   1   9
ATOM      6  C   UNL     1      -6.303   8.948   1.007  0.00  0.00    +0.000 A 
ATOM      7  C   UNL     1      -5.157   8.991   0.227  0.00  0.00    +0.001 A 
ATOM      8  C   UNL     1      -4.414   7.850   0.025  0.00  0.00    +0.010 A 
ATOM      9  C   UNL     1      -4.819   6.640   0.612  0.00  0.00    -0.001 A 
ATOM     10  C   UNL     1      -5.984   6.606   1.396  0.00  0.00    +0.010 A 
ATOM     11  C   UNL     1      -6.710   7.759   1.591  0.00  0.00    +0.001 A 
ENDBRANCH   1   9
BRANCH   5  12
ATOM     12  C   UNL     1      -1.915   6.504  -0.261  0.00  0.00    +0.047 A 
ATOM     13  C   UNL     1      -1.481   6.757  -1.556  0.00  0.00    +0.028 A 
ATOM     14  C   UNL     1      -0.699   7.866  -1.815  0.00  0.00    +0.035 A 
ATOM     15  C   UNL     1      -0.340   8.717  -0.786  0.00  0.00    +0.126 A 
ATOM     16  C   UNL     1      -0.767   8.465   0.504  0.00  0.00    +0.035 A 
ATOM     17  C   UNL     1      -1.554   7.361   0.770  0.00  0.00    +0.028 A 
BRANCH  15  18
ATOM     18  N   UNL     1       0.503   9.901  -1.067  0.00  0.00    +0.056 N 
ATOM     19  O   UNL     1       0.845  10.713  -0.089  0.00  0.00    -0.126 OA
ATOM     20  O   UNL     1       0.910  10.143  -2.296  0.00  0.00    -0.126 OA
ENDBRANCH  15  18
ENDBRANCH   5  12
BRANCH   4  21
ATOM     21  C   UNL     1      -1.018   3.634  -0.452  0.00  0.00    -0.001 A 
ATOM     22  C   UNL     1      -0.869   2.696  -1.495  0.00  0.00    +0.010 A 
ATOM     23  C   UNL     1       0.380   2.269  -1.847  0.00  0.00    +0.001 A 
ATOM     24  C   UNL     1       1.497   2.745  -1.175  0.00  0.00    +0.000 A 
ATOM     25  C   UNL     1       1.362   3.663  -0.143  0.00  0.00    +0.001 A 
ATOM     26  C   UNL     1       0.125   4.109   0.223  0.00  0.00    +0.010 A 
ENDBRANCH   4  21
BRANCH   3  27
ATOM     27  C   UNL     1      -3.516   1.836   0.329  0.00  0.00    +0.140 C 
ATOM     28  N   UNL     1      -4.669   1.210   0.222  0.00  0.00    -0.187 NA
BRANCH  28  29
ATOM     29  N   UNL     1      -5.725   1.860  -0.133  0.00  0.00    -0.203 N 
ATOM     30  C   UNL     1      -6.923   1.242  -0.149  0.00  0.00    +0.263 C 
ATOM     31  O   UNL     1      -7.023   0.101   0.256  0.00  0.00    -0.268 OA
ATOM     32  H   UNL     1      -5.657   2.793  -0.388  0.00  0.00    +0.178 HD
BRANCH  30  33
ATOM     33  C   UNL     1      -8.114   1.954  -0.654  0.00  0.00    +0.038 A 
ATOM     34  C   UNL     1      -8.027   3.301  -1.013  0.00  0.00    +0.013 A 
ATOM     35  C   UNL     1      -9.143   3.958  -1.488  0.00  0.00    +0.001 A 
ATOM     36  C   UNL     1     -10.349   3.289  -1.599  0.00  0.00    +0.000 A 
ATOM     37  C   UNL     1     -10.444   1.956  -1.240  0.00  0.00    +0.001 A 
ATOM     38  C   UNL     1      -9.335   1.285  -0.769  0.00  0.00    +0.013 A 
ENDBRANCH  30  33
ENDBRANCH  28  29
ENDBRANCH   3  27
TORSDOF 7
