REMARK  Name = ZINC61037441
REMARK  6 active torsions:
REMARK  status: ('A' for Active; 'I' for Inactive)
REMARK    1  A    between atoms: C_1  and  O_2
REMARK    2  A    between atoms: O_2  and  C_3
REMARK    3  A    between atoms: C_7  and  O_9
REMARK    4  A    between atoms: O_9  and  C_10
REMARK    5  A    between atoms: C_10  and  C_12
REMARK    6  A    between atoms: C_15  and  C_17
REMARK                            x       y       z     vdW  Elec       q    Type
REMARK                         _______ _______ _______ _____ _____    ______ ____
ROOT
ATOM      1  C   UNL     1      -0.924  -4.827  -0.493  0.00  0.00    +0.359 C 
ATOM      2  O   UNL     1      -0.890  -4.364  -1.616  0.00  0.00    -0.243 OA
ENDROOT
BRANCH   1   3
ATOM      3  C   UNL     1      -1.541  -6.142  -0.257  0.00  0.00    +0.155 A 
ATOM      4  C   UNL     1      -2.082  -6.862  -1.303  0.00  0.00    +0.082 A 
ATOM      5  S   UNL     1      -2.643  -8.250  -0.535  0.00  0.00    -0.075 S 
ATOM      6  C   UNL     1      -2.151  -7.839   1.129  0.00  0.00    +0.109 A 
ATOM      7  N   UNL     1      -1.584  -6.659   0.963  0.00  0.00    -0.232 NA
BRANCH   6   8
ATOM      8  C   UNL     1      -2.329  -8.620   2.373  0.00  0.00    +0.007 A 
ATOM      9  C   UNL     1      -1.872  -8.113   3.590  0.00  0.00    +0.010 A 
ATOM     10  C   UNL     1      -2.041  -8.846   4.747  0.00  0.00    +0.001 A 
ATOM     11  C   UNL     1      -2.661 -10.082   4.701  0.00  0.00    +0.000 A 
ATOM     12  C   UNL     1      -3.115 -10.591   3.498  0.00  0.00    +0.001 A 
ATOM     13  C   UNL     1      -2.958  -9.865   2.335  0.00  0.00    +0.010 A 
ENDBRANCH   6   8
ENDBRANCH   1   3
BRANCH   1  14
ATOM     14  O   UNL     1      -0.395  -4.136   0.537  0.00  0.00    -0.457 OA
BRANCH  14  19
ATOM     15  C   UNL     1       0.673  -0.582   1.123  0.00  0.00    +0.121 C 
ATOM     16  C   UNL     1       2.155  -0.768   0.790  0.00  0.00    +0.032 C 
ATOM     17  C   UNL     1       2.294  -1.693  -0.420  0.00  0.00    +0.006 C 
ATOM     18  C   UNL     1       1.670  -3.052  -0.098  0.00  0.00    +0.045 C 
ATOM     19  C   UNL     1       0.188  -2.867   0.235  0.00  0.00    +0.179 C 
ATOM     20  C   UNL     1       0.049  -1.942   1.446  0.00  0.00    +0.076 C 
BRANCH  15  22
ATOM     21  C   UNL     1      -0.017   1.425   0.010  0.00  0.00    +0.194 C 
ATOM     22  O   UNL     1       0.002  -0.004   0.002  0.00  0.00    -0.380 OA
ENDBRANCH  15  22
ENDBRANCH  14  19
ENDBRANCH   1  14
TORSDOF 5
