REMARK  Name = ZINC39696502
REMARK  11 active torsions:
REMARK  status: ('A' for Active; 'I' for Inactive)
REMARK    1  A    between atoms: C_1  and  C_2
REMARK    2  A    between atoms: C_2  and  C_3
REMARK    3  A    between atoms: C_2  and  C_4
REMARK    4  A    between atoms: C_2  and  S_5
REMARK    5  A    between atoms: S_5  and  C_6
REMARK    6  A    between atoms: C_6  and  C_7
REMARK    7  A    between atoms: C_7  and  N_8
REMARK    8  A    between atoms: C_9  and  C_11
REMARK    9  A    between atoms: C_22  and  C_24
REMARK   10  A    between atoms: C_29  and  O_30
REMARK   11  A    between atoms: O_30  and  C_31
REMARK                            x       y       z     vdW  Elec       q    Type
REMARK                         _______ _______ _______ _____ _____    ______ ____
ROOT
ATOM      1  C   UNL     1       7.396   0.473  -2.934  0.00  0.00    +0.100 C 
ATOM      2  C   UNL     1       7.164   1.978  -3.194  0.00  0.00    +0.121 C 
ATOM      3  N   UNL     1       8.288   2.385  -4.070  0.00  0.00    -0.296 N 
ATOM      4  C   UNL     1       8.462   1.243  -5.000  0.00  0.00    +0.115 C 
ATOM      5  C   UNL     1       8.248  -0.006  -4.122  0.00  0.00    -0.004 C 
ATOM      6  C   UNL     1       7.503  -1.081  -4.908  0.00  0.00    -0.010 C 
ATOM      7  C   UNL     1       8.393  -1.582  -6.048  0.00  0.00    -0.082 C 
ATOM      8  N   UNL     1       9.639  -2.127  -5.496  0.00  0.00    +0.379 N 
ATOM      9  C   UNL     1      10.394  -1.065  -4.822  0.00  0.00    -0.082 C 
ATOM     10  C   UNL     1       9.589  -0.541  -3.629  0.00  0.00    -0.010 C 
ATOM     11  C   UNL     1       8.992   3.533  -4.030  0.00  0.00    +0.252 C 
ATOM     12  O   UNL     1       9.829   3.763  -4.882  0.00  0.00    -0.270 OA
ATOM     13  H   UNL     1       9.421  -2.856  -4.833  0.00  0.00    -0.086 HD
ATOM     14  H   UNL     1      10.197  -2.512  -6.244  0.00  0.00    -0.086 HD
ENDROOT
BRANCH  11  15
ATOM     15  C   UNL     1       8.747   4.512  -2.954  0.00  0.00    +0.099 A 
ATOM     16  C   UNL     1       7.459   4.697  -2.438  0.00  0.00    +0.020 A 
ATOM     17  C   UNL     1       7.282   5.627  -1.429  0.00  0.00    +0.021 A 
ATOM     18  C   UNL     1       8.373   6.340  -0.963  0.00  0.00    +0.114 A 
ATOM     19  N   UNL     1       9.578   6.150  -1.463  0.00  0.00    -0.220 NA
ATOM     20  C   UNL     1       9.803   5.270  -2.424  0.00  0.00    +0.233 A 
BRANCH  20  21
ATOM     21  O   UNL     1      11.058   5.103  -2.904  0.00  0.00    -0.437 OA
BRANCH  21  22
ATOM     22  C   UNL     1      12.035   5.923  -2.434  0.00  0.00    +0.130 A 
ATOM     23  C   UNL     1      12.607   5.681  -1.194  0.00  0.00    +0.048 A 
ATOM     24  C   UNL     1      13.600   6.515  -0.718  0.00  0.00    +0.023 A 
ATOM     25  C   UNL     1      14.024   7.592  -1.477  0.00  0.00    +0.041 A 
ATOM     26  C   UNL     1      13.454   7.835  -2.715  0.00  0.00    +0.023 A 
ATOM     27  C   UNL     1      12.465   7.000  -3.197  0.00  0.00    +0.048 A 
ATOM     28 CL   UNL     1      15.271   8.639  -0.877  0.00  0.00    -0.084 Cl
ENDBRANCH  21  22
ENDBRANCH  20  21
ENDBRANCH  11  15
BRANCH   1  30
ATOM     29  N   UNL     1       5.966  -1.405  -2.195  0.00  0.00    -0.314 N 
ATOM     30  C   UNL     1       6.082  -0.263  -2.901  0.00  0.00    +0.218 C 
ATOM     31  O   UNL     1       5.128   0.172  -3.510  0.00  0.00    -0.275 OA
ATOM     32  H   UNL     1       6.730  -1.753  -1.708  0.00  0.00    +0.149 HD
BRANCH  29  33
ATOM     33  C   UNL     1       4.689  -2.121  -2.162  0.00  0.00    +0.115 C 
BRANCH  33  34
ATOM     34  C   UNL     1       4.828  -3.374  -1.296  0.00  0.00    +0.088 C 
BRANCH  34  35
ATOM     35  S   UNL     1       3.245  -4.260  -1.256  0.00  0.00    -0.153 S 
BRANCH  35  37
ATOM     36  C   UNL     1       4.006  -5.228   1.186  0.00  0.00    +0.022 C 
ATOM     37  C   UNL     1       3.575  -5.700  -0.204  0.00  0.00    +0.008 C 
ATOM     38  C   UNL     1       4.691  -6.542  -0.826  0.00  0.00    +0.022 C 
ATOM     39  C   UNL     1       2.305  -6.546  -0.084  0.00  0.00    +0.022 C 
ENDBRANCH  35  37
ENDBRANCH  34  35
ENDBRANCH  33  34
ENDBRANCH  29  33
ENDBRANCH   1  30
TORSDOF 8
