REMARK  Name = ZINC21913550
REMARK  8 active torsions:
REMARK  status: ('A' for Active; 'I' for Inactive)
REMARK    1  A    between atoms: C_1  and  C_2
REMARK    2  A    between atoms: C_3  and  C_25
REMARK    3  A    between atoms: C_12  and  C_15
REMARK    4  A    between atoms: N_17  and  C_18
REMARK    5  A    between atoms: C_18  and  C_19
REMARK    6  A    between atoms: C_28  and  C_31
REMARK    7  A    between atoms: C_31  and  C_32
REMARK    8  A    between atoms: C_31  and  C_33
REMARK                            x       y       z     vdW  Elec       q    Type
REMARK                         _______ _______ _______ _____ _____    ______ ____
ROOT
ATOM      1  C   UNL     1      -2.364   0.088   0.338  0.00  0.00    +0.049 C 
ATOM      2  C   UNL     1      -1.073  -0.667   0.155  0.00  0.00    +0.018 C 
ATOM      3  C   UNL     1      -0.706  -1.205  -1.030  0.00  0.00    +0.126 C 
ATOM      4  S   UNL     1       0.863  -1.947  -0.629  0.00  0.00    +0.101 S 
ATOM      5  O   UNL     1       0.710  -3.357  -0.713  0.00  0.00    -0.146 OA
ATOM      6  O   UNL     1       1.873  -1.225  -1.321  0.00  0.00    -0.146 OA
ATOM      7  N   UNL     1       0.963  -1.540   0.992  0.00  0.00    -0.113 NA
ATOM      8  C   UNL     1      -0.127  -0.869   1.235  0.00  0.00    +0.148 C 
ATOM      9  N   UNL     1      -0.379  -0.365   2.495  0.00  0.00    -0.314 N 
ATOM     10  C   UNL     1      -1.092   0.909   2.664  0.00  0.00    +0.107 C 
ATOM     11  C   UNL     1      -0.249   1.832   3.550  0.00  0.00    +0.031 C 
ATOM     12  C   UNL     1       0.077   1.115   4.862  0.00  0.00    +0.078 C 
ATOM     13  C   UNL     1       0.891  -0.147   4.568  0.00  0.00    +0.031 C 
ATOM     14  C   UNL     1       0.056  -1.095   3.694  0.00  0.00    +0.107 C 
ENDROOT
BRANCH   3  15
ATOM     15  C   UNL     1      -1.418  -1.184  -2.319  0.00  0.00    +0.002 A 
ATOM     16  C   UNL     1      -2.231  -0.098  -2.655  0.00  0.00    +0.010 A 
ATOM     17  C   UNL     1      -2.895  -0.085  -3.863  0.00  0.00    +0.004 A 
ATOM     18  C   UNL     1      -2.759  -1.145  -4.743  0.00  0.00    -0.045 A 
ATOM     19  C   UNL     1      -1.956  -2.224  -4.417  0.00  0.00    +0.004 A 
ATOM     20  C   UNL     1      -1.281  -2.248  -3.215  0.00  0.00    +0.010 A 
BRANCH  18  21
ATOM     21  C   UNL     1      -3.488  -1.123  -6.061  0.00  0.00    +0.013 C 
ATOM     22  C   UNL     1      -2.475  -1.191  -7.206  0.00  0.00    +0.012 C 
ATOM     23  C   UNL     1      -4.431  -2.325  -6.142  0.00  0.00    +0.012 C 
ENDBRANCH  18  21
ENDBRANCH   3  15
BRANCH  12  24
ATOM     24  C   UNL     1       0.877   2.033   5.750  0.00  0.00    +0.216 C 
ATOM     25  O   UNL     1       1.159   3.150   5.371  0.00  0.00    -0.276 OA
ATOM     26  N   UNL     1       1.280   1.613   6.966  0.00  0.00    -0.313 N 
ATOM     27  H   UNL     1       1.054   0.720   7.269  0.00  0.00    +0.149 HD
BRANCH  26  28
ATOM     28  C   UNL     1       2.057   2.505   7.829  0.00  0.00    +0.135 C 
BRANCH  28  29
ATOM     29  C   UNL     1       2.383   1.789   9.141  0.00  0.00    +0.135 C 
ATOM     30  C   UNL     1       3.177   2.729  10.084  0.00  0.00    +0.035 C 
ATOM     31  C   UNL     1       2.835   2.115  11.468  0.00  0.00    +0.031 C 
ATOM     32  C   UNL     1       1.384   1.628  11.261  0.00  0.00    +0.160 C 
ATOM     33  O   UNL     1       1.175   1.475   9.851  0.00  0.00    -0.375 OA
ENDBRANCH  28  29
ENDBRANCH  26  28
ENDBRANCH  12  24
TORSDOF 5
