REMARK  Name = ZINC09078181
REMARK  9 active torsions:
REMARK  status: ('A' for Active; 'I' for Inactive)
REMARK    1  A    between atoms: C_1  and  C_2
REMARK    2  A    between atoms: C_2  and  O_3
REMARK    3  A    between atoms: O_3  and  C_4
REMARK    4  A    between atoms: C_4  and  C_6
REMARK    5  A    between atoms: C_6  and  N_7
REMARK    6  A    between atoms: C_11  and  N_31
REMARK    7  A    between atoms: N_16  and  C_17
REMARK    8  A    between atoms: C_17  and  C_19
REMARK    9  A    between atoms: C_23  and  N_28
REMARK                            x       y       z     vdW  Elec       q    Type
REMARK                         _______ _______ _______ _____ _____    ______ ____
ROOT
ATOM      1  N   UNL     1       2.459   4.259   0.158  0.00  0.00    -0.310 N 
ATOM      2  C   UNL     1       1.290   3.708   0.651  0.00  0.00    +0.058 A 
ATOM      3  C   UNL     1       1.068   2.373   1.034  0.00  0.00    +0.029 A 
ATOM      4  C   UNL     1      -0.156   1.971   1.509  0.00  0.00    +0.035 A 
ATOM      5  C   UNL     1      -1.212   2.861   1.622  0.00  0.00    +0.127 A 
ATOM      6  C   UNL     1      -1.021   4.182   1.258  0.00  0.00    +0.050 A 
ATOM      7  C   UNL     1       0.204   4.585   0.783  0.00  0.00    +0.041 A 
ATOM      8  S   UNL     1       0.858   6.136   0.215  0.00  0.00    -0.052 S 
ATOM      9  C   UNL     1       2.511   5.582  -0.169  0.00  0.00    +0.167 A 
ATOM     10  N   UNL     1       3.532   6.280  -0.652  0.00  0.00    -0.152 NA
ENDROOT
BRANCH   5  11
ATOM     11  N   UNL     1      -2.525   2.405   2.132  0.00  0.00    +0.056 N 
ATOM     12  O   UNL     1      -2.683   1.241   2.454  0.00  0.00    -0.126 OA
ATOM     13  O   UNL     1      -3.448   3.194   2.228  0.00  0.00    -0.126 OA
ENDBRANCH   5  11
BRANCH  10  14
ATOM     14  C   UNL     1       3.386   7.585  -0.914  0.00  0.00    +0.276 C 
ATOM     15  O   UNL     1       2.315   8.132  -0.710  0.00  0.00    -0.267 OA
BRANCH  14  16
ATOM     16  C   UNL     1       4.520   8.360  -1.450  0.00  0.00    +0.077 A 
ATOM     17  C   UNL     1       4.565   9.678  -1.775  0.00  0.00    +0.029 A 
ATOM     18  C   UNL     1       5.755  10.237  -2.276  0.00  0.00    -0.008 A 
ATOM     19  C   UNL     1       5.998  11.579  -2.668  0.00  0.00    +0.041 A 
ATOM     20  C   UNL     1       7.216  11.956  -3.135  0.00  0.00    +0.127 A 
ATOM     21  C   UNL     1       8.265  11.052  -3.248  0.00  0.00    +0.034 A 
ATOM     22  C   UNL     1       8.072   9.736  -2.878  0.00  0.00    +0.018 A 
ATOM     23  C   UNL     1       6.841   9.339  -2.401  0.00  0.00    +0.020 A 
ATOM     24  S   UNL     1       6.172   7.800  -1.823  0.00  0.00    -0.084 S 
BRANCH  20  25
ATOM     25  N   UNL     1       7.431  13.365  -3.535  0.00  0.00    +0.056 N 
ATOM     26  O   UNL     1       8.517  13.719  -3.957  0.00  0.00    -0.126 OA
ATOM     27  O   UNL     1       6.521  14.170  -3.443  0.00  0.00    -0.126 OA
ENDBRANCH  20  25
ENDBRANCH  14  16
ENDBRANCH  10  14
BRANCH   1  28
ATOM     28  C   UNL     1       3.646   3.419  -0.014  0.00  0.00    +0.244 C 
BRANCH  28  29
ATOM     29  C   UNL     1       4.333   3.777  -1.306  0.00  0.00    +0.327 C 
ATOM     30  O   UNL     1       3.795   4.523  -2.090  0.00  0.00    -0.249 OA
BRANCH  29  31
ATOM     31  O   UNL     1       5.543   3.269  -1.587  0.00  0.00    -0.464 OA
BRANCH  31  33
ATOM     32  C   UNL     1       7.511   2.984  -2.993  0.00  0.00    +0.048 C 
ATOM     33  C   UNL     1       6.145   3.658  -2.850  0.00  0.00    +0.229 C 
ENDBRANCH  31  33
ENDBRANCH  29  31
ENDBRANCH  28  29
ENDBRANCH   1  28
TORSDOF 8
