REMARK  Name = ZINC39732875
REMARK  6 active torsions:
REMARK  status: ('A' for Active; 'I' for Inactive)
REMARK    1  A    between atoms: C_7  and  C_10
REMARK    2  A    between atoms: C_13  and  S_19
REMARK    3  A    between atoms: N_15  and  C_16
REMARK    4  A    between atoms: S_19  and  C_20
REMARK    5  A    between atoms: C_20  and  C_21
REMARK    6  A    between atoms: N_23  and  N_24
REMARK                            x       y       z     vdW  Elec       q    Type
REMARK                         _______ _______ _______ _____ _____    ______ ____
ROOT
ATOM      1  C   UNL     1       0.684  -3.156   0.163  0.00  0.00    +0.147 C 
ATOM      2  N   UNL     1      -0.617  -3.037   0.207  0.00  0.00    -0.169 NA
ATOM      3  N   UNL     1      -1.248  -4.260  -0.049  0.00  0.00    -0.237 N 
ATOM      4  C   UNL     1      -0.177  -5.244  -0.278  0.00  0.00    +0.237 C 
ATOM      5  N   UNL     1       1.065  -4.467  -0.133  0.00  0.00    -0.282 N 
ATOM      6  H   UNL     1      -2.204  -4.426  -0.072  0.00  0.00    +0.171 HD
ENDROOT
BRANCH   1  13
ATOM      7  C   UNL     1       0.051   1.157   1.420  0.00  0.00    +0.001 A 
ATOM      8  C   UNL     1       1.236   1.889   1.521  0.00  0.00    +0.002 A 
ATOM      9  C   UNL     1       2.445   1.333   1.260  0.00  0.00    +0.026 A 
ATOM     10  C   UNL     1       2.526  -0.029   0.874  0.00  0.00    +0.043 A 
ATOM     11  N   UNL     1       3.560  -0.790   0.571  0.00  0.00    -0.380 N 
ATOM     12  C   UNL     1       3.088  -2.137   0.237  0.00  0.00    +0.152 C 
ATOM     13  C   UNL     1       1.583  -2.100   0.379  0.00  0.00    +0.022 C 
ATOM     14  C   UNL     1       1.274  -0.796   0.769  0.00  0.00    +0.006 A 
ATOM     15  C   UNL     1       0.053  -0.151   1.056  0.00  0.00    +0.010 A 
ATOM     16  H   UNL     1       4.487  -0.504   0.570  0.00  0.00    +0.160 HD
ENDBRANCH   1  13
BRANCH   5  17
ATOM     17  C   UNL     1       2.434  -4.971  -0.270  0.00  0.00    +0.078 C 
ATOM     18  C   UNL     1       2.610  -6.431  -0.694  0.00  0.00    +0.024 C 
ATOM     19  C   UNL     1       2.909  -6.011   0.747  0.00  0.00    +0.024 C 
ENDBRANCH   5  17
BRANCH   4  20
ATOM     20  S   UNL     1      -0.257  -6.567   0.960  0.00  0.00    -0.109 S 
BRANCH  20  21
ATOM     21  C   UNL     1      -0.092  -5.698   2.543  0.00  0.00    +0.169 C 
BRANCH  21  22
ATOM     22  C   UNL     1      -0.143  -6.696   3.672  0.00  0.00    +0.240 C 
ATOM     23  O   UNL     1      -0.278  -7.877   3.431  0.00  0.00    -0.273 OA
ATOM     24  N   UNL     1      -0.040  -6.275   4.948  0.00  0.00    -0.223 N 
ATOM     25  H   UNL     1       0.068  -5.331   5.141  0.00  0.00    +0.174 HD
BRANCH  24  26
ATOM     26  N   UNL     1      -0.087  -7.203   5.997  0.00  0.00    -0.137 N 
ATOM     27  C   UNL     1      -1.154  -7.382   6.803  0.00  0.00    +0.263 C 
ATOM     28  O   UNL     1      -2.214  -6.795   6.759  0.00  0.00    -0.271 OA
ATOM     29  C   UNL     1      -0.751  -8.471   7.771  0.00  0.00    +0.114 C 
ATOM     30  C   UNL     1      -0.772  -7.944   9.202  0.00  0.00    +0.035 C 
ATOM     31  C   UNL     1      -0.332  -9.052  10.162  0.00  0.00    +0.003 C 
ATOM     32  C   UNL     1      -1.275 -10.248  10.027  0.00  0.00    +0.000 C 
ATOM     33  C   UNL     1      -1.225 -10.780   8.593  0.00  0.00    +0.003 C 
ATOM     34  C   UNL     1      -1.669  -9.679   7.626  0.00  0.00    +0.035 C 
ATOM     35  N   UNL     1       0.619  -8.815   7.370  0.00  0.00    -0.284 N 
ATOM     36  C   UNL     1       0.919  -8.024   6.321  0.00  0.00    +0.326 C 
ATOM     37  O   UNL     1       1.984  -8.052   5.736  0.00  0.00    -0.251 OA
ATOM     38  H   UNL     1       1.194  -9.481   7.777  0.00  0.00    +0.151 HD
ENDBRANCH  24  26
ENDBRANCH  21  22
ENDBRANCH  20  21
ENDBRANCH   4  20
TORSDOF 6
