REMARK  Name = ZINC39515621
REMARK  6 active torsions:
REMARK  status: ('A' for Active; 'I' for Inactive)
REMARK    1  A    between atoms: C_7  and  N_12
REMARK    2  A    between atoms: C_13  and  C_15
REMARK    3  A    between atoms: C_20  and  S_21
REMARK    4  A    between atoms: S_21  and  C_22
REMARK    5  A    between atoms: C_22  and  C_23
REMARK    6  A    between atoms: N_25  and  C_26
REMARK                            x       y       z     vdW  Elec       q    Type
REMARK                         _______ _______ _______ _____ _____    ______ ____
ROOT
ATOM      1  C   UNL     1      -2.145  -3.274   1.434  0.00  0.00    +0.050 A 
ATOM      2  C   UNL     1      -1.796  -3.622   2.741  0.00  0.00    +0.014 A 
ATOM      3  C   UNL     1      -2.761  -4.078   3.612  0.00  0.00    +0.001 A 
ATOM      4  C   UNL     1      -4.080  -4.194   3.199  0.00  0.00    +0.001 A 
ATOM      5  C   UNL     1      -4.441  -3.854   1.911  0.00  0.00    +0.015 A 
ATOM      6  C   UNL     1      -3.482  -3.386   1.020  0.00  0.00    +0.020 A 
ENDROOT
BRANCH   1   8
ATOM      7  N   UNL     1       0.165  -2.679   0.899  0.00  0.00    -0.304 N 
ATOM      8  C   UNL     1      -1.117  -2.785   0.497  0.00  0.00    +0.246 C 
ATOM      9  O   UNL     1      -1.426  -2.478  -0.639  0.00  0.00    -0.270 OA
ATOM     10  H   UNL     1       0.411  -2.925   1.804  0.00  0.00    +0.150 HD
BRANCH   7  17
ATOM     11  C   UNL     1      -0.017   1.377   0.010  0.00  0.00    +0.001 A 
ATOM     12  C   UNL     1       1.172   2.084   0.002  0.00  0.00    +0.004 A 
ATOM     13  C   UNL     1       2.375   1.409  -0.011  0.00  0.00    +0.046 A 
ATOM     14  C   UNL     1       2.398   0.018  -0.018  0.00  0.00    +0.125 A 
ATOM     15  C   UNL     1       1.207  -0.687  -0.014  0.00  0.00    +0.014 A 
ATOM     16  C   UNL     1       0.002  -0.004   0.002  0.00  0.00    +0.009 A 
ATOM     17  C   UNL     1       1.187  -2.194  -0.033  0.00  0.00    +0.110 C 
ATOM     18  C   UNL     1       2.556  -2.734   0.389  0.00  0.00    +0.068 C 
ATOM     19  C   UNL     1       3.634  -1.986  -0.407  0.00  0.00    +0.231 C 
ATOM     20  O   UNL     1       3.602  -0.610  -0.025  0.00  0.00    -0.492 OA
ENDBRANCH   7  17
ENDBRANCH   1   8
BRANCH   6  21
ATOM     21  S   UNL     1      -3.941  -2.943  -0.623  0.00  0.00    -0.115 S 
BRANCH  21  22
ATOM     22  C   UNL     1      -5.728  -3.253  -0.677  0.00  0.00    +0.170 C 
BRANCH  22  23
ATOM     23  C   UNL     1      -6.255  -2.910  -2.047  0.00  0.00    +0.224 C 
ATOM     24  O   UNL     1      -5.500  -2.498  -2.902  0.00  0.00    -0.275 OA
ATOM     25  N   UNL     1      -7.566  -3.062  -2.322  0.00  0.00    -0.309 N 
ATOM     26  H   UNL     1      -8.170  -3.392  -1.638  0.00  0.00    +0.149 HD
BRANCH  25  27
ATOM     27  C   UNL     1      -8.079  -2.729  -3.653  0.00  0.00    +0.035 C 
ATOM     28  C   UNL     1      -7.378  -3.596  -4.701  0.00  0.00    +0.029 C 
ATOM     29  C   UNL     1      -7.914  -3.248  -6.091  0.00  0.00    -0.008 C 
ATOM     30  C   UNL     1      -9.421  -3.510  -6.138  0.00  0.00    +0.007 C 
ATOM     31  C   UNL     1     -10.121  -2.642  -5.090  0.00  0.00    -0.008 C 
ATOM     32  C   UNL     1      -9.585  -2.990  -3.699  0.00  0.00    +0.029 C 
ATOM     33  C   UNL     1      -9.850  -1.166  -5.386  0.00  0.00    +0.007 C 
ATOM     34  C   UNL     1      -8.343  -0.905  -5.340  0.00  0.00    -0.008 C 
ATOM     35  C   UNL     1      -7.643  -1.772  -6.388  0.00  0.00    +0.007 C 
ATOM     36  C   UNL     1      -7.808  -1.253  -3.949  0.00  0.00    +0.029 C 
ENDBRANCH  25  27
ENDBRANCH  22  23
ENDBRANCH  21  22
ENDBRANCH   6  21
TORSDOF 6
