REMARK  Name = ZINC54928811
REMARK  6 active torsions:
REMARK  status: ('A' for Active; 'I' for Inactive)
REMARK    1  A    between atoms: C_1  and  C_2
REMARK    2  A    between atoms: C_2  and  C_3
REMARK    3  A    between atoms: C_2  and  C_4
REMARK    4  A    between atoms: C_4  and  C_5
REMARK    5  A    between atoms: C_7  and  C_11
REMARK    6  A    between atoms: C_7  and  C_12
REMARK                            x       y       z     vdW  Elec       q    Type
REMARK                         _______ _______ _______ _____ _____    ______ ____
ROOT
ATOM      1  C   UNL     1      -2.135  -0.131  -1.286  0.00  0.00    -0.061 C 
ATOM      2  C   UNL     1      -3.617  -0.558  -1.236  0.00  0.00    -0.015 C 
ATOM      3  C   UNL     1      -3.894  -1.032  -2.687  0.00  0.00    -0.009 C 
ATOM      4  C   UNL     1      -2.541  -1.685  -3.066  0.00  0.00    -0.081 C 
ATOM      5  N   UNL     1      -1.515  -0.827  -2.428  0.00  0.00    +0.382 N 
ATOM      6  C   UNL     1      -3.816  -1.707  -0.245  0.00  0.00    +0.015 C 
ATOM      7  H   UNL     1      -1.173  -0.150  -3.093  0.00  0.00    -0.085 HD
ATOM      8  H   UNL     1      -0.749  -1.398  -2.102  0.00  0.00    -0.085 HD
ENDROOT
BRANCH   2   9
ATOM      9  C   UNL     1      -4.497   0.612  -0.880  0.00  0.00    -0.005 A 
ATOM     10  C   UNL     1      -5.844   0.653  -0.731  0.00  0.00    +0.013 A 
ATOM     11  C   UNL     1      -6.446   1.852  -0.397  0.00  0.00    +0.023 A 
ATOM     12  C   UNL     1      -5.670   2.952  -0.230  0.00  0.00    +0.055 A 
ATOM     13  S   UNL     1      -4.036   2.302  -0.538  0.00  0.00    -0.086 S 
ATOM     14 BR   UNL     1      -6.185   4.715   0.221  0.00  0.00    -0.043 Br
ENDBRANCH   2   9
BRANCH   1  15
ATOM     15  C   UNL     1      -1.433  -0.534   0.013  0.00  0.00    -0.012 C 
BRANCH  15  17
ATOM     16  C   UNL     1      -0.019   1.526   0.010  0.00  0.00    +0.007 C 
ATOM     17  C   UNL     1       0.002  -0.004   0.002  0.00  0.00    -0.019 C 
ATOM     18  C   UNL     1       0.742  -0.511   1.242  0.00  0.00    +0.007 C 
ENDBRANCH  15  17
ENDBRANCH   1  15
TORSDOF 3
