REMARK  Name = ZINC08727721
REMARK  8 active torsions:
REMARK  status: ('A' for Active; 'I' for Inactive)
REMARK    1  A    between atoms: C_6  and  N_7
REMARK    2  A    between atoms: N_7  and  C_8
REMARK    3  A    between atoms: C_8  and  C_9
REMARK    4  A    between atoms: C_9  and  C_10
REMARK    5  A    between atoms: C_13  and  C_15
REMARK    6  A    between atoms: C_15  and  N_63
REMARK    7  A    between atoms: N_18  and  S_21
REMARK    8  A    between atoms: S_21  and  C_24
REMARK                            x       y       z     vdW  Elec       q    Type
REMARK                         _______ _______ _______ _____ _____    ______ ____
ROOT
ATOM      1  C   UNL     1      -2.752   1.749   3.442  0.00  0.00    -0.061 C 
ATOM      2  C   UNL     1      -3.153   1.327   2.024  0.00  0.00    +0.091 C 
ATOM      3  N   UNL     1      -2.092   0.470   1.474  0.00  0.00    -0.180 NA
ATOM      4  C   UNL     1      -1.638  -0.677   2.276  0.00  0.00    +0.091 C 
ATOM      5  C   UNL     1      -1.293  -0.173   3.686  0.00  0.00    -0.061 C 
ATOM      6  N   UNL     1      -2.470   0.534   4.237  0.00  0.00    +0.387 N 
ATOM      7  H   UNL     1      -3.284  -0.090   4.191  0.00  0.00    -0.081 HD
ENDROOT
BRANCH   3   8
ATOM      8  S   UNL     1      -1.430   0.784  -0.011  0.00  0.00    +0.061 S 
ATOM      9  O   UNL     1      -2.398   1.528  -0.738  0.00  0.00    -0.153 OA
ATOM     10  O   UNL     1      -0.899  -0.446  -0.487  0.00  0.00    -0.153 OA
BRANCH   8  11
ATOM     11  C   UNL     1      -0.058   1.858   0.246  0.00  0.00    +0.106 A 
ATOM     12  C   UNL     1       1.201   1.332   0.468  0.00  0.00    +0.029 A 
ATOM     13  C   UNL     1       2.276   2.176   0.664  0.00  0.00    +0.006 A 
ATOM     14  C   UNL     1       2.097   3.550   0.644  0.00  0.00    -0.044 A 
ATOM     15  C   UNL     1       0.837   4.076   0.428  0.00  0.00    -0.042 A 
ATOM     16  C   UNL     1      -0.240   3.227   0.233  0.00  0.00    +0.032 A 
ATOM     17  C   UNL     1       0.903   5.588   0.453  0.00  0.00    +0.036 C 
ATOM     18  C   UNL     1       2.397   5.930   0.270  0.00  0.00    +0.009 C 
ATOM     19  C   UNL     1       3.095   4.672   0.829  0.00  0.00    +0.036 C 
ENDBRANCH   8  11
ENDBRANCH   3   8
BRANCH   6  20
ATOM     20  C   UNL     1      -2.224   0.900   5.647  0.00  0.00    +0.019 C 
BRANCH  20  22
ATOM     21  N   UNL     1      -1.959  -0.286   7.801  0.00  0.00    -0.272 N 
ATOM     22  C   UNL     1      -2.157  -0.360   6.470  0.00  0.00    +0.203 C 
ATOM     23  O   UNL     1      -2.282  -1.442   5.935  0.00  0.00    -0.277 OA
BRANCH  21  29
ATOM     24  C   UNL     1      -3.195  -2.130   8.754  0.00  0.00    +0.026 A 
ATOM     25  C   UNL     1      -3.229  -3.280   9.518  0.00  0.00    +0.040 A 
ATOM     26  C   UNL     1      -2.074  -3.746  10.122  0.00  0.00    +0.124 A 
ATOM     27  C   UNL     1      -0.880  -3.064   9.956  0.00  0.00    +0.040 A 
ATOM     28  C   UNL     1      -0.840  -1.917   9.188  0.00  0.00    +0.026 A 
ATOM     29  C   UNL     1      -1.998  -1.448   8.581  0.00  0.00    +0.036 A 
ATOM     30  F   UNL     1      -2.111  -4.868  10.874  0.00  0.00    -0.205 F 
ENDBRANCH  21  29
BRANCH  21  31
ATOM     31  C   UNL     1      -1.703   1.012   8.432  0.00  0.00    +0.123 C 
BRANCH  31  32
ATOM     32  C   UNL     1      -3.031   1.645   8.853  0.00  0.00    +0.115 C 
BRANCH  32  33
ATOM     33  C   UNL     1      -2.768   2.979   9.502  0.00  0.00    +0.212 C 
ATOM     34  O   UNL     1      -1.630   3.384   9.617  0.00  0.00    -0.276 OA
ATOM     35  N   UNL     1      -3.797   3.723   9.955  0.00  0.00    -0.329 N 
ATOM     36  H   UNL     1      -4.706   3.399   9.863  0.00  0.00    +0.145 HD
ATOM     37  H   UNL     1      -3.627   4.582  10.373  0.00  0.00    +0.145 HD
ENDBRANCH  32  33
ENDBRANCH  31  32
ENDBRANCH  21  31
ENDBRANCH  20  22
ENDBRANCH   6  20
TORSDOF 8
