REMARK  Name = ZINC08608628
REMARK  6 active torsions:
REMARK  status: ('A' for Active; 'I' for Inactive)
REMARK    1  A    between atoms: C_1  and  C_2
REMARK    2  A    between atoms: C_5  and  S_9
REMARK    3  A    between atoms: C_7  and  C_8
REMARK    4  A    between atoms: S_9  and  N_12
REMARK    5  A    between atoms: N_12  and  C_13
REMARK    6  A    between atoms: C_23  and  C_25
REMARK                            x       y       z     vdW  Elec       q    Type
REMARK                         _______ _______ _______ _____ _____    ______ ____
ROOT
ATOM      1  C   UNL     1       2.708  -4.603   1.060  0.00  0.00    +0.048 A 
ATOM      2  C   UNL     1       2.216  -3.654   1.947  0.00  0.00    +0.026 A 
ATOM      3  C   UNL     1       2.942  -3.325   3.072  0.00  0.00    +0.025 A 
ATOM      4  C   UNL     1       4.164  -3.941   3.320  0.00  0.00    +0.040 A 
ATOM      5  C   UNL     1       4.656  -4.891   2.439  0.00  0.00    -0.024 A 
ATOM      6  C   UNL     1       3.923  -5.223   1.311  0.00  0.00    +0.030 A 
ATOM      7  C   UNL     1       5.970  -5.585   2.683  0.00  0.00    +0.038 C 
ATOM      8  C   UNL     1       6.836  -4.769   3.642  0.00  0.00    +0.024 C 
ATOM      9  C   UNL     1       6.011  -4.431   4.891  0.00  0.00    +0.114 C 
ATOM     10  N   UNL     1       4.886  -3.585   4.470  0.00  0.00    -0.267 N 
ATOM     11  C   UNL     1       4.554  -2.486   5.175  0.00  0.00    +0.257 C 
ATOM     12  O   UNL     1       3.697  -1.730   4.756  0.00  0.00    -0.269 OA
ENDROOT
BRANCH  11  13
ATOM     13  C   UNL     1       5.224  -2.200   6.447  0.00  0.00    +0.074 A 
ATOM     14  C   UNL     1       5.238  -1.026   7.183  0.00  0.00    +0.021 A 
ATOM     15  C   UNL     1       5.963  -1.062   8.350  0.00  0.00    +0.008 A 
ATOM     16  C   UNL     1       6.599  -2.208   8.696  0.00  0.00    +0.046 A 
ATOM     17  S   UNL     1       6.229  -3.276   7.453  0.00  0.00    -0.092 S 
ENDBRANCH  11  13
BRANCH   1  18
ATOM     18  N   UNL     1       1.975  -4.939  -0.084  0.00  0.00    -0.216 N 
ATOM     19  H   UNL     1       2.253  -4.609  -0.952  0.00  0.00    +0.174 HD
BRANCH  18  20
ATOM     20  S   UNL     1       0.633  -5.900   0.046  0.00  0.00    +0.072 S 
ATOM     21  O   UNL     1       0.142  -6.091  -1.274  0.00  0.00    -0.150 OA
ATOM     22  O   UNL     1      -0.166  -5.345   1.082  0.00  0.00    -0.150 OA
BRANCH  20  27
ATOM     23  C   UNL     1       2.482 -11.301   1.998  0.00  0.00    +0.044 C 
ATOM     24  C   UNL     1       2.021  -9.952   1.510  0.00  0.00    -0.047 A 
ATOM     25  C   UNL     1       1.743  -8.947   2.418  0.00  0.00    +0.005 A 
ATOM     26  C   UNL     1       1.319  -7.710   1.971  0.00  0.00    +0.029 A 
ATOM     27  C   UNL     1       1.174  -7.477   0.616  0.00  0.00    +0.109 A 
ATOM     28  C   UNL     1       1.452  -8.481  -0.292  0.00  0.00    +0.032 A 
ATOM     29  C   UNL     1       1.880  -9.718   0.155  0.00  0.00    -0.046 A 
ATOM     30  C   UNL     1       2.188 -10.812  -0.835  0.00  0.00    +0.044 C 
ENDBRANCH  20  27
ENDBRANCH  18  20
ENDBRANCH   1  18
TORSDOF 4
