REMARK  Name = ZINC35156221
REMARK  14 active torsions:
REMARK  status: ('A' for Active; 'I' for Inactive)
REMARK    1  A    between atoms: C_1  and  C_2
REMARK    2  A    between atoms: C_2  and  C_3
REMARK    3  A    between atoms: C_3  and  C_4
REMARK    4  A    between atoms: C_4  and  C_5
REMARK    5  A    between atoms: C_5  and  C_7
REMARK    6  A    between atoms: C_5  and  C_9
REMARK    7  A    between atoms: C_7  and  C_8
REMARK    8  A    between atoms: N_11  and  C_12
REMARK    9  A    between atoms: N_11  and  C_29
REMARK   10  A    between atoms: C_12  and  C_13
REMARK   11  A    between atoms: C_13  and  C_14
REMARK   12  A    between atoms: C_20  and  C_22
REMARK   13  A    between atoms: C_29  and  C_31
REMARK   14  A    between atoms: C_29  and  C_32
REMARK                            x       y       z     vdW  Elec       q    Type
REMARK                         _______ _______ _______ _____ _____    ______ ____
ROOT
ATOM      1  C   UNL     1      -3.218  -3.214   0.301  0.00  0.00    +0.219 C 
ATOM      2  O   UNL     1      -2.019  -3.278   0.469  0.00  0.00    -0.275 OA
ATOM      3  N   UNL     1      -3.967  -4.333   0.355  0.00  0.00    -0.294 N 
ENDROOT
BRANCH   3   4
ATOM      4  C   UNL     1      -5.407  -4.264   0.096  0.00  0.00    +0.103 C 
ATOM      5  C   UNL     1      -5.766  -5.213  -1.049  0.00  0.00    +0.033 C 
BRANCH   4   6
ATOM      6  C   UNL     1      -6.161  -4.668   1.337  0.00  0.00    -0.027 A 
ATOM      7  C   UNL     1      -5.915  -5.894   1.927  0.00  0.00    +0.005 A 
ATOM      8  C   UNL     1      -6.606  -6.264   3.065  0.00  0.00    +0.000 A 
ATOM      9  C   UNL     1      -7.543  -5.408   3.614  0.00  0.00    +0.000 A 
ATOM     10  C   UNL     1      -7.788  -4.182   3.025  0.00  0.00    +0.000 A 
ATOM     11  C   UNL     1      -7.094  -3.810   1.889  0.00  0.00    +0.005 A 
ENDBRANCH   4   6
ENDBRANCH   3   4
BRANCH   1  12
ATOM     12  C   UNL     1      -3.871  -1.883   0.031  0.00  0.00    +0.075 C 
BRANCH  12  13
ATOM     13  C   UNL     1      -4.829  -1.543   1.175  0.00  0.00    +0.009 C 
ATOM     14  C   UNL     1      -4.039  -1.403   2.477  0.00  0.00    +0.004 C 
ENDBRANCH  12  13
BRANCH  12  15
ATOM     15  C   UNL     1      -2.796  -0.799  -0.073  0.00  0.00    +0.013 C 
BRANCH  15  16
ATOM     16  C   UNL     1      -3.444   0.525  -0.483  0.00  0.00    +0.000 C 
BRANCH  16  18
ATOM     17  C   UNL     1      -3.036   2.955  -0.892  0.00  0.00    +0.004 C 
ATOM     18  C   UNL     1      -2.388   1.632  -0.481  0.00  0.00    -0.003 C 
ENDBRANCH  16  18
ENDBRANCH  15  16
ENDBRANCH  12  15
ENDBRANCH   1  12
BRANCH   3  19
ATOM     19  C   UNL     1      -3.341  -5.619   0.673  0.00  0.00    +0.117 C 
BRANCH  19  20
ATOM     20  C   UNL     1      -3.175  -5.745   2.189  0.00  0.00    +0.115 C 
BRANCH  20  21
ATOM     21  C   UNL     1      -2.486  -7.045   2.513  0.00  0.00    +0.220 C 
ATOM     22  O   UNL     1      -2.159  -7.797   1.619  0.00  0.00    -0.275 OA
ATOM     23  N   UNL     1      -2.233  -7.372   3.795  0.00  0.00    -0.263 N 
ATOM     24  C   UNL     1      -1.597  -8.571   4.094  0.00  0.00    +0.188 A 
ATOM     25  N   UNL     1      -1.154  -9.526   3.286  0.00  0.00    -0.125 NA
ATOM     26  N   UNL     1      -0.593 -10.565   3.727  0.00  0.00    -0.140 NA
ATOM     27  C   UNL     1      -0.411 -10.766   5.026  0.00  0.00    +0.134 A 
ATOM     28  S   UNL     1      -1.136  -9.265   5.679  0.00  0.00    -0.030 S 
ATOM     29  H   UNL     1      -2.494  -6.771   4.510  0.00  0.00    +0.157 HD
BRANCH  27  30
ATOM     30  C   UNL     1       0.217 -11.903   5.733  0.00  0.00    +0.009 A 
ATOM     31  C   UNL     1       0.295 -11.905   7.127  0.00  0.00    +0.012 A 
ATOM     32  C   UNL     1       0.882 -12.968   7.780  0.00  0.00    +0.020 A 
ATOM     33  C   UNL     1       1.393 -14.032   7.057  0.00  0.00    +0.041 A 
ATOM     34  C   UNL     1       1.319 -14.036   5.674  0.00  0.00    +0.020 A 
ATOM     35  C   UNL     1       0.729 -12.981   5.010  0.00  0.00    +0.012 A 
ATOM     36 CL   UNL     1       2.131 -15.367   7.886  0.00  0.00    -0.084 Cl
ENDBRANCH  27  30
ENDBRANCH  20  21
ENDBRANCH  19  20
ENDBRANCH   3  19
TORSDOF 11
