REMARK  Name = ZINC11981025
REMARK  9 active torsions:
REMARK  status: ('A' for Active; 'I' for Inactive)
REMARK    1  A    between atoms: C_1  and  C_2
REMARK    2  A    between atoms: C_2  and  C_4
REMARK    3  A    between atoms: C_2  and  C_14
REMARK    4  A    between atoms: C_4  and  C_5
REMARK    5  A    between atoms: C_14  and  N_64
REMARK    6  A    between atoms: C_21  and  C_23
REMARK    7  A    between atoms: N_25  and  C_26
REMARK    8  A    between atoms: C_29  and  S_32
REMARK    9  A    between atoms: S_32  and  C_33
REMARK                            x       y       z     vdW  Elec       q    Type
REMARK                         _______ _______ _______ _____ _____    ______ ____
ROOT
ATOM      1  C   UNL     1       0.133   1.677  -0.213  0.00  0.00    -0.078 C 
ATOM      2  C   UNL     1       1.574   2.173  -0.375  0.00  0.00    -0.011 C 
ATOM      3  C   UNL     1       2.160   1.566  -1.654  0.00  0.00    -0.021 C 
ATOM      4  C   UNL     1       2.013   0.045  -1.767  0.00  0.00    -0.011 C 
ATOM      5  C   UNL     1       0.546  -0.325  -1.523  0.00  0.00    -0.078 C 
ATOM      6  C   UNL     1       3.418   2.207  -2.235  0.00  0.00    +0.020 C 
ATOM      7  C   UNL     1       2.071   2.388  -2.938  0.00  0.00    +0.082 C 
ATOM      8  N   UNL     1       0.137   0.198  -0.201  0.00  0.00    +0.380 N 
ATOM      9  H   UNL     1       0.806  -0.127   0.506  0.00  0.00    -0.082 HD
ENDROOT
BRANCH   7  10
ATOM     10  C   UNL     1       1.418   3.744  -2.853  0.00  0.00    +0.221 C 
ATOM     11  O   UNL     1       2.099   4.735  -2.694  0.00  0.00    -0.275 OA
ATOM     12  N   UNL     1       0.079   3.855  -2.953  0.00  0.00    -0.285 N 
ATOM     13  H   UNL     1      -0.470   3.058  -3.020  0.00  0.00    +0.155 HD
BRANCH  12  14
ATOM     14  C   UNL     1      -0.521   5.121  -2.959  0.00  0.00    +0.033 A 
ATOM     15  C   UNL     1       0.011   6.145  -2.186  0.00  0.00    +0.024 A 
ATOM     16  C   UNL     1      -0.577   7.394  -2.196  0.00  0.00    +0.016 A 
ATOM     17  C   UNL     1      -1.706   7.624  -2.972  0.00  0.00    +0.008 A 
ATOM     18  C   UNL     1      -2.241   6.598  -3.741  0.00  0.00    +0.016 A 
ATOM     19  C   UNL     1      -1.650   5.351  -3.734  0.00  0.00    +0.024 A 
BRANCH  17  20
ATOM     20  S   UNL     1      -2.461   9.216  -2.980  0.00  0.00    -0.129 S 
ATOM     21  C   UNL     1      -1.431  10.195  -1.852  0.00  0.00    +0.090 C 
ENDBRANCH  17  20
ENDBRANCH  12  14
ENDBRANCH   7  10
BRANCH   8  22
ATOM     22  C   UNL     1      -1.208  -0.306   0.144  0.00  0.00    -0.075 C 
BRANCH  22  24
ATOM     23  C   UNL     1      -0.465  -0.610   2.511  0.00  0.00    +0.006 C 
ATOM     24  C   UNL     1      -1.505   0.050   1.602  0.00  0.00    -0.026 C 
BRANCH  24  25
ATOM     25  C   UNL     1      -2.901  -0.454   1.976  0.00  0.00    +0.036 C 
BRANCH  25  26
ATOM     26  C   UNL     1      -3.243   0.003   3.371  0.00  0.00    -0.043 A 
ATOM     27  C   UNL     1      -2.924  -0.793   4.455  0.00  0.00    +0.007 A 
ATOM     28  C   UNL     1      -3.232  -0.376   5.737  0.00  0.00    +0.050 A 
ATOM     29  C   UNL     1      -3.870   0.837   5.937  0.00  0.00    +0.166 A 
ATOM     30  C   UNL     1      -4.197   1.637   4.844  0.00  0.00    +0.166 A 
ATOM     31  C   UNL     1      -3.881   1.215   3.563  0.00  0.00    +0.053 A 
ATOM     32  O   UNL     1      -4.813   2.767   5.298  0.00  0.00    -0.453 OA
ATOM     33  C   UNL     1      -4.495   2.840   6.701  0.00  0.00    +0.466 C 
ATOM     34  O   UNL     1      -4.282   1.466   7.076  0.00  0.00    -0.453 OA
ENDBRANCH  25  26
ENDBRANCH  24  25
ENDBRANCH  22  24
ENDBRANCH   8  22
TORSDOF 7
