REMARK  Name = ZINC39516092
REMARK  3 active torsions:
REMARK  status: ('A' for Active; 'I' for Inactive)
REMARK    1  A    between atoms: C_1  and  C_2
REMARK    2  A    between atoms: C_4  and  C_8
REMARK    3  A    between atoms: C_20  and  C_22
REMARK                            x       y       z     vdW  Elec       q    Type
REMARK                         _______ _______ _______ _____ _____    ______ ____
ROOT
ATOM      1  C   UNL     1      -0.964  -2.951   1.248  0.00  0.00    +0.211 C 
ATOM      2  N   UNL     1      -2.432  -2.997   1.342  0.00  0.00    -0.244 N 
ATOM      3  N   UNL     1      -2.786  -4.349   1.303  0.00  0.00    -0.170 NA
ATOM      4  C   UNL     1      -1.737  -5.120   1.198  0.00  0.00    +0.145 C 
ATOM      5  N   UNL     1      -0.566  -4.364   1.158  0.00  0.00    -0.261 N 
ATOM      6  C   UNL     1       0.678  -4.968   1.049  0.00  0.00    +0.046 A 
ATOM      7  C   UNL     1       1.831  -4.196   1.010  0.00  0.00    +0.044 A 
ATOM      8  C   UNL     1       3.067  -4.805   0.903  0.00  0.00    +0.043 A 
ATOM      9  C   UNL     1       3.168  -6.186   0.833  0.00  0.00    +0.021 A 
ATOM     10  C   UNL     1       2.034  -6.969   0.870  0.00  0.00    +0.011 A 
ATOM     11  C   UNL     1       0.778  -6.367   0.979  0.00  0.00    -0.000 A 
ATOM     12  C   UNL     1      -0.441  -7.186   1.020  0.00  0.00    -0.038 C 
ATOM     13  C   UNL     1      -1.651  -6.586   1.124  0.00  0.00    +0.049 C 
ATOM     14  C   UNL     1      -0.347  -8.688   0.945  0.00  0.00    +0.044 C 
ATOM     15 CL   UNL     1       4.505  -3.833   0.853  0.00  0.00    -0.083 Cl
ATOM     16  H   UNL     1      -3.035  -2.240   1.418  0.00  0.00    +0.170 HD
ENDROOT
BRANCH   1  20
ATOM     17  C   UNL     1      -2.805  -1.764  -2.931  0.00  0.00    +0.067 C 
ATOM     18  C   UNL     1      -1.932  -1.718  -1.704  0.00  0.00    +0.058 C 
ATOM     19  C   UNL     1      -1.222  -2.748  -1.239  0.00  0.00    +0.029 C 
ATOM     20  C   UNL     1      -0.531  -2.190  -0.007  0.00  0.00    +0.192 C 
ATOM     21  N   UNL     1      -1.004  -0.796   0.035  0.00  0.00    -0.176 NA
ATOM     22  N   UNL     1      -1.757  -0.625  -0.928  0.00  0.00    -0.159 NA
ENDBRANCH   1  20
TORSDOF 1
