REMARK  Name = ZINC28402591
REMARK  10 active torsions:
REMARK  status: ('A' for Active; 'I' for Inactive)
REMARK    1  A    between atoms: C_1  and  C_2
REMARK    2  A    between atoms: C_5  and  C_9
REMARK    3  A    between atoms: C_7  and  C_8
REMARK    4  A    between atoms: C_11  and  C_15
REMARK    5  A    between atoms: N_17  and  N_18
REMARK    6  A    between atoms: C_19  and  C_20
REMARK    7  A    between atoms: C_19  and  C_21
REMARK    8  A    between atoms: C_24  and  O_27
REMARK    9  A    between atoms: O_27  and  C_28
REMARK   10  A    between atoms: C_28  and  C_30
REMARK                            x       y       z     vdW  Elec       q    Type
REMARK                         _______ _______ _______ _____ _____    ______ ____
ROOT
ATOM      1  C   UNL     1       7.268   2.637   0.470  0.00  0.00    +0.281 C 
ATOM      2  O   UNL     1       7.846   1.567   0.450  0.00  0.00    -0.267 OA
ATOM      3  N   UNL     1       7.959   3.780   0.288  0.00  0.00    -0.201 N 
ATOM      4  H   UNL     1       7.436   4.747   0.305  0.00  0.00    +0.178 HD
ENDROOT
BRANCH   1   7
ATOM      5  C   UNL     1       3.690   2.161   1.055  0.00  0.00    +0.093 A 
ATOM      6  C   UNL     1       4.973   1.606   0.892  0.00  0.00    +0.062 A 
ATOM      7  C   UNL     1       5.814   2.684   0.692  0.00  0.00    +0.122 A 
ATOM      8  N   UNL     1       5.029   3.802   0.741  0.00  0.00    -0.272 N 
ATOM      9  H   UNL     1       5.480   4.796   0.610  0.00  0.00    +0.189 HD
ATOM     10  N   UNL     1       3.807   3.468   0.947  0.00  0.00    -0.173 NA
BRANCH   5  15
ATOM     11  C   UNL     1      -1.187  -0.755   1.998  0.00  0.00    +0.044 C 
ATOM     12  C   UNL     1       0.089   0.008   1.752  0.00  0.00    -0.047 A 
ATOM     13  C   UNL     1       1.298  -0.664   1.714  0.00  0.00    +0.004 A 
ATOM     14  C   UNL     1       2.470   0.030   1.489  0.00  0.00    +0.010 A 
ATOM     15  C   UNL     1       2.433   1.410   1.299  0.00  0.00    +0.002 A 
ATOM     16  C   UNL     1       1.214   2.081   1.337  0.00  0.00    +0.013 A 
ATOM     17  C   UNL     1       0.048   1.378   1.564  0.00  0.00    -0.047 A 
ATOM     18  C   UNL     1      -1.273   2.102   1.600  0.00  0.00    +0.044 C 
ENDBRANCH   5  15
ENDBRANCH   1   7
BRANCH   3  19
ATOM     19  N   UNL     1       9.343   3.735   0.077  0.00  0.00    -0.184 NA
ATOM     20  C   UNL     1       9.997   4.829  -0.173  0.00  0.00    +0.063 C 
ATOM     21  C   UNL     1      11.445   4.763  -0.585  0.00  0.00    +0.068 C 
BRANCH  20  22
ATOM     22  C   UNL     1       9.323   6.134  -0.053  0.00  0.00    -0.002 A 
ATOM     23  C   UNL     1       9.582   7.144  -0.984  0.00  0.00    +0.013 A 
ATOM     24  C   UNL     1       8.946   8.361  -0.871  0.00  0.00    +0.047 A 
ATOM     25  C   UNL     1       8.056   8.589   0.171  0.00  0.00    +0.132 A 
ATOM     26  C   UNL     1       7.801   7.590   1.102  0.00  0.00    +0.047 A 
ATOM     27  C   UNL     1       8.428   6.368   0.994  0.00  0.00    +0.013 A 
BRANCH  25  28
ATOM     28  O   UNL     1       7.435   9.792   0.281  0.00  0.00    -0.426 OA
BRANCH  28  29
ATOM     29  C   UNL     1       7.941  10.660   1.173  0.00  0.00    +0.309 C 
ATOM     30  O   UNL     1       8.970  10.402   1.750  0.00  0.00    -0.251 OA
ATOM     31  C   UNL     1       7.224  11.955   1.453  0.00  0.00    +0.136 C 
ENDBRANCH  28  29
ENDBRANCH  25  28
ENDBRANCH  20  22
ENDBRANCH   3  19
TORSDOF 6
