REMARK  Name = ZINC10994916
REMARK  7 active torsions:
REMARK  status: ('A' for Active; 'I' for Inactive)
REMARK    1  A    between atoms: C_1  and  C_2
REMARK    2  A    between atoms: C_4  and  C_31
REMARK    3  A    between atoms: C_6  and  C_8
REMARK    4  A    between atoms: C_11  and  S_13
REMARK    5  A    between atoms: S_13  and  C_14
REMARK    6  A    between atoms: C_14  and  C_15
REMARK    7  A    between atoms: C_19  and  C_28
REMARK                            x       y       z     vdW  Elec       q    Type
REMARK                         _______ _______ _______ _____ _____    ______ ____
ROOT
ATOM      1  C   UNL     1       0.105  -5.048   8.357  0.00  0.00    +0.230 C 
ATOM      2  O   UNL     1       0.194  -4.026   9.004  0.00  0.00    -0.274 OA
ATOM      3  N   UNL     1       0.026  -6.238   8.984  0.00  0.00    -0.264 N 
ATOM      4  C   UNL     1       0.051  -7.502   8.227  0.00  0.00    +0.168 C 
ATOM      5  C   UNL     1       0.949  -8.483   8.993  0.00  0.00    +0.276 C 
ATOM      6  O   UNL     1       0.424  -8.654  10.312  0.00  0.00    -0.476 OA
ATOM      7  C   UNL     1       0.124  -7.536  11.024  0.00  0.00    +0.143 A 
ATOM      8  C   UNL     1      -0.077  -6.317  10.383  0.00  0.00    +0.078 A 
ATOM      9  C   UNL     1      -0.382  -5.186  11.123  0.00  0.00    +0.027 A 
ATOM     10  C   UNL     1      -0.479  -5.269  12.500  0.00  0.00    +0.002 A 
ATOM     11  C   UNL     1      -0.272  -6.478  13.137  0.00  0.00    +0.004 A 
ATOM     12  C   UNL     1       0.020  -7.609  12.405  0.00  0.00    +0.047 A 
ENDROOT
BRANCH   5  13
ATOM     13  C   UNL     1       0.970  -9.810   8.279  0.00  0.00    +0.253 C 
ATOM     14  O   UNL     1       0.502 -10.794   8.813  0.00  0.00    -0.272 OA
ATOM     15  N   UNL     1       1.510  -9.905   7.048  0.00  0.00    -0.326 N 
ATOM     16  H   UNL     1       1.884  -9.118   6.621  0.00  0.00    +0.145 HD
ATOM     17  H   UNL     1       1.523 -10.759   6.588  0.00  0.00    +0.145 HD
ENDBRANCH   5  13
BRANCH   1  18
ATOM     18  C   UNL     1       0.082  -4.986   6.851  0.00  0.00    +0.175 C 
BRANCH  18  19
ATOM     19  S   UNL     1       0.039  -3.253   6.317  0.00  0.00    -0.056 S 
BRANCH  19  23
ATOM     20  C   UNL     1      -0.025  -2.840   2.460  0.00  0.00    +0.249 A 
ATOM     21  N   UNL     1       0.004  -4.144   2.590  0.00  0.00    -0.106 NA
ATOM     22  N   UNL     1       0.028  -4.449   3.839  0.00  0.00    -0.101 NA
ATOM     23  C   UNL     1       0.016  -3.350   4.558  0.00  0.00    +0.278 A 
ATOM     24  O   UNL     1      -0.013  -2.310   3.703  0.00  0.00    -0.411 OA
BRANCH  20  30
ATOM     25  C   UNL     1      -0.136   1.510   0.018  0.00  0.00    +0.044 C 
ATOM     26  C   UNL     1      -0.112   0.003   0.009  0.00  0.00    -0.049 A 
ATOM     27  C   UNL     1      -0.121  -0.679  -1.195  0.00  0.00    +0.006 A 
ATOM     28  C   UNL     1      -0.099  -2.063  -1.213  0.00  0.00    -0.049 A 
ATOM     29  C   UNL     1      -0.067  -2.771  -0.030  0.00  0.00    +0.016 A 
ATOM     30  C   UNL     1      -0.058  -2.088   1.188  0.00  0.00    +0.039 A 
ATOM     31  C   UNL     1      -0.075  -0.693   1.199  0.00  0.00    +0.016 A 
ATOM     32  C   UNL     1      -0.109  -2.798  -2.529  0.00  0.00    +0.044 C 
ENDBRANCH  20  30
ENDBRANCH  19  23
ENDBRANCH  18  19
ENDBRANCH   1  18
TORSDOF 5
