REMARK  Name = ZINC36390237
REMARK  3 active torsions:
REMARK  status: ('A' for Active; 'I' for Inactive)
REMARK    1  A    between atoms: C_1  and  C_2
REMARK    2  A    between atoms: C_8  and  N_10
REMARK    3  A    between atoms: C_11  and  C_13
REMARK                            x       y       z     vdW  Elec       q    Type
REMARK                         _______ _______ _______ _____ _____    ______ ____
ROOT
ATOM      1  N   UNL     1       0.056  -0.038   2.447  0.00  0.00    -0.312 N 
ATOM      2  C   UNL     1       0.738   0.093   3.602  0.00  0.00    +0.220 C 
ATOM      3  O   UNL     1       1.919  -0.179   3.644  0.00  0.00    -0.275 OA
ATOM      4  H   UNL     1      -0.888   0.180   2.413  0.00  0.00    +0.149 HD
ENDROOT
BRANCH   2   5
ATOM      5  C   UNL     1       0.033   0.579   4.842  0.00  0.00    +0.117 C 
ATOM      6  C   UNL     1       1.019   0.626   6.012  0.00  0.00    +0.055 C 
ATOM      7  C   UNL     1       0.266   0.823   7.303  0.00  0.00    -0.005 A 
ATOM      8  C   UNL     1       0.959   1.263   8.418  0.00  0.00    +0.007 A 
ATOM      9  C   UNL     1       0.302   1.450   9.619  0.00  0.00    +0.000 A 
ATOM     10  C   UNL     1      -1.054   1.196   9.711  0.00  0.00    +0.004 A 
ATOM     11  C   UNL     1      -1.750   0.758   8.603  0.00  0.00    +0.046 A 
ATOM     12  C   UNL     1      -1.092   0.571   7.391  0.00  0.00    +0.124 A 
ATOM     13  O   UNL     1      -1.813   0.148   6.320  0.00  0.00    -0.491 OA
ATOM     14  C   UNL     1      -1.101  -0.389   5.205  0.00  0.00    +0.242 C 
ENDBRANCH   2   5
BRANCH   1  21
ATOM     15  C   UNL     1      -0.019   1.526   0.010  0.00  0.00    +0.009 C 
ATOM     16  C   UNL     1       0.002  -0.004   0.002  0.00  0.00    +0.006 C 
ATOM     17  C   UNL     1       0.718  -0.497  -1.257  0.00  0.00    +0.005 C 
ATOM     18  C   UNL     1       0.739  -2.027  -1.265  0.00  0.00    +0.000 C 
ATOM     19  C   UNL     1       1.479  -2.534  -0.026  0.00  0.00    +0.002 C 
ATOM     20  C   UNL     1       0.763  -2.041   1.233  0.00  0.00    +0.022 C 
ATOM     21  C   UNL     1       0.742  -0.511   1.242  0.00  0.00    +0.076 C 
ENDBRANCH   1  21
TORSDOF 2
