REMARK  Name = ZINC67459118
REMARK  9 active torsions:
REMARK  status: ('A' for Active; 'I' for Inactive)
REMARK    1  A    between atoms: C_1  and  C_2
REMARK    2  A    between atoms: C_2  and  C_3
REMARK    3  A    between atoms: C_2  and  C_4
REMARK    4  A    between atoms: C_2  and  C_20
REMARK    5  A    between atoms: C_4  and  N_5
REMARK    6  A    between atoms: N_8  and  N_9
REMARK    7  A    between atoms: C_10  and  C_12
REMARK    8  A    between atoms: C_17  and  O_18
REMARK    9  A    between atoms: O_18  and  C_19
REMARK                            x       y       z     vdW  Elec       q    Type
REMARK                         _______ _______ _______ _____ _____    ______ ____
ROOT
ATOM      1  N   UNL     1      -2.119  -0.061   1.218  0.00  0.00    -0.297 N 
ATOM      2  C   UNL     1      -3.403  -0.406   1.442  0.00  0.00    +0.316 C 
ATOM      3  O   UNL     1      -3.992  -1.108   0.643  0.00  0.00    -0.251 OA
ATOM      4  N   UNL     1      -4.034   0.029   2.551  0.00  0.00    -0.218 N 
ATOM      5  H   UNL     1      -1.649   0.499   1.855  0.00  0.00    +0.150 HD
ATOM      6  H   UNL     1      -4.957  -0.219   2.712  0.00  0.00    +0.174 HD
ENDROOT
BRANCH   4   7
ATOM      7  N   UNL     1      -3.355   0.839   3.471  0.00  0.00    -0.229 N 
ATOM      8  C   UNL     1      -3.986   1.274   4.580  0.00  0.00    +0.264 C 
ATOM      9  O   UNL     1      -5.144   0.963   4.782  0.00  0.00    -0.269 OA
ATOM     10  H   UNL     1      -2.431   1.087   3.310  0.00  0.00    +0.173 HD
BRANCH   8  11
ATOM     11  C   UNL     1      -3.271   2.126   5.549  0.00  0.00    +0.080 A 
ATOM     12  C   UNL     1      -1.942   2.490   5.318  0.00  0.00    +0.017 A 
ATOM     13  C   UNL     1      -1.280   3.287   6.226  0.00  0.00    +0.001 A 
ATOM     14  C   UNL     1      -1.927   3.730   7.369  0.00  0.00    +0.004 A 
ATOM     15  C   UNL     1      -3.240   3.377   7.610  0.00  0.00    +0.046 A 
ATOM     16  C   UNL     1      -3.923   2.580   6.703  0.00  0.00    +0.132 A 
BRANCH  16  17
ATOM     17  O   UNL     1      -5.215   2.238   6.935  0.00  0.00    -0.494 OA
ATOM     18  C   UNL     1      -5.814   2.738   8.132  0.00  0.00    +0.277 C 
ENDBRANCH  16  17
ENDBRANCH   8  11
ENDBRANCH   4   7
BRANCH   1  19
ATOM     19  C   UNL     1      -1.433  -0.534   0.013  0.00  0.00    +0.116 C 
BRANCH  19  21
ATOM     20  C   UNL     1      -0.019   1.526   0.010  0.00  0.00    +0.017 C 
ATOM     21  C   UNL     1       0.002  -0.004   0.002  0.00  0.00    +0.006 C 
ATOM     22  C   UNL     1       0.742  -0.511   1.242  0.00  0.00    +0.017 C 
BRANCH  21  23
ATOM     23  C   UNL     1       0.707  -0.490  -1.238  0.00  0.00    -0.040 A 
ATOM     24  C   UNL     1       0.036  -1.284  -2.148  0.00  0.00    +0.005 A 
ATOM     25  C   UNL     1       0.682  -1.730  -3.286  0.00  0.00    +0.020 A 
ATOM     26  C   UNL     1       2.002  -1.382  -3.513  0.00  0.00    +0.041 A 
ATOM     27  C   UNL     1       2.673  -0.587  -2.601  0.00  0.00    +0.020 A 
ATOM     28  C   UNL     1       2.024  -0.137  -1.467  0.00  0.00    +0.005 A 
ATOM     29 CL   UNL     1       2.814  -1.942  -4.941  0.00  0.00    -0.084 Cl
ENDBRANCH  21  23
ENDBRANCH  19  21
ENDBRANCH   1  19
TORSDOF 6
