REMARK  Name = ZINC34884247
REMARK  6 active torsions:
REMARK  status: ('A' for Active; 'I' for Inactive)
REMARK    1  A    between atoms: C_1  and  C_2
REMARK    2  A    between atoms: C_7  and  C_10
REMARK    3  A    between atoms: C_11  and  C_13
REMARK    4  A    between atoms: C_13  and  C_15
REMARK    5  A    between atoms: C_13  and  N_16
REMARK    6  A    between atoms: C_19  and  C_22
REMARK                            x       y       z     vdW  Elec       q    Type
REMARK                         _______ _______ _______ _____ _____    ______ ____
ROOT
ATOM      1  N   UNL     1       4.375   1.831  -3.208  0.00  0.00    +0.387 N 
ATOM      2  C   UNL     1       3.307   2.837  -3.248  0.00  0.00    -0.077 C 
ATOM      3  C   UNL     1       3.442   3.678  -4.520  0.00  0.00    -0.011 C 
ATOM      4  C   UNL     1       4.804   4.377  -4.521  0.00  0.00    +0.018 C 
ATOM      5  C   UNL     1       5.908   3.322  -4.403  0.00  0.00    -0.011 C 
ATOM      6  C   UNL     1       5.682   2.494  -3.136  0.00  0.00    -0.077 C 
ATOM      7  H   UNL     1       4.332   1.264  -4.042  0.00  0.00    -0.081 HD
ENDROOT
BRANCH   4   8
ATOM      8  C   UNL     1       4.976   5.145  -5.806  0.00  0.00    -0.019 A 
ATOM      9  C   UNL     1       4.959   4.637  -7.048  0.00  0.00    +0.087 A 
ATOM     10  N   UNL     1       5.147   5.636  -7.964  0.00  0.00    -0.360 N 
ATOM     11  H   UNL     1       5.173   5.512  -8.926  0.00  0.00    +0.165 HD
ATOM     12  C   UNL     1       5.293   6.842  -7.317  0.00  0.00    +0.047 A 
ATOM     13  C   UNL     1       5.186   6.589  -5.937  0.00  0.00    +0.003 A 
ATOM     14  C   UNL     1       5.290   7.641  -5.026  0.00  0.00    +0.010 A 
ATOM     15  C   UNL     1       5.493   8.914  -5.479  0.00  0.00    +0.001 A 
ATOM     16  C   UNL     1       5.595   9.170  -6.839  0.00  0.00    +0.002 A 
ATOM     17  C   UNL     1       5.504   8.145  -7.756  0.00  0.00    +0.026 A 
ENDBRANCH   4   8
BRANCH   1  18
ATOM     18  C   UNL     1       4.196   0.976  -2.027  0.00  0.00    +0.016 C 
ATOM     19  C   UNL     1       5.336  -0.042  -1.956  0.00  0.00    -0.004 C 
BRANCH  18  28
ATOM     20  C   UNL     1      -0.236   1.378  -0.526  0.00  0.00    +0.039 C 
ATOM     21  C   UNL     1       0.005  -0.061  -0.066  0.00  0.00    +0.133 C 
ATOM     22  C   UNL     1       0.914  -0.775  -1.073  0.00  0.00    +0.139 C 
ATOM     23  N   UNL     1       2.250  -0.162  -1.008  0.00  0.00    -0.298 N 
ATOM     24  C   UNL     1       2.879  -0.012   0.313  0.00  0.00    +0.139 C 
ATOM     25  C   UNL     1       1.875   0.664   1.253  0.00  0.00    +0.133 C 
ATOM     26  O   UNL     1       0.637  -0.052   1.216  0.00  0.00    -0.371 OA
ATOM     27  C   UNL     1       2.427   0.660   2.680  0.00  0.00    +0.039 C 
ATOM     28  C   UNL     1       2.879   0.250  -2.127  0.00  0.00    +0.202 C 
ATOM     29  O   UNL     1       2.386   0.036  -3.214  0.00  0.00    -0.277 OA
ENDBRANCH  18  28
ENDBRANCH   1  18
TORSDOF 3
