REMARK  Name = ZINC11727794
REMARK  6 active torsions:
REMARK  status: ('A' for Active; 'I' for Inactive)
REMARK    1  A    between atoms: C_1  and  C_2
REMARK    2  A    between atoms: C_2  and  C_3
REMARK    3  A    between atoms: C_2  and  C_4
REMARK    4  A    between atoms: N_16  and  C_17
REMARK    5  A    between atoms: C_17  and  C_18
REMARK    6  A    between atoms: C_18  and  O_19
REMARK                            x       y       z     vdW  Elec       q    Type
REMARK                         _______ _______ _______ _____ _____    ______ ____
ROOT
ATOM      1  C   UNL     1       2.380   1.466  -0.013  0.00  0.00    -0.019 A 
ATOM      2  C   UNL     1       1.171   2.088   0.002  0.00  0.00    +0.006 A 
ATOM      3  C   UNL     1      -0.016   1.356   0.009  0.00  0.00    +0.001 A 
ATOM      4  C   UNL     1       0.002  -0.004   0.002  0.00  0.00    +0.010 A 
ATOM      5  C   UNL     1       1.234  -0.683  -0.013  0.00  0.00    +0.001 A 
ATOM      6  C   UNL     1       2.445   0.059  -0.021  0.00  0.00    +0.077 A 
ATOM      7  N   UNL     1       3.623  -0.566  -0.035  0.00  0.00    -0.227 NA
ATOM      8  C   UNL     1       3.707  -1.884  -0.042  0.00  0.00    +0.161 A 
ATOM      9  C   UNL     1       2.538  -2.686  -0.035  0.00  0.00    +0.061 A 
ATOM     10  C   UNL     1       1.288  -2.085  -0.021  0.00  0.00    +0.025 A 
ATOM     11  C   UNL     1       2.995  -4.080  -0.045  0.00  0.00    +0.147 A 
ATOM     12  N   UNL     1       4.300  -4.066  -0.057  0.00  0.00    -0.154 NA
ATOM     13  N   UNL     1       4.771  -2.750  -0.055  0.00  0.00    -0.242 N 
ATOM     14  N   UNL     1       2.181  -5.215  -0.042  0.00  0.00    -0.341 N 
ATOM     15  H   UNL     1       1.216  -5.119  -0.033  0.00  0.00    +0.144 HD
ATOM     16  H   UNL     1       2.582  -6.098  -0.050  0.00  0.00    +0.144 HD
ENDROOT
BRANCH   1  18
ATOM     17  C   UNL     1       3.675   3.169  -1.266  0.00  0.00    +0.012 C 
ATOM     18  C   UNL     1       3.648   2.280  -0.021  0.00  0.00    +0.015 C 
ATOM     19  C   UNL     1       3.700   3.156   1.232  0.00  0.00    +0.012 C 
ENDBRANCH   1  18
BRANCH  13  20
ATOM     20  C   UNL     1       6.182  -2.357  -0.066  0.00  0.00    +0.173 C 
BRANCH  20  21
ATOM     21  C   UNL     1       6.686  -2.226   1.372  0.00  0.00    +0.179 C 
BRANCH  21  22
ATOM     22  O   UNL     1       8.063  -1.843   1.361  0.00  0.00    -0.393 OA
ATOM     23  H   UNL     1       8.450  -1.741   2.242  0.00  0.00    +0.209 HD
ENDBRANCH  21  22
ENDBRANCH  20  21
ENDBRANCH  13  20
TORSDOF 4
