REMARK  Name = ZINC06077349
REMARK  4 active torsions:
REMARK  status: ('A' for Active; 'I' for Inactive)
REMARK    1  A    between atoms: C_1  and  C_2
REMARK    2  A    between atoms: C_3  and  C_25
REMARK    3  A    between atoms: C_4  and  C_20
REMARK    4  A    between atoms: C_10  and  C_15
REMARK                            x       y       z     vdW  Elec       q    Type
REMARK                         _______ _______ _______ _____ _____    ______ ____
ROOT
ATOM      1  C   UNL     1       3.503   7.186  -0.114  0.00  0.00    +0.061 C 
ATOM      2  C   UNL     1       2.226   7.983  -0.055  0.00  0.00    +0.014 C 
ATOM      3  C   UNL     1       1.044   7.346  -0.002  0.00  0.00    +0.044 C 
ATOM      4  C   UNL     1      -0.248   8.107   0.059  0.00  0.00    +0.097 C 
ATOM      5  C   UNL     1      -0.055   9.539  -0.365  0.00  0.00    +0.024 C 
ATOM      6  C   UNL     1       1.178  10.088  -0.404  0.00  0.00    +0.016 C 
ATOM      7  N   UNL     1       2.277   9.350  -0.058  0.00  0.00    -0.321 N 
ATOM      8  C   UNL     1       1.378  11.521  -0.832  0.00  0.00    +0.060 C 
ATOM      9  C   UNL     1       0.146  12.347  -0.454  0.00  0.00    +0.039 C 
ATOM     10  C   UNL     1      -1.081  11.728  -1.132  0.00  0.00    +0.088 C 
ATOM     11  C   UNL     1      -1.193  10.286  -0.718  0.00  0.00    +0.162 C 
ATOM     12  O   UNL     1      -2.287   9.757  -0.689  0.00  0.00    -0.292 OA
ATOM     13  H   UNL     1       3.208   9.866   0.220  0.00  0.00    +0.152 HD
ENDROOT
BRANCH   3  14
ATOM     14  C   UNL     1       1.017   5.930  -0.009  0.00  0.00    +0.248 C 
ATOM     15  O   UNL     1       0.801   5.330  -1.046  0.00  0.00    -0.270 OA
ATOM     16  N   UNL     1       1.230   5.247   1.133  0.00  0.00    -0.267 N 
ATOM     17  C   UNL     1       1.315   3.857   1.107  0.00  0.00    +0.125 A 
ATOM     18  C   UNL     1       1.646   3.165   2.267  0.00  0.00    +0.044 A 
ATOM     19  C   UNL     1       1.726   1.784   2.227  0.00  0.00    +0.005 A 
ATOM     20  C   UNL     1       1.471   1.140   1.024  0.00  0.00    +0.020 A 
ATOM     21  C   UNL     1       1.154   1.891  -0.091  0.00  0.00    +0.113 A 
ATOM     22  N   UNL     1       1.079   3.206  -0.021  0.00  0.00    -0.240 NA
ATOM     23  H   UNL     1       1.337   5.786   2.086  0.00  0.00    +0.157 HD
ENDBRANCH   3  14
BRANCH   9  24
ATOM     24  C   UNL     1       0.324  13.766  -0.928  0.00  0.00    -0.006 A 
ATOM     25  C   UNL     1       0.337  14.912  -0.204  0.00  0.00    +0.011 A 
ATOM     26  C   UNL     1       0.521  16.116  -0.858  0.00  0.00    +0.008 A 
ATOM     27  C   UNL     1       0.673  16.116  -2.204  0.00  0.00    +0.045 A 
ATOM     28  S   UNL     1       0.565  14.376  -2.588  0.00  0.00    -0.101 S 
ENDBRANCH   9  24
BRANCH   4  29
ATOM     29  C   UNL     1      -0.772   8.080   1.471  0.00  0.00    +0.002 A 
ATOM     30  C   UNL     1      -1.947   7.590   1.937  0.00  0.00    +0.012 A 
ATOM     31  C   UNL     1      -2.218   7.670   3.290  0.00  0.00    +0.008 A 
ATOM     32  C   UNL     1      -1.306   8.247   4.110  0.00  0.00    +0.045 A 
ATOM     33  S   UNL     1      -0.010   8.693   2.965  0.00  0.00    -0.101 S 
ENDBRANCH   4  29
TORSDOF 3
