REMARK  Name = ZINC13212284
REMARK  9 active torsions:
REMARK  status: ('A' for Active; 'I' for Inactive)
REMARK    1  A    between atoms: C_1  and  C_2
REMARK    2  A    between atoms: C_2  and  O_3
REMARK    3  A    between atoms: O_3  and  C_4
REMARK    4  A    between atoms: C_9  and  C_10
REMARK    5  A    between atoms: C_10  and  N_11
REMARK    6  A    between atoms: N_11  and  C_12
REMARK    7  A    between atoms: C_15  and  C_21
REMARK    8  A    between atoms: C_17  and  N_18
REMARK    9  A    between atoms: C_24  and  C_27
REMARK                            x       y       z     vdW  Elec       q    Type
REMARK                         _______ _______ _______ _____ _____    ______ ____
ROOT
ATOM      1  C   UNL     1      -2.583   3.821   0.025  0.00  0.00    +0.140 C 
ENDROOT
BRANCH   1   7
ATOM      2  C   UNL     1      -1.280   1.681   0.022  0.00  0.00    +0.126 A 
ATOM      3  C   UNL     1      -0.076   0.992   0.009  0.00  0.00    +0.053 A 
ATOM      4  C   UNL     1       1.113   1.687  -0.028  0.00  0.00    +0.001 A 
ATOM      5  C   UNL     1       1.126   3.075  -0.040  0.00  0.00    +0.125 A 
ATOM      6  C   UNL     1      -0.086   3.761  -0.024  0.00  0.00    +0.054 A 
ATOM      7  C   UNL     1      -1.278   3.068   0.009  0.00  0.00    +0.015 A 
ATOM      8  O   UNL     1       2.401   3.556  -0.061  0.00  0.00    -0.488 OA
ATOM      9  C   UNL     1       3.290   2.519  -0.509  0.00  0.00    +0.175 C 
ATOM     10  C   UNL     1       2.558   1.228  -0.073  0.00  0.00    +0.083 C 
ATOM     11  C   UNL     1       4.649   2.633   0.185  0.00  0.00    +0.052 C 
BRANCH   2  12
ATOM     12  O   UNL     1      -2.457   1.000   0.053  0.00  0.00    -0.492 OA
BRANCH  12  14
ATOM     13  C   UNL     1      -3.794  -1.012   0.103  0.00  0.00    +0.048 C 
ATOM     14  C   UNL     1      -2.381  -0.426   0.070  0.00  0.00    +0.225 C 
ENDBRANCH  12  14
ENDBRANCH   2  12
ENDBRANCH   1   7
BRANCH   1  15
ATOM     15  N   UNL     1      -3.099   3.875   1.396  0.00  0.00    -0.338 N 
ATOM     16  H   UNL     1      -2.602   3.458   2.117  0.00  0.00    +0.146 HD
BRANCH  15  17
ATOM     17  C   UNL     1      -4.299   4.523   1.662  0.00  0.00    +0.058 A 
ATOM     18  C   UNL     1      -4.951   5.222   0.649  0.00  0.00    +0.026 A 
ATOM     19  C   UNL     1      -6.131   5.860   0.904  0.00  0.00    +0.017 A 
ATOM     20  C   UNL     1      -6.690   5.813   2.185  0.00  0.00    +0.065 A 
ATOM     21  C   UNL     1      -6.038   5.112   3.204  0.00  0.00    +0.049 A 
ATOM     22  C   UNL     1      -4.851   4.466   2.939  0.00  0.00    +0.148 A 
BRANCH  22  23
ATOM     23  N   UNL     1      -4.159   3.718   4.012  0.00  0.00    +0.058 N 
ATOM     24  O   UNL     1      -4.692   3.578   5.098  0.00  0.00    -0.126 OA
ATOM     25  O   UNL     1      -3.057   3.241   3.809  0.00  0.00    -0.126 OA
ENDBRANCH  22  23
BRANCH  20  26
ATOM     26  C   UNL     1      -7.963   6.502   2.461  0.00  0.00    +0.387 C 
ATOM     27  O   UNL     1      -8.448   6.460   3.574  0.00  0.00    -0.241 OA
ATOM     28  O   UNL     1      -8.591   7.178   1.478  0.00  0.00    -0.241 OA
ENDBRANCH  20  26
ENDBRANCH  15  17
ENDBRANCH   1  15
TORSDOF 7
