REMARK  Name = ZINC30689385
REMARK  6 active torsions:
REMARK  status: ('A' for Active; 'I' for Inactive)
REMARK    1  A    between atoms: C_2  and  C_3
REMARK    2  A    between atoms: C_3  and  N_4
REMARK    3  A    between atoms: C_5  and  C_11
REMARK    4  A    between atoms: C_11  and  C_12
REMARK    5  A    between atoms: C_18  and  C_20
REMARK    6  A    between atoms: C_21  and  C_25
REMARK                            x       y       z     vdW  Elec       q    Type
REMARK                         _______ _______ _______ _____ _____    ______ ____
ROOT
ATOM      1  C   UNL     1      -4.473  -1.211   5.511  0.00  0.00    +0.058 A 
ATOM      2  C   UNL     1      -4.548   0.140   5.588  0.00  0.00    +0.072 A 
ATOM      3  S   UNL     1      -3.463   0.610   4.250  0.00  0.00    -0.060 S 
ATOM      4  C   UNL     1      -3.030  -0.991   3.736  0.00  0.00    +0.165 A 
ATOM      5  N   UNL     1      -3.713  -1.746   4.575  0.00  0.00    -0.229 NA
ATOM      6  N   UNL     1      -2.186  -1.378   2.704  0.00  0.00    -0.258 N 
ATOM      7  C   UNL     1      -1.577  -0.444   1.946  0.00  0.00    +0.286 C 
ATOM      8  O   UNL     1      -1.767   0.738   2.166  0.00  0.00    -0.266 OA
ATOM      9  H   UNL     1      -2.014  -2.446   2.504  0.00  0.00    +0.157 HD
ENDROOT
BRANCH   7  10
ATOM     10  C   UNL     1      -0.688  -0.852   0.858  0.00  0.00    +0.197 A 
ATOM     11  C   UNL     1       0.002  -0.004   0.002  0.00  0.00    +0.032 A 
ATOM     12  C   UNL     1       0.733  -0.839  -0.876  0.00  0.00    +0.050 A 
ATOM     13  C   UNL     1       0.460  -2.113  -0.530  0.00  0.00    +0.196 A 
ATOM     14  O   UNL     1      -0.392  -2.120   0.503  0.00  0.00    -0.458 OA
BRANCH  11  15
ATOM     15  C   UNL     1      -0.018   1.477   0.010  0.00  0.00    -0.014 A 
ATOM     16  C   UNL     1      -1.234   2.161   0.020  0.00  0.00    +0.008 A 
ATOM     17  C   UNL     1      -1.246   3.541   0.033  0.00  0.00    +0.001 A 
ATOM     18  C   UNL     1      -0.056   4.246   0.025  0.00  0.00    +0.000 A 
ATOM     19  C   UNL     1       1.153   3.573   0.010  0.00  0.00    +0.001 A 
ATOM     20  C   UNL     1       1.179   2.194   0.003  0.00  0.00    +0.008 A 
ENDBRANCH  11  15
ENDBRANCH   7  10
BRANCH   1  21
ATOM     21  C   UNL     1      -5.245  -2.083   6.468  0.00  0.00    +0.132 C 
BRANCH  21  23
ATOM     22  N   UNL     1      -5.723  -4.299   5.275  0.00  0.00    -0.303 N 
ATOM     23  C   UNL     1      -6.103  -3.047   5.689  0.00  0.00    +0.138 A 
ATOM     24  N   UNL     1      -7.320  -2.831   5.307  0.00  0.00    -0.158 NA
ATOM     25  N   UNL     1      -7.766  -3.963   4.611  0.00  0.00    -0.254 N 
ATOM     26  H   UNL     1      -8.782  -3.986   4.191  0.00  0.00    +0.191 HD
ATOM     27  C   UNL     1      -6.755  -4.857   4.610  0.00  0.00    +0.176 A 
ATOM     28  S   UNL     1      -6.778  -6.413   3.897  0.00  0.00    -0.011 S 
BRANCH  22  29
ATOM     29  C   UNL     1      -4.419  -4.923   5.513  0.00  0.00    +0.152 C 
BRANCH  29  31
ATOM     30  C   UNL     1      -4.133  -6.956   6.834  0.00  0.00    +0.005 C 
ATOM     31  C   UNL     1      -4.457  -5.687   6.811  0.00  0.00    -0.013 C 
ENDBRANCH  29  31
ENDBRANCH  22  29
ENDBRANCH  21  23
ENDBRANCH   1  21
TORSDOF 6
