REMARK  Name = ZINC44390582
REMARK  5 active torsions:
REMARK  status: ('A' for Active; 'I' for Inactive)
REMARK    1  A    between atoms: C_1  and  C_2
REMARK    2  A    between atoms: C_2  and  C_4
REMARK    3  A    between atoms: C_2  and  N_18
REMARK    4  A    between atoms: N_9  and  C_12
REMARK    5  A    between atoms: C_23  and  C_25
REMARK                            x       y       z     vdW  Elec       q    Type
REMARK                         _______ _______ _______ _____ _____    ______ ____
ROOT
ATOM      1  C   UNL     1       0.020   1.383  -0.663  0.00  0.00    +0.043 C 
ATOM      2  C   UNL     1       0.010   0.007   0.004  0.00  0.00    +0.193 C 
ENDROOT
BRANCH   2   3
ATOM      3  C   UNL     1      -1.411  -0.478   0.134  0.00  0.00    +0.240 C 
ATOM      4  O   UNL     1      -1.869  -1.239  -0.692  0.00  0.00    -0.273 OA
ATOM      5  N   UNL     1      -2.171  -0.067   1.167  0.00  0.00    -0.297 N 
ATOM      6  C   UNL     1      -1.673   0.951   2.104  0.00  0.00    +0.126 C 
ATOM      7  C   UNL     1      -2.683   2.104   2.156  0.00  0.00    +0.124 C 
ATOM      8  N   UNL     1      -4.025   1.545   2.366  0.00  0.00    -0.327 N 
ATOM      9  C   UNL     1      -4.523   0.528   1.430  0.00  0.00    +0.124 C 
ATOM     10  C   UNL     1      -3.516  -0.622   1.374  0.00  0.00    +0.126 C 
BRANCH   8  11
ATOM     11  C   UNL     1      -4.814   1.972   3.437  0.00  0.00    +0.030 A 
ATOM     12  C   UNL     1      -4.292   2.849   4.379  0.00  0.00    +0.023 A 
ATOM     13  C   UNL     1      -5.075   3.270   5.437  0.00  0.00    +0.002 A 
ATOM     14  C   UNL     1      -6.376   2.817   5.559  0.00  0.00    +0.000 A 
ATOM     15  C   UNL     1      -6.898   1.944   4.623  0.00  0.00    +0.002 A 
ATOM     16  C   UNL     1      -6.123   1.524   3.560  0.00  0.00    +0.023 A 
ENDBRANCH   8  11
ENDBRANCH   2   3
BRANCH   2  17
ATOM     17  N   UNL     1       0.776  -0.938  -0.814  0.00  0.00    -0.217 N 
ATOM     18  C   UNL     1       1.849  -1.549  -0.277  0.00  0.00    +0.268 A 
ATOM     19  O   UNL     1       2.175  -1.317   0.876  0.00  0.00    -0.266 OA
ATOM     20  C   UNL     1       2.593  -2.461  -1.057  0.00  0.00    +0.074 A 
ATOM     21  C   UNL     1       2.186  -2.685  -2.339  0.00  0.00    +0.035 A 
ATOM     22  C   UNL     1       1.045  -1.993  -2.810  0.00  0.00    +0.092 A 
ATOM     23  N   UNL     1       0.403  -1.164  -2.021  0.00  0.00    -0.168 NA
BRANCH  22  24
ATOM     24  C   UNL     1       0.570  -2.209  -4.199  0.00  0.00    +0.002 A 
ATOM     25  C   UNL     1      -0.549  -1.526  -4.669  0.00  0.00    +0.010 A 
ATOM     26  C   UNL     1      -0.987  -1.731  -5.962  0.00  0.00    +0.001 A 
ATOM     27  C   UNL     1      -0.316  -2.613  -6.790  0.00  0.00    +0.000 A 
ATOM     28  C   UNL     1       0.795  -3.294  -6.328  0.00  0.00    +0.001 A 
ATOM     29  C   UNL     1       1.245  -3.092  -5.039  0.00  0.00    +0.010 A 
ENDBRANCH  22  24
ENDBRANCH   2  17
TORSDOF 4
