REMARK  Name = ZINC36743062
REMARK  5 active torsions:
REMARK  status: ('A' for Active; 'I' for Inactive)
REMARK    1  A    between atoms: C_1  and  C_2
REMARK    2  A    between atoms: C_2  and  S_3
REMARK    3  A    between atoms: S_3  and  N_6
REMARK    4  A    between atoms: C_9  and  C_12
REMARK    5  A    between atoms: C_16  and  N_18
REMARK                            x       y       z     vdW  Elec       q    Type
REMARK                         _______ _______ _______ _____ _____    ______ ____
ROOT
ATOM      1  N   UNL     1      -1.545  -2.281   0.005  0.00  0.00    -0.108 NA
ATOM      2  C   UNL     1      -2.613  -3.038   0.011  0.00  0.00    +0.191 A 
ATOM      3  N   UNL     1      -2.705  -4.413   0.010  0.00  0.00    -0.332 N 
ATOM      4  C   UNL     1      -3.950  -4.986   0.018  0.00  0.00    +0.055 A 
ATOM      5  C   UNL     1      -5.045  -4.200   0.026  0.00  0.00    +0.075 A 
ATOM      6  S   UNL     1      -4.334  -2.563   0.030  0.00  0.00    -0.056 S 
ATOM      7  H   UNL     1      -1.906  -4.963   0.004  0.00  0.00    +0.168 HD
ENDROOT
BRANCH   4   8
ATOM      8  C   UNL     1      -4.091  -6.458   0.017  0.00  0.00    +0.001 A 
ATOM      9  C   UNL     1      -2.955  -7.270   0.013  0.00  0.00    +0.010 A 
ATOM     10  C   UNL     1      -3.090  -8.644   0.013  0.00  0.00    +0.002 A 
ATOM     11  C   UNL     1      -4.346  -9.220   0.016  0.00  0.00    +0.023 A 
ATOM     12  C   UNL     1      -5.483  -8.420   0.019  0.00  0.00    +0.025 A 
ATOM     13  C   UNL     1      -5.359  -7.039   0.025  0.00  0.00    +0.032 A 
BRANCH  12  14
ATOM     14  N   UNL     1      -6.750  -9.008   0.022  0.00  0.00    -0.358 N 
ATOM     15  H   UNL     1      -6.837  -9.974   0.021  0.00  0.00    +0.142 HD
ATOM     16  H   UNL     1      -7.544  -8.449   0.024  0.00  0.00    +0.142 HD
ENDBRANCH  12  14
ENDBRANCH   4   8
BRANCH   1  17
ATOM     17  S   UNL     1      -1.700  -0.632   0.015  0.00  0.00    +0.071 S 
ATOM     18  O   UNL     1      -2.322  -0.334   1.257  0.00  0.00    -0.152 OA
ATOM     19  O   UNL     1      -2.346  -0.321  -1.212  0.00  0.00    -0.152 OA
BRANCH  17  21
ATOM     20  C   UNL     1      -0.019   1.526   0.010  0.00  0.00    +0.030 C 
ATOM     21  C   UNL     1       0.002  -0.004   0.002  0.00  0.00    +0.189 C 
ENDBRANCH  17  21
ENDBRANCH   1  17
TORSDOF 4
