REMARK  Name = ZINC08592746
REMARK  14 active torsions:
REMARK  status: ('A' for Active; 'I' for Inactive)
REMARK    1  A    between atoms: C_1  and  C_2
REMARK    2  A    between atoms: C_2  and  O_3
REMARK    3  A    between atoms: O_3  and  C_4
REMARK    4  A    between atoms: C_4  and  C_6
REMARK    5  A    between atoms: C_7  and  C_22
REMARK    6  A    between atoms: C_12  and  C_14
REMARK    7  A    between atoms: C_18  and  O_20
REMARK    8  A    between atoms: O_20  and  C_21
REMARK    9  A    between atoms: C_22  and  S_23
REMARK   10  A    between atoms: S_23  and  C_26
REMARK   11  A    between atoms: C_29  and  C_32
REMARK   12  A    between atoms: C_32  and  C_33
REMARK   13  A    between atoms: C_32  and  C_34
REMARK   14  A    between atoms: C_32  and  C_35
REMARK                            x       y       z     vdW  Elec       q    Type
REMARK                         _______ _______ _______ _____ _____    ______ ____
ROOT
ATOM      1  C   UNL     1       1.331  -2.340  -2.529  0.00  0.00    +0.080 C 
ATOM      2  C   UNL     1       1.628  -3.654  -2.615  0.00  0.00    +0.045 C 
ATOM      3  N   UNL     1       2.351  -4.147  -3.663  0.00  0.00    -0.271 N 
ATOM      4  C   UNL     1       2.814  -3.390  -4.666  0.00  0.00    +0.304 C 
ATOM      5  O   UNL     1       3.450  -3.920  -5.557  0.00  0.00    -0.252 OA
ATOM      6  N   UNL     1       2.599  -2.061  -4.720  0.00  0.00    -0.288 N 
ATOM      7  C   UNL     1       1.823  -1.432  -3.639  0.00  0.00    +0.144 C 
ATOM      8  H   UNL     1       2.539  -5.098  -3.683  0.00  0.00    +0.156 HD
ATOM      9  H   UNL     1       2.945  -1.532  -5.456  0.00  0.00    +0.151 HD
ENDROOT
BRANCH   7  10
ATOM     10  C   UNL     1       2.684  -0.363  -3.017  0.00  0.00    -0.019 A 
ATOM     11  C   UNL     1       3.999  -0.639  -2.688  0.00  0.00    +0.006 A 
ATOM     12  C   UNL     1       4.791   0.339  -2.117  0.00  0.00    +0.004 A 
ATOM     13  C   UNL     1       4.271   1.596  -1.873  0.00  0.00    +0.045 A 
ATOM     14  C   UNL     1       2.953   1.876  -2.203  0.00  0.00    +0.120 A 
ATOM     15  C   UNL     1       2.162   0.894  -2.781  0.00  0.00    +0.051 A 
BRANCH  14  16
ATOM     16  O   UNL     1       2.439   3.111  -1.964  0.00  0.00    -0.495 OA
ATOM     17  C   UNL     1       3.314   4.074  -1.372  0.00  0.00    +0.277 C 
ENDBRANCH  14  16
ENDBRANCH   7  10
BRANCH   1  18
ATOM     18  C   UNL     1       0.582  -1.828  -1.444  0.00  0.00    +0.339 C 
ATOM     19  O   UNL     1      -0.603  -1.585  -1.583  0.00  0.00    -0.245 OA
BRANCH  18  20
ATOM     20  O   UNL     1       1.180  -1.609  -0.255  0.00  0.00    -0.462 OA
BRANCH  20  22
ATOM     21  C   UNL     1       1.210  -0.910   2.058  0.00  0.00    +0.048 C 
ATOM     22  C   UNL     1       0.363  -1.091   0.797  0.00  0.00    +0.229 C 
ENDBRANCH  20  22
ENDBRANCH  18  20
ENDBRANCH   1  18
BRANCH   2  23
ATOM     23  C   UNL     1       1.153  -4.593  -1.536  0.00  0.00    +0.223 C 
BRANCH  23  24
ATOM     24  S   UNL     1      -0.251  -5.562  -2.152  0.00  0.00    +0.002 S 
ATOM     25  O   UNL     1      -1.378  -4.719  -2.351  0.00  0.00    -0.169 OA
ATOM     26  O   UNL     1       0.178  -6.451  -3.174  0.00  0.00    -0.169 OA
BRANCH  24  27
ATOM     27  C   UNL     1      -0.705  -6.607  -0.808  0.00  0.00    +0.089 A 
ATOM     28  C   UNL     1      -0.124  -7.855  -0.676  0.00  0.00    +0.027 A 
ATOM     29  C   UNL     1      -0.479  -8.675   0.379  0.00  0.00    +0.006 A 
ATOM     30  C   UNL     1      -1.415  -8.247   1.302  0.00  0.00    -0.042 A 
ATOM     31  C   UNL     1      -1.996  -6.999   1.171  0.00  0.00    +0.006 A 
ATOM     32  C   UNL     1      -1.637  -6.177   0.118  0.00  0.00    +0.027 A 
BRANCH  30  33
ATOM     33  C   UNL     1      -1.804  -9.141   2.451  0.00  0.00    -0.013 C 
ATOM     34  C   UNL     1      -0.567  -9.452   3.296  0.00  0.00    +0.015 C 
ATOM     35  C   UNL     1      -2.848  -8.434   3.317  0.00  0.00    +0.015 C 
ATOM     36  C   UNL     1      -2.391 -10.445   1.906  0.00  0.00    +0.015 C 
ENDBRANCH  30  33
ENDBRANCH  24  27
ENDBRANCH  23  24
ENDBRANCH   2  23
TORSDOF 9
