REMARK  Name = ZINC43225716
REMARK  10 active torsions:
REMARK  status: ('A' for Active; 'I' for Inactive)
REMARK    1  A    between atoms: C_1  and  C_2
REMARK    2  A    between atoms: C_2  and  C_3
REMARK    3  A    between atoms: C_3  and  C_4
REMARK    4  A    between atoms: C_5  and  C_22
REMARK    5  A    between atoms: C_6  and  C_19
REMARK    6  A    between atoms: C_7  and  C_18
REMARK    7  A    between atoms: N_8  and  C_9
REMARK    8  A    between atoms: C_9  and  C_10
REMARK    9  A    between atoms: C_10  and  C_11
REMARK   10  A    between atoms: C_14  and  O_17
REMARK                            x       y       z     vdW  Elec       q    Type
REMARK                         _______ _______ _______ _____ _____    ______ ____
ROOT
ATOM      1  C   UNL     1       0.762  -2.018   1.233  0.00  0.00    +0.028 A 
ATOM      2  C   UNL     1      -0.181  -2.827   1.785  0.00  0.00    +0.022 A 
ATOM      3  C   UNL     1       0.267  -4.208   1.527  0.00  0.00    +0.065 A 
ATOM      4  C   UNL     1       1.444  -4.102   0.840  0.00  0.00    +0.029 A 
ATOM      5  N   UNL     1       1.727  -2.797   0.666  0.00  0.00    -0.346 N 
ATOM      6  C   UNL     1       2.283  -5.255   0.354  0.00  0.00    +0.064 C 
ENDROOT
BRANCH   3   7
ATOM      7  C   UNL     1      -0.415  -5.448   1.927  0.00  0.00    +0.244 C 
ATOM      8  O   UNL     1      -1.228  -5.963   1.183  0.00  0.00    -0.270 OA
ATOM      9  N   UNL     1      -0.139  -6.014   3.119  0.00  0.00    -0.325 N 
ATOM     10  H   UNL     1       0.509  -5.603   3.712  0.00  0.00    +0.145 HD
ATOM     11  H   UNL     1      -0.589  -6.832   3.383  0.00  0.00    +0.145 HD
ENDBRANCH   3   7
BRANCH   2  12
ATOM     12  C   UNL     1      -1.405  -2.407   2.499  0.00  0.00    +0.022 A 
ATOM     13  C   UNL     1      -2.715  -2.599   2.151  0.00  0.00    +0.016 A 
ATOM     14  C   UNL     1      -3.700  -2.113   2.985  0.00  0.00    +0.008 A 
ATOM     15  C   UNL     1      -3.343  -1.461   4.120  0.00  0.00    +0.046 A 
ATOM     16  S   UNL     1      -1.560  -1.525   4.043  0.00  0.00    -0.097 S 
ENDBRANCH   2  12
BRANCH   1  17
ATOM     17  C   UNL     1       0.742  -0.511   1.242  0.00  0.00    +0.054 C 
BRANCH  17  19
ATOM     18  C   UNL     1      -0.019   1.526   0.010  0.00  0.00    +0.004 C 
ATOM     19  C   UNL     1       0.002  -0.004   0.002  0.00  0.00    +0.003 C 
ENDBRANCH  17  19
ENDBRANCH   1  17
BRANCH   5  20
ATOM     20  C   UNL     1       2.909  -2.286  -0.032  0.00  0.00    +0.126 C 
BRANCH  20  21
ATOM     21  C   UNL     1       4.053  -2.105   0.967  0.00  0.00    +0.056 C 
BRANCH  21  22
ATOM     22  C   UNL     1       5.269  -1.579   0.249  0.00  0.00    -0.045 A 
ATOM     23  C   UNL     1       6.184  -2.461  -0.295  0.00  0.00    +0.007 A 
ATOM     24  C   UNL     1       7.300  -1.981  -0.954  0.00  0.00    +0.045 A 
ATOM     25  C   UNL     1       7.502  -0.614  -1.069  0.00  0.00    +0.117 A 
ATOM     26  C   UNL     1       6.582   0.269  -0.522  0.00  0.00    +0.045 A 
ATOM     27  C   UNL     1       5.465  -0.215   0.131  0.00  0.00    +0.007 A 
BRANCH  25  28
ATOM     28  O   UNL     1       8.599  -0.139  -1.716  0.00  0.00    -0.507 OA
ATOM     29  H   UNL     1       8.467   0.000  -2.663  0.00  0.00    +0.292 HD
ENDBRANCH  25  28
ENDBRANCH  21  22
ENDBRANCH  20  21
ENDBRANCH   5  20
TORSDOF 8
