REMARK  Name = ZINC00717291
REMARK  5 active torsions:
REMARK  status: ('A' for Active; 'I' for Inactive)
REMARK    1  A    between atoms: C_5  and  C_7
REMARK    2  A    between atoms: N_9  and  C_10
REMARK    3  A    between atoms: C_10  and  N_12
REMARK    4  A    between atoms: N_12  and  C_13
REMARK    5  A    between atoms: C_14  and  C_24
REMARK                            x       y       z     vdW  Elec       q    Type
REMARK                         _______ _______ _______ _____ _____    ______ ____
ROOT
ATOM      1  C   UNL     1      -2.371   1.876   3.318  0.00  0.00    +0.084 A 
ATOM      2  C   UNL     1      -1.620   2.964   2.922  0.00  0.00    +0.068 A 
ATOM      3  C   UNL     1      -0.691   2.796   1.798  0.00  0.00    -0.023 A 
ATOM      4  C   UNL     1      -0.742   1.584   1.224  0.00  0.00    -0.004 A 
ATOM      5  S   UNL     1      -1.892   0.646   2.199  0.00  0.00    -0.077 S 
ATOM      6  C   UNL     1      -0.013   1.086   0.008  0.00  0.00    +0.043 C 
ATOM      7  C   UNL     1      -0.784   1.609  -1.217  0.00  0.00    +0.005 C 
ATOM      8  C   UNL     1      -0.934   3.129  -1.077  0.00  0.00    +0.000 C 
ATOM      9  C   UNL     1       0.477   3.675  -1.077  0.00  0.00    +0.000 C 
ATOM     10  C   UNL     1       1.164   3.617   0.277  0.00  0.00    +0.005 C 
ATOM     11  C   UNL     1       0.225   3.963   1.426  0.00  0.00    +0.037 C 
ENDROOT
BRANCH   2  12
ATOM     12  C   UNL     1      -1.742   4.252   3.611  0.00  0.00    +0.244 C 
ATOM     13  O   UNL     1      -2.553   5.074   3.225  0.00  0.00    -0.270 OA
ATOM     14  N   UNL     1      -0.957   4.527   4.671  0.00  0.00    -0.325 N 
ATOM     15  H   UNL     1      -0.311   3.872   4.978  0.00  0.00    +0.145 HD
ATOM     16  H   UNL     1      -1.038   5.379   5.127  0.00  0.00    +0.145 HD
ENDBRANCH   2  12
BRANCH   1  17
ATOM     17  N   UNL     1      -3.287   1.790   4.354  0.00  0.00    -0.291 N 
ATOM     18  H   UNL     1      -3.462   2.565   4.912  0.00  0.00    +0.154 HD
BRANCH  17  19
ATOM     19  C   UNL     1      -3.934   0.631   4.588  0.00  0.00    +0.141 C 
ATOM     20  S   UNL     1      -3.624  -0.735   3.604  0.00  0.00    -0.018 S 
BRANCH  19  23
ATOM     21  C   UNL     1      -5.472  -0.611   5.830  0.00  0.00    +0.251 C 
ATOM     22  O   UNL     1      -5.252  -1.581   5.131  0.00  0.00    -0.270 OA
ATOM     23  N   UNL     1      -4.825   0.548   5.596  0.00  0.00    -0.264 N 
ATOM     24  H   UNL     1      -5.000   1.323   6.153  0.00  0.00    +0.157 HD
BRANCH  21  29
ATOM     25  C   UNL     1      -7.615   0.319   8.769  0.00  0.00    +0.001 A 
ATOM     26  C   UNL     1      -8.278  -0.873   9.007  0.00  0.00    +0.001 A 
ATOM     27  C   UNL     1      -8.032  -1.979   8.214  0.00  0.00    +0.021 A 
ATOM     28  C   UNL     1      -7.121  -1.902   7.179  0.00  0.00    +0.053 A 
ATOM     29  C   UNL     1      -6.448  -0.702   6.934  0.00  0.00    +0.055 A 
ATOM     30  C   UNL     1      -6.699   0.409   7.742  0.00  0.00    +0.014 A 
ATOM     31 CL   UNL     1      -6.812  -3.292   6.186  0.00  0.00    -0.083 Cl
ENDBRANCH  21  29
ENDBRANCH  19  23
ENDBRANCH  17  19
ENDBRANCH   1  17
TORSDOF 5
