REMARK  Name = ZINC24897827
REMARK  9 active torsions:
REMARK  status: ('A' for Active; 'I' for Inactive)
REMARK    1  A    between atoms: C_1  and  N_2
REMARK    2  A    between atoms: N_2  and  C_3
REMARK    3  A    between atoms: N_2  and  C_4
REMARK    4  A    between atoms: C_8  and  C_10
REMARK    5  A    between atoms: C_15  and  N_18
REMARK    6  A    between atoms: C_27  and  C_29
REMARK    7  A    between atoms: C_29  and  C_30
REMARK    8  A    between atoms: N_32  and  C_33
REMARK    9  A    between atoms: C_33  and  C_34
REMARK                            x       y       z     vdW  Elec       q    Type
REMARK                         _______ _______ _______ _____ _____    ______ ____
ROOT
ATOM      1  N   UNL     1       4.147   7.444   2.367  0.00  0.00    +0.387 N 
ATOM      2  C   UNL     1       4.200   8.902   2.554  0.00  0.00    -0.073 C 
ATOM      3  C   UNL     1       4.921   9.197   3.871  0.00  0.00    +0.017 C 
ATOM      4  C   UNL     1       6.225   8.443   3.923  0.00  0.00    -0.047 A 
ATOM      5  C   UNL     1       7.178   8.835   4.850  0.00  0.00    +0.004 A 
ATOM      6  C   UNL     1       8.383   8.166   4.938  0.00  0.00    +0.000 A 
ATOM      7  C   UNL     1       8.640   7.100   4.095  0.00  0.00    +0.000 A 
ATOM      8  C   UNL     1       7.692   6.710   3.170  0.00  0.00    +0.002 A 
ATOM      9  C   UNL     1       6.482   7.382   3.081  0.00  0.00    -0.057 A 
ATOM     10  C   UNL     1       5.481   6.923   2.053  0.00  0.00    -0.028 C 
ATOM     11  H   UNL     1       3.809   6.982   3.307  0.00  0.00    -0.081 HD
ENDROOT
BRANCH   1  17
ATOM     12  C   UNL     1       0.249   8.390  -1.242  0.00  0.00    +0.247 C 
ATOM     13  O   UNL     1      -0.845   8.624  -0.766  0.00  0.00    -0.270 OA
ATOM     14  N   UNL     1       1.138   7.648  -0.552  0.00  0.00    -0.298 N 
ATOM     15  C   UNL     1       0.760   7.016   0.719  0.00  0.00    +0.106 C 
ATOM     16  C   UNL     1       1.766   7.421   1.795  0.00  0.00    +0.004 C 
ATOM     17  C   UNL     1       3.181   7.082   1.321  0.00  0.00    -0.065 C 
ATOM     18  C   UNL     1       3.494   7.866   0.045  0.00  0.00    +0.004 C 
ATOM     19  C   UNL     1       2.507   7.461  -1.054  0.00  0.00    +0.106 C 
BRANCH  12  24
ATOM     20  C   UNL     1       0.503  10.671  -4.221  0.00  0.00    +0.030 A 
ATOM     21  C   UNL     1       1.276   9.902  -5.082  0.00  0.00    +0.023 A 
ATOM     22  C   UNL     1       1.716   8.651  -4.691  0.00  0.00    +0.003 A 
ATOM     23  C   UNL     1       1.385   8.155  -3.446  0.00  0.00    +0.013 A 
ATOM     24  C   UNL     1       0.604   8.918  -2.576  0.00  0.00    +0.039 A 
ATOM     25  C   UNL     1       0.161  10.181  -2.970  0.00  0.00    +0.036 A 
BRANCH  20  27
ATOM     26  C   UNL     1       0.423  12.455  -5.941  0.00  0.00    +0.129 C 
ATOM     27  N   UNL     1       0.066  11.938  -4.617  0.00  0.00    -0.336 N 
ATOM     28  C   UNL     1      -0.749  12.749  -3.710  0.00  0.00    +0.129 C 
ENDBRANCH  20  27
ENDBRANCH  12  24
ENDBRANCH   1  17
BRANCH  10  29
ATOM     29  C   UNL     1       5.436   5.393   2.041  0.00  0.00    +0.085 C 
BRANCH  29  30
ATOM     30  C   UNL     1       4.972   4.894   3.385  0.00  0.00    +0.212 C 
ATOM     31  O   UNL     1       4.598   5.681   4.229  0.00  0.00    -0.276 OA
ATOM     32  N   UNL     1       4.973   3.572   3.650  0.00  0.00    -0.308 N 
ATOM     33  H   UNL     1       5.391   2.865   2.918  0.00  0.00    +0.149 HD
BRANCH  32  34
ATOM     34  C   UNL     1       4.417   3.077   4.911  0.00  0.00    +0.178 C 
BRANCH  34  35
ATOM     35  C   UNL     1       4.646   1.591   5.013  0.00  0.00    +0.122 A 
ATOM     36  C   UNL     1       5.678   0.996   5.637  0.00  0.00    +0.046 A 
ATOM     37  C   UNL     1       5.497  -0.399   5.489  0.00  0.00    +0.041 A 
ATOM     38  C   UNL     1       4.369  -0.572   4.777  0.00  0.00    +0.195 A 
ATOM     39  O   UNL     1       3.858   0.637   4.491  0.00  0.00    -0.466 OA
ENDBRANCH  34  35
ENDBRANCH  32  34
ENDBRANCH  29  30
ENDBRANCH  10  29
TORSDOF 7
