REMARK  Name = ZINC09883992
REMARK  9 active torsions:
REMARK  status: ('A' for Active; 'I' for Inactive)
REMARK    1  A    between atoms: C_9  and  C_10
REMARK    2  A    between atoms: C_9  and  C_12
REMARK    3  A    between atoms: C_12  and  C_14
REMARK    4  A    between atoms: C_14  and  O_15
REMARK    5  A    between atoms: O_15  and  C_16
REMARK    6  A    between atoms: C_16  and  C_18
REMARK    7  A    between atoms: C_18  and  S_19
REMARK    8  A    between atoms: S_19  and  C_20
REMARK    9  A    between atoms: N_25  and  C_26
REMARK                            x       y       z     vdW  Elec       q    Type
REMARK                         _______ _______ _______ _____ _____    ______ ____
ROOT
ATOM      1  O   UNL     1       1.630  -5.575   9.605  0.00  0.00    -0.456 OA
ENDROOT
BRANCH   1   2
ATOM      2  C   UNL     1       1.510  -5.951   8.322  0.00  0.00    +0.318 C 
ATOM      3  O   UNL     1       1.499  -7.125   8.035  0.00  0.00    -0.250 OA
BRANCH   2   4
ATOM      4  C   UNL     1       1.389  -4.910   7.240  0.00  0.00    +0.196 C 
BRANCH   4   5
ATOM      5  S   UNL     1       1.243  -5.727   5.627  0.00  0.00    -0.086 S 
BRANCH   5   6
ATOM      6  C   UNL     1       1.113  -4.394   4.483  0.00  0.00    +0.160 A 
ATOM      7  N   UNL     1       1.117  -3.094   4.710  0.00  0.00    -0.133 NA
ATOM      8  N   UNL     1       1.006  -2.215   3.658  0.00  0.00    -0.125 NA
ATOM      9  C   UNL     1       0.888  -2.676   2.428  0.00  0.00    +0.183 A 
ATOM     10  S   UNL     1       0.940  -4.439   2.706  0.00  0.00    -0.025 S 
ATOM     11  N   UNL     1       0.762  -1.976   1.234  0.00  0.00    -0.319 N 
ATOM     12  H   UNL     1       0.687  -2.457   0.395  0.00  0.00    +0.148 HD
BRANCH  11  13
ATOM     13  C   UNL     1       0.742  -0.511   1.242  0.00  0.00    +0.072 C 
ATOM     14  C   UNL     1       0.002  -0.004   0.002  0.00  0.00    +0.022 C 
ATOM     15  C   UNL     1      -0.019   1.526   0.010  0.00  0.00    +0.002 C 
ATOM     16  C   UNL     1       1.417   2.055  -0.000  0.00  0.00    +0.000 C 
ATOM     17  C   UNL     1       2.157   1.548   1.239  0.00  0.00    +0.002 C 
ATOM     18  C   UNL     1       2.178   0.019   1.231  0.00  0.00    +0.022 C 
ENDBRANCH  11  13
ENDBRANCH   5   6
ENDBRANCH   4   5
ENDBRANCH   2   4
ENDBRANCH   1   2
BRANCH   1  19
ATOM     19  C   UNL     1       1.742  -6.632  10.594  0.00  0.00    +0.312 C 
BRANCH  19  20
ATOM     20  C   UNL     1       1.867  -6.024  11.967  0.00  0.00    +0.214 C 
ATOM     21  O   UNL     1       1.863  -4.816  12.100  0.00  0.00    -0.288 OA
BRANCH  20  30
ATOM     22  C   UNL     1       2.518  -5.100  18.764  0.00  0.00    +0.002 A 
ATOM     23  C   UNL     1       2.445  -3.833  18.210  0.00  0.00    +0.002 A 
ATOM     24  C   UNL     1       2.310  -3.677  16.845  0.00  0.00    +0.025 A 
ATOM     25  C   UNL     1       2.246  -4.794  16.024  0.00  0.00    +0.054 A 
ATOM     26  C   UNL     1       2.319  -6.072  16.583  0.00  0.00    +0.054 A 
ATOM     27  C   UNL     1       2.455  -6.218  17.957  0.00  0.00    +0.025 A 
ATOM     28  N   UNL     1       2.229  -6.982  15.536  0.00  0.00    -0.300 N 
ATOM     29  C   UNL     1       2.106  -6.287  14.376  0.00  0.00    +0.114 C 
ATOM     30  C   UNL     1       1.989  -6.854  13.095  0.00  0.00    +0.133 C 
ATOM     31  N   UNL     1       2.120  -4.956  14.649  0.00  0.00    -0.300 N 
ATOM     32  H   UNL     1       2.252  -7.948  15.620  0.00  0.00    +0.153 HD
ATOM     33  H   UNL     1       2.051  -4.242  13.997  0.00  0.00    +0.153 HD
BRANCH  30  34
ATOM     34  C   UNL     1       1.994  -8.277  12.939  0.00  0.00    +0.106 C 
ATOM     35  N   UNL     1       1.998  -9.407  12.815  0.00  0.00    -0.191 NA
ENDBRANCH  30  34
ENDBRANCH  20  30
ENDBRANCH  19  20
ENDBRANCH   1  19
TORSDOF 9
