REMARK  Name = ZINC13064345
REMARK  11 active torsions:
REMARK  status: ('A' for Active; 'I' for Inactive)
REMARK    1  A    between atoms: C_1  and  C_2
REMARK    2  A    between atoms: C_2  and  C_3
REMARK    3  A    between atoms: C_3  and  C_5
REMARK    4  A    between atoms: C_3  and  N_67
REMARK    5  A    between atoms: N_9  and  C_10
REMARK    6  A    between atoms: C_10  and  C_11
REMARK    7  A    between atoms: C_16  and  C_17
REMARK    8  A    between atoms: C_16  and  N_67
REMARK    9  A    between atoms: C_22  and  O_29
REMARK   10  A    between atoms: O_29  and  C_30
REMARK   11  A    between atoms: C_31  and  N_67
REMARK                            x       y       z     vdW  Elec       q    Type
REMARK                         _______ _______ _______ _____ _____    ______ ____
ROOT
ATOM      1  N   UNL     1       2.833   0.058   8.626  0.00  0.00    +0.391 N 
ATOM      2  H   UNL     1       3.488   0.404   7.915  0.00  0.00    -0.080 HD
ENDROOT
BRANCH   1   3
ATOM      3  C   UNL     1       1.645   0.937   8.653  0.00  0.00    -0.067 C 
ATOM      4  C   UNL     1       1.528   1.636   7.297  0.00  0.00    -0.015 C 
ATOM      5  C   UNL     1       0.309   2.561   7.304  0.00  0.00    -0.002 C 
ATOM      6  C   UNL     1       0.471   3.610   8.407  0.00  0.00    -0.000 C 
ATOM      7  C   UNL     1       0.588   2.910   9.762  0.00  0.00    -0.002 C 
ATOM      8  C   UNL     1       1.807   1.985   9.755  0.00  0.00    -0.015 C 
ENDBRANCH   1   3
BRANCH   1   9
ATOM      9  C   UNL     1       3.504   0.075   9.944  0.00  0.00    +0.003 C 
BRANCH   9  10
ATOM     10  C   UNL     1       2.643  -0.594  10.983  0.00  0.00    +0.139 A 
ATOM     11  N   UNL     1       1.709  -1.489  10.769  0.00  0.00    -0.115 NA
ATOM     12  N   UNL     1       1.203  -1.816  11.907  0.00  0.00    -0.023 NA
ATOM     13  N   UNL     1       1.789  -1.154  12.843  0.00  0.00    -0.044 NA
ATOM     14  N   UNL     1       2.687  -0.393  12.314  0.00  0.00    -0.223 N 
BRANCH  14  15
ATOM     15  C   UNL     1       3.583   0.520  13.027  0.00  0.00    +0.221 C 
BRANCH  15  16
ATOM     16  C   UNL     1       2.801   1.714  13.512  0.00  0.00    +0.126 A 
ATOM     17  C   UNL     1       2.146   1.801  14.684  0.00  0.00    +0.046 A 
ATOM     18  C   UNL     1       1.559   3.087  14.730  0.00  0.00    +0.041 A 
ATOM     19  C   UNL     1       1.884   3.705  13.580  0.00  0.00    +0.195 A 
ATOM     20  O   UNL     1       2.636   2.869  12.847  0.00  0.00    -0.466 OA
ENDBRANCH  15  16
ENDBRANCH  14  15
ENDBRANCH   9  10
BRANCH   9  22
ATOM     21  C   UNL     1       5.741   0.056   8.830  0.00  0.00    +0.002 C 
ATOM     22  C   UNL     1       4.836  -0.669   9.829  0.00  0.00    -0.011 C 
ENDBRANCH   9  22
ENDBRANCH   1   9
BRANCH   1  23
ATOM     23  C   UNL     1       2.433  -1.322   8.281  0.00  0.00    -0.036 C 
BRANCH  23  24
ATOM     24  C   UNL     1       2.214  -1.403   6.792  0.00  0.00    +0.001 A 
ATOM     25  C   UNL     1       3.221  -1.815   5.982  0.00  0.00    +0.017 A 
ATOM     26  C   UNL     1       2.977  -1.882   4.542  0.00  0.00    -0.001 A 
ATOM     27  C   UNL     1       3.979  -2.299   3.657  0.00  0.00    +0.013 A 
ATOM     28  C   UNL     1       3.720  -2.357   2.319  0.00  0.00    +0.046 A 
ATOM     29  C   UNL     1       2.469  -1.993   1.823  0.00  0.00    +0.122 A 
ATOM     30  C   UNL     1       1.466  -1.577   2.681  0.00  0.00    +0.072 A 
ATOM     31  C   UNL     1       1.709  -1.518   4.047  0.00  0.00    +0.053 A 
ATOM     32  N   UNL     1       0.728  -1.107   4.925  0.00  0.00    -0.322 N 
ATOM     33  H   UNL     1      -0.145  -0.856   4.583  0.00  0.00    +0.169 HD
ATOM     34  C   UNL     1       0.963  -1.049   6.247  0.00  0.00    +0.251 A 
ATOM     35  O   UNL     1       0.072  -0.681   6.994  0.00  0.00    -0.268 OA
BRANCH  29  36
ATOM     36  O   UNL     1       2.231  -2.052   0.488  0.00  0.00    -0.495 OA
ATOM     37  C   UNL     1       3.307  -2.489  -0.345  0.00  0.00    +0.277 C 
ENDBRANCH  29  36
ENDBRANCH  23  24
ENDBRANCH   1  23
TORSDOF 9
