REMARK  Name = ZINC44171465
REMARK  10 active torsions:
REMARK  status: ('A' for Active; 'I' for Inactive)
REMARK    1  A    between atoms: C_1  and  C_2
REMARK    2  A    between atoms: C_2  and  C_3
REMARK    3  A    between atoms: C_8  and  C_9
REMARK    4  A    between atoms: C_15  and  C_18
REMARK    5  A    between atoms: N_20  and  C_21
REMARK    6  A    between atoms: C_21  and  C_22
REMARK    7  A    between atoms: C_30  and  C_36
REMARK    8  A    between atoms: C_30  and  C_37
REMARK    9  A    between atoms: C_33  and  C_34
REMARK   10  A    between atoms: C_33  and  C_35
REMARK                            x       y       z     vdW  Elec       q    Type
REMARK                         _______ _______ _______ _____ _____    ______ ____
ROOT
ATOM      1  C   UNL     1       2.875  -0.312   0.219  0.00  0.00    -0.027 C 
ATOM      2  C   UNL     1       2.924   1.208   0.413  0.00  0.00    +0.092 C 
ATOM      3  S   UNL     1       3.689   1.552   2.028  0.00  0.00    +0.020 S 
ATOM      4  O   UNL     1       4.044   2.926   2.101  0.00  0.00    -0.257 OA
ATOM      5  C   UNL     1       5.199   0.537   1.978  0.00  0.00    +0.097 C 
ATOM      6  C   UNL     1       4.810  -0.882   1.549  0.00  0.00    +0.029 C 
ATOM      7  N   UNL     1       4.235  -0.854   0.202  0.00  0.00    +0.392 N 
ATOM      8  H   UNL     1       4.212  -1.793  -0.167  0.00  0.00    -0.084 HD
ATOM      9  H   UNL     1       4.812  -0.279  -0.393  0.00  0.00    -0.084 HD
ENDROOT
BRANCH   1  15
ATOM     10  C   UNL     1       0.815  -0.707  -1.151  0.00  0.00    -0.046 A 
ATOM     11  C   UNL     1       0.200  -0.994  -2.352  0.00  0.00    +0.008 A 
ATOM     12  C   UNL     1       0.953  -1.208  -3.498  0.00  0.00    -0.038 A 
ATOM     13  C   UNL     1       2.327  -1.130  -3.436  0.00  0.00    -0.038 A 
ATOM     14  C   UNL     1       2.945  -0.844  -2.225  0.00  0.00    +0.006 A 
ATOM     15  C   UNL     1       2.194  -0.628  -1.088  0.00  0.00    -0.057 A 
ATOM     16  C   UNL     1       3.206  -1.335  -4.641  0.00  0.00    -0.010 C 
ATOM     17  C   UNL     1       2.437  -2.047  -5.752  0.00  0.00    +0.012 C 
ATOM     18  C   UNL     1       1.119  -1.299  -5.985  0.00  0.00    +0.012 C 
ATOM     19  C   UNL     1       0.217  -1.525  -4.773  0.00  0.00    -0.010 C 
ATOM     20  C   UNL     1      -0.234  -2.987  -4.745  0.00  0.00    +0.016 C 
ATOM     21  C   UNL     1      -1.012  -0.621  -4.884  0.00  0.00    +0.016 C 
ATOM     22  C   UNL     1       3.687   0.025  -5.152  0.00  0.00    +0.016 C 
ATOM     23  C   UNL     1       4.418  -2.180  -4.245  0.00  0.00    +0.016 C 
BRANCH  10  25
ATOM     24  C   UNL     1      -0.164  -1.789   0.854  0.00  0.00    +0.009 C 
ATOM     25  C   UNL     1      -0.012  -0.474   0.087  0.00  0.00    +0.032 C 
ENDBRANCH  10  25
ENDBRANCH   1  15
BRANCH   6  26
ATOM     26  C   UNL     1       3.794  -1.436   2.515  0.00  0.00    +0.200 C 
ATOM     27  O   UNL     1       2.907  -2.159   2.114  0.00  0.00    -0.278 OA
ATOM     28  N   UNL     1       3.872  -1.128   3.825  0.00  0.00    -0.312 N 
ATOM     29  H   UNL     1       4.582  -0.550   4.146  0.00  0.00    +0.149 HD
BRANCH  28  30
ATOM     30  C   UNL     1       2.885  -1.667   4.764  0.00  0.00    +0.142 C 
BRANCH  30  31
ATOM     31  C   UNL     1       3.194  -1.175   6.155  0.00  0.00    +0.008 A 
ATOM     32  C   UNL     1       3.863  -1.994   7.045  0.00  0.00    +0.046 A 
ATOM     33  C   UNL     1       4.147  -1.542   8.322  0.00  0.00    +0.124 A 
ATOM     34  C   UNL     1       3.762  -0.270   8.708  0.00  0.00    +0.041 A 
ATOM     35  C   UNL     1       3.094   0.549   7.818  0.00  0.00    +0.041 A 
ATOM     36  C   UNL     1       2.814   0.099   6.539  0.00  0.00    +0.128 A 
ATOM     37  F   UNL     1       2.165   0.902   5.667  0.00  0.00    -0.205 F 
ATOM     38  F   UNL     1       4.801  -2.343   9.192  0.00  0.00    -0.205 F 
ENDBRANCH  30  31
ENDBRANCH  28  30
ENDBRANCH   6  26
TORSDOF 5
