REMARK  Name = ZINC09220983
REMARK  8 active torsions:
REMARK  status: ('A' for Active; 'I' for Inactive)
REMARK    1  A    between atoms: C_1  and  C_2
REMARK    2  A    between atoms: C_2  and  C_3
REMARK    3  A    between atoms: C_2  and  C_4
REMARK    4  A    between atoms: C_4  and  C_6
REMARK    5  A    between atoms: C_4  and  N_12
REMARK    6  A    between atoms: N_18  and  C_21
REMARK    7  A    between atoms: C_24  and  C_30
REMARK    8  A    between atoms: C_26  and  N_27
REMARK                            x       y       z     vdW  Elec       q    Type
REMARK                         _______ _______ _______ _____ _____    ______ ____
ROOT
ATOM      1  N   UNL     1      -1.038  -0.510   0.901  0.00  0.00    -0.292 N 
ATOM      2  C   UNL     1      -0.918  -1.735   1.449  0.00  0.00    +0.303 C 
ATOM      3  O   UNL     1       0.008  -2.455   1.131  0.00  0.00    -0.253 OA
ATOM      4  N   UNL     1      -1.825  -2.162   2.350  0.00  0.00    -0.283 N 
ATOM      5  C   UNL     1      -3.011  -1.352   2.669  0.00  0.00    +0.128 C 
ATOM      6  C   UNL     1      -4.255  -2.246   2.537  0.00  0.00    +0.124 C 
ATOM      7  N   UNL     1      -4.080  -3.445   3.368  0.00  0.00    -0.325 N 
ATOM      8  C   UNL     1      -2.946  -4.255   2.903  0.00  0.00    +0.124 C 
ATOM      9  C   UNL     1      -1.652  -3.446   3.045  0.00  0.00    +0.128 C 
ATOM     10  H   UNL     1      -1.810   0.040   1.106  0.00  0.00    +0.151 HD
ENDROOT
BRANCH   7  11
ATOM     11  C   UNL     1      -5.253  -4.202   3.407  0.00  0.00    +0.060 A 
ATOM     12  C   UNL     1      -5.743  -4.787   2.247  0.00  0.00    +0.026 A 
ATOM     13  C   UNL     1      -6.904  -5.535   2.289  0.00  0.00    +0.014 A 
ATOM     14  C   UNL     1      -7.577  -5.701   3.486  0.00  0.00    +0.057 A 
ATOM     15  C   UNL     1      -7.092  -5.120   4.643  0.00  0.00    +0.047 A 
ATOM     16  C   UNL     1      -5.929  -4.376   4.608  0.00  0.00    +0.148 A 
BRANCH  14  17
ATOM     17  C   UNL     1      -8.843  -6.518   3.529  0.00  0.00    +0.417 C 
ATOM     18  F   UNL     1      -9.131  -7.000   2.247  0.00  0.00    -0.166 F 
ATOM     19  F   UNL     1      -8.672  -7.596   4.404  0.00  0.00    -0.166 F 
ATOM     20  F   UNL     1      -9.900  -5.718   3.974  0.00  0.00    -0.166 F 
ENDBRANCH  14  17
BRANCH  16  21
ATOM     21  N   UNL     1      -5.407  -3.759   5.848  0.00  0.00    +0.058 N 
ATOM     22  O   UNL     1      -6.000  -3.912   6.901  0.00  0.00    -0.126 OA
ATOM     23  O   UNL     1      -4.384  -3.099   5.816  0.00  0.00    -0.126 OA
ENDBRANCH  16  21
ENDBRANCH   7  11
BRANCH   1  24
ATOM     24  C   UNL     1      -0.002  -0.008  -0.006  0.00  0.00    +0.107 C 
BRANCH  24  25
ATOM     25  C   UNL     1      -0.011   1.499   0.005  0.00  0.00    -0.027 A 
ATOM     26  C   UNL     1      -1.212   2.182   0.030  0.00  0.00    +0.005 A 
ATOM     27  C   UNL     1      -1.221   3.564   0.044  0.00  0.00    +0.000 A 
ATOM     28  C   UNL     1      -0.028   4.263   0.025  0.00  0.00    +0.000 A 
ATOM     29  C   UNL     1       1.173   3.579  -0.005  0.00  0.00    +0.000 A 
ATOM     30  C   UNL     1       1.181   2.197  -0.015  0.00  0.00    +0.005 A 
ENDBRANCH  24  25
BRANCH  24  32
ATOM     31  C   UNL     1      -0.270  -2.040  -1.436  0.00  0.00    +0.009 C 
ATOM     32  C   UNL     1      -0.279  -0.510  -1.424  0.00  0.00    +0.008 C 
ATOM     33  C   UNL     1      -1.648  -0.005  -1.885  0.00  0.00    +0.009 C 
ENDBRANCH  24  32
ENDBRANCH   1  24
TORSDOF 6
