REMARK  Name = ZINC09495714
REMARK  10 active torsions:
REMARK  status: ('A' for Active; 'I' for Inactive)
REMARK    1  A    between atoms: C_1  and  C_2
REMARK    2  A    between atoms: C_6  and  N_9
REMARK    3  A    between atoms: C_7  and  C_8
REMARK    4  A    between atoms: C_10  and  C_12
REMARK    5  A    between atoms: C_12  and  N_13
REMARK    6  A    between atoms: N_13  and  C_14
REMARK    7  A    between atoms: C_14  and  C_15
REMARK    8  A    between atoms: C_21  and  C_23
REMARK    9  A    between atoms: N_28  and  C_30
REMARK   10  A    between atoms: C_30  and  C_31
REMARK                            x       y       z     vdW  Elec       q    Type
REMARK                         _______ _______ _______ _____ _____    ______ ____
ROOT
ATOM      1  N   UNL     1      -0.761   2.300  -3.518  0.00  0.00    -0.290 N 
ATOM      2  C   UNL     1      -1.418   1.452  -4.334  0.00  0.00    +0.221 C 
ATOM      3  O   UNL     1      -2.089   1.885  -5.246  0.00  0.00    -0.275 OA
ENDROOT
BRANCH   2   4
ATOM      4  C   UNL     1      -1.316  -0.035  -4.113  0.00  0.00    +0.101 C 
ATOM      5  C   UNL     1      -2.012  -0.448  -2.795  0.00  0.00    +0.110 C 
ATOM      6  C   UNL     1      -2.653  -1.780  -3.115  0.00  0.00    +0.217 C 
ATOM      7  O   UNL     1      -3.056  -2.573  -2.291  0.00  0.00    -0.276 OA
ATOM      8  N   UNL     1      -2.710  -1.958  -4.446  0.00  0.00    -0.296 N 
ATOM      9  C   UNL     1      -2.146  -0.808  -5.162  0.00  0.00    +0.121 C 
BRANCH   8  10
ATOM     10  C   UNL     1      -3.264  -3.147  -5.098  0.00  0.00    +0.142 C 
BRANCH  10  11
ATOM     11  C   UNL     1      -2.172  -4.167  -5.296  0.00  0.00    -0.030 A 
ATOM     12  C   UNL     1      -1.428  -4.166  -6.460  0.00  0.00    +0.005 A 
ATOM     13  C   UNL     1      -0.422  -5.098  -6.639  0.00  0.00    +0.000 A 
ATOM     14  C   UNL     1      -0.170  -6.038  -5.658  0.00  0.00    +0.000 A 
ATOM     15  C   UNL     1      -0.918  -6.043  -4.496  0.00  0.00    +0.000 A 
ATOM     16  C   UNL     1      -1.919  -5.107  -4.315  0.00  0.00    +0.005 A 
ENDBRANCH  10  11
ENDBRANCH   8  10
ENDBRANCH   2   4
BRANCH   1  17
ATOM     17  C   UNL     1      -0.860   3.746  -3.732  0.00  0.00    +0.203 C 
BRANCH  17  19
ATOM     18  N   UNL     1       0.345   5.491  -5.006  0.00  0.00    -0.284 N 
ATOM     19  C   UNL     1       0.238   4.192  -4.663  0.00  0.00    +0.235 C 
ATOM     20  O   UNL     1       1.025   3.381  -5.104  0.00  0.00    -0.274 OA
ATOM     21  H   UNL     1      -0.330   6.125  -4.719  0.00  0.00    +0.155 HD
BRANCH  18  27
ATOM     22  C   UNL     1       2.271   8.736  -8.158  0.00  0.00    +0.044 C 
ATOM     23  C   UNL     1       2.391   7.494  -7.313  0.00  0.00    -0.046 A 
ATOM     24  C   UNL     1       3.576   6.781  -7.298  0.00  0.00    +0.004 A 
ATOM     25  C   UNL     1       3.691   5.640  -6.525  0.00  0.00    +0.002 A 
ATOM     26  C   UNL     1       2.621   5.210  -5.764  0.00  0.00    +0.023 A 
ATOM     27  C   UNL     1       1.430   5.924  -5.776  0.00  0.00    +0.037 A 
ATOM     28  C   UNL     1       1.317   7.066  -6.559  0.00  0.00    -0.026 A 
ATOM     29  C   UNL     1       0.024   7.840  -6.580  0.00  0.00    +0.046 C 
ENDBRANCH  18  27
ENDBRANCH  17  19
ENDBRANCH   1  17
BRANCH   1  30
ATOM     30  C   UNL     1       0.050   1.777  -2.416  0.00  0.00    +0.139 C 
BRANCH  30  31
ATOM     31  C   UNL     1      -0.817   1.646  -1.162  0.00  0.00    +0.136 C 
ATOM     32  C   UNL     1       0.024   1.093   0.017  0.00  0.00    +0.035 C 
ATOM     33  C   UNL     1      -0.777   1.638   1.232  0.00  0.00    +0.031 C 
ATOM     34  C   UNL     1      -1.291   2.995   0.703  0.00  0.00    +0.160 C 
ATOM     35  O   UNL     1      -1.265   2.940  -0.728  0.00  0.00    -0.375 OA
ENDBRANCH  30  31
ENDBRANCH   1  30
TORSDOF 8
