REMARK  Name = ZINC55099997
REMARK  13 active torsions:
REMARK  status: ('A' for Active; 'I' for Inactive)
REMARK    1  A    between atoms: C_1  and  C_2
REMARK    2  A    between atoms: C_2  and  C_3
REMARK    3  A    between atoms: C_3  and  C_5
REMARK    4  A    between atoms: C_3  and  C_6
REMARK    5  A    between atoms: C_6  and  C_8
REMARK    6  A    between atoms: C_6  and  N_12
REMARK    7  A    between atoms: C_8  and  O_10
REMARK    8  A    between atoms: O_10  and  C_11
REMARK    9  A    between atoms: N_12  and  C_13
REMARK   10  A    between atoms: N_16  and  C_19
REMARK   11  A    between atoms: C_22  and  C_25
REMARK   12  A    between atoms: N_27  and  C_28
REMARK   13  A    between atoms: C_28  and  C_29
REMARK                            x       y       z     vdW  Elec       q    Type
REMARK                         _______ _______ _______ _____ _____    ______ ____
ROOT
ATOM      1  C   UNL     1       2.734   4.435   3.513  0.00  0.00    +0.030 A 
ATOM      2  C   UNL     1       1.896   5.519   3.759  0.00  0.00    +0.024 A 
ATOM      3  C   UNL     1       2.341   6.577   4.518  0.00  0.00    +0.015 A 
ATOM      4  C   UNL     1       3.636   6.562   5.043  0.00  0.00    +0.037 A 
ATOM      5  C   UNL     1       4.476   5.472   4.795  0.00  0.00    +0.015 A 
ATOM      6  C   UNL     1       4.023   4.415   4.040  0.00  0.00    +0.024 A 
ENDROOT
BRANCH   1  10
ATOM      7  C   UNL     1       1.886   1.787   0.434  0.00  0.00    +0.057 C 
ATOM      8  C   UNL     1       3.268   1.875   1.086  0.00  0.00    +0.037 C 
ATOM      9  C   UNL     1       3.104   2.161   2.583  0.00  0.00    +0.106 C 
ATOM     10  N   UNL     1       2.281   3.367   2.746  0.00  0.00    -0.330 N 
ATOM     11  C   UNL     1       0.971   3.424   2.083  0.00  0.00    +0.106 C 
ATOM     12  C   UNL     1       1.159   3.124   0.593  0.00  0.00    +0.037 C 
BRANCH   7  13
ATOM     13  N   UNL     1       2.039   1.480  -0.995  0.00  0.00    -0.301 NA
ATOM     14  H   UNL     1       2.862   1.923  -1.374  0.00  0.00    +0.123 HD
BRANCH  13  15
ATOM     15  C   UNL     1       2.071   0.029  -1.221  0.00  0.00    +0.167 C 
BRANCH  15  16
ATOM     16  C   UNL     1       0.642  -0.519  -1.223  0.00  0.00    +0.014 C 
ATOM     17  C   UNL     1      -0.114   0.035  -2.433  0.00  0.00    +0.009 C 
BRANCH  16  19
ATOM     18  C   UNL     1       1.345  -2.604  -0.041  0.00  0.00    +0.004 C 
ATOM     19  C   UNL     1       0.681  -2.046  -1.301  0.00  0.00    +0.002 C 
ENDBRANCH  16  19
ENDBRANCH  15  16
BRANCH  15  20
ATOM     20  C   UNL     1       2.721  -0.259  -2.549  0.00  0.00    +0.324 C 
ATOM     21  O   UNL     1       3.117   0.652  -3.237  0.00  0.00    -0.249 OA
BRANCH  20  22
ATOM     22  O   UNL     1       2.860  -1.526  -2.968  0.00  0.00    -0.467 OA
ATOM     23  C   UNL     1       3.485  -1.725  -4.238  0.00  0.00    +0.280 C 
ENDBRANCH  20  22
ENDBRANCH  15  20
ENDBRANCH  13  15
ENDBRANCH   7  13
ENDBRANCH   1  10
BRANCH   4  24
ATOM     24  C   UNL     1       4.117   7.695   5.857  0.00  0.00    +0.244 C 
ATOM     25  O   UNL     1       3.385   8.643   6.071  0.00  0.00    -0.270 OA
ATOM     26  N   UNL     1       5.366   7.679   6.362  0.00  0.00    -0.307 N 
ATOM     27  H   UNL     1       5.949   6.923   6.191  0.00  0.00    +0.149 HD
BRANCH  26  28
ATOM     28  C   UNL     1       5.843   8.804   7.171  0.00  0.00    +0.140 C 
BRANCH  28  29
ATOM     29  C   UNL     1       7.260   8.541   7.611  0.00  0.00    -0.027 A 
ATOM     30  C   UNL     1       7.501   7.877   8.799  0.00  0.00    +0.009 A 
ATOM     31  C   UNL     1       8.799   7.633   9.207  0.00  0.00    +0.050 A 
ATOM     32  C   UNL     1       9.863   8.054   8.425  0.00  0.00    +0.166 A 
ATOM     33  C   UNL     1       9.620   8.723   7.228  0.00  0.00    +0.167 A 
ATOM     34  C   UNL     1       8.316   8.959   6.822  0.00  0.00    +0.054 A 
ATOM     35  O   UNL     1      10.817   9.030   6.648  0.00  0.00    -0.453 OA
ATOM     36  C   UNL     1      11.795   8.905   7.698  0.00  0.00    +0.466 C 
ATOM     37  O   UNL     1      11.212   7.942   8.595  0.00  0.00    -0.453 OA
ENDBRANCH  28  29
ENDBRANCH  26  28
ENDBRANCH   4  24
TORSDOF 10
