REMARK  Name = ZINC06240748
REMARK  4 active torsions:
REMARK  status: ('A' for Active; 'I' for Inactive)
REMARK    1  A    between atoms: C_4  and  N_7
REMARK    2  A    between atoms: C_10  and  C_17
REMARK    3  A    between atoms: N_18  and  C_19
REMARK    4  A    between atoms: C_20  and  C_28
REMARK                            x       y       z     vdW  Elec       q    Type
REMARK                         _______ _______ _______ _____ _____    ______ ____
ROOT
ATOM      1  N   UNL     1       2.345   1.558  -0.012  0.00  0.00    -0.221 N 
ATOM      2  C   UNL     1       2.495   0.315  -0.517  0.00  0.00    +0.243 C 
ATOM      3  O   UNL     1       3.556  -0.056  -0.972  0.00  0.00    -0.274 OA
ATOM      4  C   UNL     1       1.286  -0.601  -0.493  0.00  0.00    +0.203 C 
ATOM      5  C   UNL     1       0.017  -0.021   0.101  0.00  0.00    +0.236 C 
ATOM      6  O   UNL     1      -1.003  -0.674   0.165  0.00  0.00    -0.274 OA
ATOM      7  N   UNL     1       0.064   1.248   0.557  0.00  0.00    -0.266 N 
ATOM      8  C   UNL     1       1.181   1.982   0.493  0.00  0.00    +0.150 C 
ATOM      9  S   UNL     1       1.117   3.580   1.104  0.00  0.00    -0.018 S 
ATOM     10  H   UNL     1      -0.736   1.642   0.938  0.00  0.00    +0.157 HD
ENDROOT
BRANCH   1  14
ATOM     11  C   UNL     1       5.607   4.154  -0.031  0.00  0.00    +0.000 A 
ATOM     12  C   UNL     1       5.393   3.322   1.053  0.00  0.00    +0.002 A 
ATOM     13  C   UNL     1       4.313   2.461   1.062  0.00  0.00    +0.024 A 
ATOM     14  C   UNL     1       3.442   2.431  -0.018  0.00  0.00    +0.043 A 
ATOM     15  C   UNL     1       3.663   3.263  -1.108  0.00  0.00    +0.024 A 
ATOM     16  C   UNL     1       4.740   4.127  -1.108  0.00  0.00    +0.002 A 
ENDBRANCH   1  14
BRANCH   4  17
ATOM     17  C   UNL     1       0.990  -1.023  -1.909  0.00  0.00    +0.107 C 
ATOM     18  N   UNL     1       1.138  -2.261  -2.261  0.00  0.00    -0.250 NA
BRANCH  18  19
ATOM     19  C   UNL     1       0.870  -2.642  -3.540  0.00  0.00    +0.119 A 
ATOM     20  C   UNL     1       0.968  -3.909  -4.099  0.00  0.00    +0.092 A 
ATOM     21  C   UNL     1       0.620  -4.064  -5.512  0.00  0.00    +0.009 A 
ATOM     22  C   UNL     1       0.641  -5.241  -6.294  0.00  0.00    +0.010 A 
ATOM     23  C   UNL     1       0.280  -5.210  -7.615  0.00  0.00    +0.001 A 
ATOM     24  C   UNL     1      -0.115  -4.028  -8.226  0.00  0.00    +0.001 A 
ATOM     25  C   UNL     1      -0.145  -2.860  -7.490  0.00  0.00    +0.016 A 
ATOM     26  C   UNL     1       0.216  -2.880  -6.159  0.00  0.00    +0.023 A 
ATOM     27  S   UNL     1       0.303  -1.636  -4.897  0.00  0.00    -0.068 S 
BRANCH  20  28
ATOM     28  C   UNL     1       1.396  -5.029  -3.317  0.00  0.00    +0.102 C 
ATOM     29  N   UNL     1       1.736  -5.918  -2.696  0.00  0.00    -0.191 NA
ENDBRANCH  20  28
ENDBRANCH  18  19
ENDBRANCH   4  17
TORSDOF 4
