REMARK  Name = ZINC10134893
REMARK  9 active torsions:
REMARK  status: ('A' for Active; 'I' for Inactive)
REMARK    1  A    between atoms: C_1  and  C_2
REMARK    2  A    between atoms: C_2  and  C_3
REMARK    3  A    between atoms: N_11  and  C_15
REMARK    4  A    between atoms: C_15  and  C_16
REMARK    5  A    between atoms: C_16  and  O_18
REMARK    6  A    between atoms: O_18  and  C_19
REMARK    7  A    between atoms: C_19  and  C_21
REMARK    8  A    between atoms: C_19  and  C_22
REMARK    9  A    between atoms: C_22  and  C_24
REMARK                            x       y       z     vdW  Elec       q    Type
REMARK                         _______ _______ _______ _____ _____    ______ ____
ROOT
ATOM      1  C   UNL     1      -2.104  -2.854  -0.709  0.00  0.00    +0.326 C 
ATOM      2  O   UNL     1      -3.142  -2.281  -0.943  0.00  0.00    -0.249 OA
ENDROOT
BRANCH   1   3
ATOM      3  C   UNL     1      -1.962  -4.319  -1.033  0.00  0.00    +0.238 C 
BRANCH   3  12
ATOM      4  C   UNL     1      -5.353  -5.347  -5.945  0.00  0.00    -0.011 C 
ATOM      5  C   UNL     1      -5.375  -4.065  -5.111  0.00  0.00    +0.006 C 
ATOM      6  C   UNL     1      -5.825  -4.393  -3.685  0.00  0.00    +0.035 C 
ATOM      7  C   UNL     1      -4.865  -5.405  -3.068  0.00  0.00    +0.113 C 
ATOM      8  C   UNL     1      -4.817  -6.681  -3.902  0.00  0.00    +0.035 C 
ATOM      9  C   UNL     1      -4.371  -6.344  -5.327  0.00  0.00    +0.006 C 
ATOM     10  C   UNL     1      -3.483  -4.808  -2.939  0.00  0.00    +0.247 C 
ATOM     11  O   UNL     1      -2.769  -4.408  -3.834  0.00  0.00    -0.273 OA
ATOM     12  N   UNL     1      -3.210  -4.813  -1.618  0.00  0.00    -0.213 N 
ATOM     13  C   UNL     1      -4.220  -5.332  -0.908  0.00  0.00    +0.310 C 
ATOM     14  O   UNL     1      -4.206  -5.448   0.302  0.00  0.00    -0.252 OA
ATOM     15  N   UNL     1      -5.254  -5.708  -1.685  0.00  0.00    -0.285 N 
ATOM     16  H   UNL     1      -6.089  -6.104  -1.390  0.00  0.00    +0.151 HD
BRANCH   4  18
ATOM     17  C   UNL     1      -5.011  -6.276  -8.240  0.00  0.00    +0.004 C 
ATOM     18  C   UNL     1      -4.914  -5.018  -7.374  0.00  0.00    -0.000 C 
ENDBRANCH   4  18
ENDBRANCH   3  12
ENDBRANCH   1   3
BRANCH   1  19
ATOM     19  O   UNL     1      -1.078  -2.184  -0.161  0.00  0.00    -0.453 OA
BRANCH  19  20
ATOM     20  C   UNL     1      -1.287  -0.776   0.124  0.00  0.00    +0.239 C 
ATOM     21  C   UNL     1      -1.843  -0.619   1.540  0.00  0.00    +0.060 C 
BRANCH  20  22
ATOM     22  C   UNL     1       0.025  -0.042   0.015  0.00  0.00    +0.179 C 
ATOM     23  O   UNL     1       1.065  -0.638   0.162  0.00  0.00    -0.293 OA
BRANCH  22  24
ATOM     24  C   UNL     1       0.039   1.437  -0.277  0.00  0.00    +0.033 C 
ATOM     25  C   UNL     1      -0.823   2.168   0.754  0.00  0.00    +0.018 C 
ATOM     26  C   UNL     1      -0.808   3.669   0.458  0.00  0.00    -0.010 C 
ATOM     27  C   UNL     1       0.628   4.190   0.532  0.00  0.00    +0.007 C 
ATOM     28  C   UNL     1       1.490   3.458  -0.498  0.00  0.00    -0.010 C 
ATOM     29  C   UNL     1       1.476   1.958  -0.202  0.00  0.00    +0.018 C 
ATOM     30  C   UNL     1       0.930   3.707  -1.900  0.00  0.00    +0.007 C 
ATOM     31  C   UNL     1      -0.507   3.186  -1.975  0.00  0.00    -0.010 C 
ATOM     32  C   UNL     1      -1.369   3.918  -0.944  0.00  0.00    +0.007 C 
ATOM     33  C   UNL     1      -0.521   1.685  -1.678  0.00  0.00    +0.018 C 
ENDBRANCH  22  24
ENDBRANCH  20  22
ENDBRANCH  19  20
ENDBRANCH   1  19
TORSDOF 7
