REMARK  Name = ZINC26227208
REMARK  8 active torsions:
REMARK  status: ('A' for Active; 'I' for Inactive)
REMARK    1  A    between atoms: C_1  and  C_2
REMARK    2  A    between atoms: C_4  and  N_32
REMARK    3  A    between atoms: C_7  and  N_8
REMARK    4  A    between atoms: C_9  and  C_11
REMARK    5  A    between atoms: C_11  and  C_12
REMARK    6  A    between atoms: C_12  and  N_13
REMARK    7  A    between atoms: N_16  and  S_19
REMARK    8  A    between atoms: S_19  and  C_22
REMARK                            x       y       z     vdW  Elec       q    Type
REMARK                         _______ _______ _______ _____ _____    ______ ____
ROOT
ATOM      1  N   UNL     1       3.718   1.754  -0.052  0.00  0.00    -0.299 NA
ATOM      2  C   UNL     1       3.862   2.508  -1.304  0.00  0.00    +0.101 C 
ATOM      3  C   UNL     1       5.094   3.416  -1.212  0.00  0.00    +0.125 C 
ATOM      4  N   UNL     1       6.255   2.591  -0.845  0.00  0.00    -0.174 NA
ATOM      5  C   UNL     1       6.138   1.704   0.322  0.00  0.00    +0.125 C 
ATOM      6  C   UNL     1       4.865   0.864   0.169  0.00  0.00    +0.101 C 
ENDROOT
BRANCH   4   7
ATOM      7  S   UNL     1       7.657   2.660  -1.724  0.00  0.00    +0.061 S 
ATOM      8  O   UNL     1       7.671   3.925  -2.369  0.00  0.00    -0.153 OA
ATOM      9  O   UNL     1       8.701   2.236  -0.857  0.00  0.00    -0.153 OA
BRANCH   7  10
ATOM     10  C   UNL     1       7.535   1.446  -2.996  0.00  0.00    +0.106 A 
ATOM     11  C   UNL     1       7.987   0.159  -2.772  0.00  0.00    +0.029 A 
ATOM     12  C   UNL     1       7.885  -0.786  -3.771  0.00  0.00    +0.006 A 
ATOM     13  C   UNL     1       7.342  -0.452  -5.006  0.00  0.00    -0.044 A 
ATOM     14  C   UNL     1       6.895   0.830  -5.229  0.00  0.00    -0.042 A 
ATOM     15  C   UNL     1       6.994   1.779  -4.220  0.00  0.00    +0.032 A 
ATOM     16  C   UNL     1       6.287   1.260  -6.539  0.00  0.00    +0.035 C 
ATOM     17  C   UNL     1       6.638   0.268  -7.646  0.00  0.00    +0.005 C 
ATOM     18  C   UNL     1       6.290  -1.143  -7.159  0.00  0.00    +0.005 C 
ATOM     19  C   UNL     1       7.274  -1.529  -6.057  0.00  0.00    +0.035 C 
ENDBRANCH   7  10
ENDBRANCH   4   7
BRANCH   1  20
ATOM     20  C   UNL     1       2.457   1.002  -0.033  0.00  0.00    +0.093 C 
BRANCH  20  21
ATOM     21  C   UNL     1       1.280   1.980  -0.015  0.00  0.00    +0.111 C 
BRANCH  21  23
ATOM     22  N   UNL     1      -1.191   1.867   0.018  0.00  0.00    -0.285 N 
ATOM     23  C   UNL     1      -0.014   1.209   0.005  0.00  0.00    +0.218 C 
ATOM     24  O   UNL     1       0.003  -0.004   0.005  0.00  0.00    -0.275 OA
ATOM     25  H   UNL     1      -1.207   2.963   0.109  0.00  0.00    +0.155 HD
BRANCH  22  32
ATOM     26  C   UNL     1      -3.546   3.040   1.100  0.00  0.00    +0.046 C 
ATOM     27  C   UNL     1      -3.564   1.691   0.428  0.00  0.00    -0.027 A 
ATOM     28  C   UNL     1      -4.748   0.989   0.320  0.00  0.00    +0.038 A 
ATOM     29  C   UNL     1      -4.765  -0.252  -0.291  0.00  0.00    +0.127 A 
ATOM     30  C   UNL     1      -3.597  -0.791  -0.800  0.00  0.00    +0.034 A 
ATOM     31  C   UNL     1      -2.411  -0.091  -0.699  0.00  0.00    +0.026 A 
ATOM     32  C   UNL     1      -2.391   1.155  -0.086  0.00  0.00    +0.036 A 
BRANCH  29  33
ATOM     33  N   UNL     1      -6.035  -1.004  -0.401  0.00  0.00    +0.056 N 
ATOM     34  O   UNL     1      -6.050  -2.097  -0.939  0.00  0.00    -0.126 OA
ATOM     35  O   UNL     1      -7.064  -0.530   0.046  0.00  0.00    -0.126 OA
ENDBRANCH  29  33
ENDBRANCH  22  32
ENDBRANCH  21  23
ENDBRANCH  20  21
ENDBRANCH   1  20
TORSDOF 7
