REMARK  Name = ZINC18284222
REMARK  3 active torsions:
REMARK  status: ('A' for Active; 'I' for Inactive)
REMARK    1  A    between atoms: C_1  and  N_45
REMARK    2  A    between atoms: C_12  and  C_15
REMARK    3  A    between atoms: C_18  and  C_20
REMARK                            x       y       z     vdW  Elec       q    Type
REMARK                         _______ _______ _______ _____ _____    ______ ____
ROOT
ATOM      1  C   UNL     1      -0.243   0.811   2.403  0.00  0.00    -0.096 C 
ATOM      2  C   UNL     1      -0.013   1.086   0.008  0.00  0.00    -0.074 C 
ATOM      3  C   UNL     1      -0.748   1.590  -1.237  0.00  0.00    +0.018 C 
ATOM      4  C   UNL     1      -0.934   3.098  -1.102  0.00  0.00    -0.027 A 
ATOM      5  C   UNL     1      -0.806   3.689   0.109  0.00  0.00    -0.021 A 
ATOM      6  S   UNL     1      -1.093   5.412  -0.191  0.00  0.00    -0.080 S 
ATOM      7  C   UNL     1      -1.375   5.346  -1.879  0.00  0.00    +0.080 A 
ATOM      8  C   UNL     1      -1.250   3.986  -2.206  0.00  0.00    +0.068 A 
ATOM      9  C   UNL     1      -1.457   3.604  -3.622  0.00  0.00    +0.248 C 
ATOM     10  O   UNL     1      -1.538   2.437  -3.959  0.00  0.00    -0.270 OA
ATOM     11  N   UNL     1      -1.551   4.604  -4.524  0.00  0.00    -0.287 N 
ATOM     12  C   UNL     1      -1.302   6.006  -4.207  0.00  0.00    +0.227 C 
ATOM     13  N   UNL     1      -1.660   6.311  -2.809  0.00  0.00    -0.314 N 
ATOM     14  C   UNL     1      -0.491   3.007   1.403  0.00  0.00    -0.036 C 
ATOM     15  H   UNL     1      -1.799   4.377  -5.434  0.00  0.00    +0.151 HD
ATOM     16  H   UNL     1      -2.075   7.152  -2.562  0.00  0.00    +0.149 HD
ATOM     17  N   UNL     1      -0.721   1.554   1.217  0.00  0.00    +0.381 N 
ATOM     18  H   UNL     1      -1.727   1.386   1.101  0.00  0.00    -0.082 HD
ENDROOT
BRANCH  12  19
ATOM     19  C   UNL     1       0.160   6.307  -4.419  0.00  0.00    +0.144 A 
ATOM     20  C   UNL     1       0.964   5.702  -5.314  0.00  0.00    +0.049 A 
ATOM     21  C   UNL     1       2.242   6.282  -5.180  0.00  0.00    +0.050 A 
ATOM     22  C   UNL     1       2.144   7.219  -4.200  0.00  0.00    +0.135 A 
ATOM     23  O   UNL     1       0.874   7.227  -3.752  0.00  0.00    -0.456 OA
BRANCH  22  24
ATOM     24  C   UNL     1       3.241   8.084  -3.715  0.00  0.00    +0.019 A 
ATOM     25  C   UNL     1       3.005   9.010  -2.697  0.00  0.00    +0.013 A 
ATOM     26  C   UNL     1       4.032   9.814  -2.248  0.00  0.00    +0.022 A 
ATOM     27  C   UNL     1       5.295   9.704  -2.804  0.00  0.00    +0.059 A 
ATOM     28  C   UNL     1       5.536   8.787  -3.815  0.00  0.00    +0.060 A 
ATOM     29  C   UNL     1       4.517   7.973  -4.269  0.00  0.00    +0.033 A 
ATOM     30 CL   UNL     1       7.123   8.656  -4.506  0.00  0.00    -0.082 Cl
ATOM     31 CL   UNL     1       6.582  10.720  -2.233  0.00  0.00    -0.082 Cl
ENDBRANCH  22  24
ENDBRANCH  12  19
TORSDOF 2
