REMARK  Name = ZINC20710053
REMARK  8 active torsions:
REMARK  status: ('A' for Active; 'I' for Inactive)
REMARK    1  A    between atoms: C_1  and  C_2
REMARK    2  A    between atoms: C_2  and  C_3
REMARK    3  A    between atoms: C_3  and  C_5
REMARK    4  A    between atoms: C_3  and  N_6
REMARK    5  A    between atoms: C_7  and  C_9
REMARK    6  A    between atoms: C_16  and  C_25
REMARK    7  A    between atoms: C_27  and  N_32
REMARK    8  A    between atoms: C_30  and  O_31
REMARK                            x       y       z     vdW  Elec       q    Type
REMARK                         _______ _______ _______ _____ _____    ______ ____
ROOT
ATOM      1  C   UNL     1      -1.406   1.942  -0.285  0.00  0.00    +0.058 A 
ATOM      2  C   UNL     1      -1.435   3.337  -0.288  0.00  0.00    +0.015 A 
ATOM      3  C   UNL     1      -2.637   3.993  -0.141  0.00  0.00    +0.001 A 
ATOM      4  C   UNL     1      -3.809   3.274   0.011  0.00  0.00    +0.006 A 
ATOM      5  C   UNL     1      -3.801   1.887   0.018  0.00  0.00    -0.019 A 
ATOM      6  C   UNL     1      -2.602   1.213  -0.137  0.00  0.00    +0.044 A 
ATOM      7  N   UNL     1      -2.526  -0.171  -0.151  0.00  0.00    -0.336 N 
ATOM      8  C   UNL     1      -3.629  -0.796   0.579  0.00  0.00    +0.108 C 
ATOM      9  C   UNL     1      -4.961  -0.345  -0.027  0.00  0.00    +0.029 C 
ATOM     10  C   UNL     1      -5.111   1.177   0.192  0.00  0.00    +0.049 C 
ATOM     11  C   UNL     1      -5.611   1.307   1.602  0.00  0.00    -0.023 C 
ATOM     12  C   UNL     1      -6.154   0.184   2.001  0.00  0.00    -0.030 C 
ATOM     13  C   UNL     1      -6.101  -0.855   0.898  0.00  0.00    +0.033 C 
ATOM     14  H   UNL     1      -1.760  -0.798  -0.631  0.00  0.00    +0.147 HD
ENDROOT
BRANCH   8  15
ATOM     15  C   UNL     1      -3.513  -2.295   0.479  0.00  0.00    +0.017 A 
ATOM     16  C   UNL     1      -4.332  -2.996  -0.386  0.00  0.00    +0.041 A 
ATOM     17  C   UNL     1      -4.222  -4.370  -0.482  0.00  0.00    +0.127 A 
ATOM     18  C   UNL     1      -3.301  -5.049   0.295  0.00  0.00    +0.036 A 
ATOM     19  C   UNL     1      -2.484  -4.354   1.165  0.00  0.00    +0.048 A 
ATOM     20  C   UNL     1      -2.588  -2.973   1.259  0.00  0.00    +0.122 A 
BRANCH  17  21
ATOM     21  N   UNL     1      -5.096  -5.118  -1.413  0.00  0.00    +0.056 N 
ATOM     22  O   UNL     1      -5.004  -6.330  -1.495  0.00  0.00    -0.126 OA
ATOM     23  O   UNL     1      -5.908  -4.521  -2.098  0.00  0.00    -0.126 OA
ENDBRANCH  17  21
BRANCH  20  24
ATOM     24  O   UNL     1      -1.786  -2.287   2.115  0.00  0.00    -0.506 OA
ATOM     25  H   UNL     1      -1.053  -2.825   2.733  0.00  0.00    +0.292 HD
ENDBRANCH  20  24
ENDBRANCH   8  15
BRANCH   1  27
ATOM     26  N   UNL     1       1.019   1.928  -0.596  0.00  0.00    -0.309 N 
ATOM     27  C   UNL     1      -0.124   1.231  -0.443  0.00  0.00    +0.246 C 
ATOM     28  O   UNL     1      -0.099   0.015  -0.440  0.00  0.00    -0.270 OA
ATOM     29  H   UNL     1       0.996   3.028  -0.598  0.00  0.00    +0.149 HD
BRANCH  26  30
ATOM     30  C   UNL     1       2.292   1.222  -0.759  0.00  0.00    +0.070 C 
ATOM     31  C   UNL     1       2.489   0.858  -2.232  0.00  0.00    +0.028 C 
BRANCH  30  33
ATOM     32  C   UNL     1       3.310   2.386   1.204  0.00  0.00    +0.005 C 
ATOM     33  C   UNL     1       3.439   2.124  -0.298  0.00  0.00    +0.018 C 
ENDBRANCH  30  33
ENDBRANCH  26  30
ENDBRANCH   1  27
TORSDOF 6
