REMARK  Name = ZINC10932925
REMARK  8 active torsions:
REMARK  status: ('A' for Active; 'I' for Inactive)
REMARK    1  A    between atoms: C_1  and  C_2
REMARK    2  A    between atoms: C_2  and  C_4
REMARK    3  A    between atoms: C_2  and  O_16
REMARK    4  A    between atoms: N_6  and  C_7
REMARK    5  A    between atoms: O_16  and  C_17
REMARK    6  A    between atoms: C_17  and  C_19
REMARK    7  A    between atoms: C_23  and  N_24
REMARK    8  A    between atoms: C_25  and  C_27
REMARK                            x       y       z     vdW  Elec       q    Type
REMARK                         _______ _______ _______ _____ _____    ______ ____
ROOT
ATOM      1  C   UNL     1      -2.718  -0.336   0.002  0.00  0.00    +0.343 C 
ATOM      2  O   UNL     1      -2.802  -0.950   1.048  0.00  0.00    -0.245 OA
ENDROOT
BRANCH   1   3
ATOM      3  C   UNL     1      -2.495   1.111   0.018  0.00  0.00    +0.091 A 
ATOM      4  C   UNL     1      -3.615   2.052   0.044  0.00  0.00    -0.021 A 
ATOM      5  C   UNL     1      -3.270   3.351   0.051  0.00  0.00    -0.004 A 
ATOM      6  S   UNL     1      -1.494   3.348   0.030  0.00  0.00    -0.077 S 
ATOM      7  C   UNL     1      -1.214   1.641   0.013  0.00  0.00    +0.086 A 
ATOM      8  C   UNL     1      -4.473   4.255   0.075  0.00  0.00    +0.043 C 
ATOM      9  C   UNL     1      -5.637   3.341   0.519  0.00  0.00    +0.010 C 
ATOM     10  C   UNL     1      -5.141   1.955   0.058  0.00  0.00    +0.037 C 
BRANCH   7  11
ATOM     11  N   UNL     1      -0.004   0.966  -0.006  0.00  0.00    -0.279 N 
ATOM     12  C   UNL     1       1.153   1.658  -0.020  0.00  0.00    +0.221 C 
ATOM     13  O   UNL     1       1.135   2.870  -0.009  0.00  0.00    -0.275 OA
ATOM     14  H   UNL     1       0.011  -0.004  -0.015  0.00  0.00    +0.155 HD
BRANCH  12  15
ATOM     15  C   UNL     1       2.469   0.925  -0.047  0.00  0.00    +0.075 C 
ATOM     16  C   UNL     1       2.584   0.036   1.193  0.00  0.00    +0.013 C 
ATOM     17  C   UNL     1       3.921  -0.709   1.165  0.00  0.00    +0.001 C 
ATOM     18  C   UNL     1       5.068   0.303   1.154  0.00  0.00    +0.000 C 
ATOM     19  C   UNL     1       4.953   1.192  -0.086  0.00  0.00    +0.001 C 
ATOM     20  C   UNL     1       3.617   1.937  -0.058  0.00  0.00    +0.013 C 
ENDBRANCH  12  15
ENDBRANCH   7  11
ENDBRANCH   1   3
BRANCH   1  21
ATOM     21  O   UNL     1      -2.831  -0.988  -1.174  0.00  0.00    -0.449 OA
BRANCH  21  23
ATOM     22  C   UNL     1      -1.703  -3.145  -1.108  0.00  0.00    +0.062 C 
ATOM     23  C   UNL     1      -3.051  -2.421  -1.114  0.00  0.00    +0.259 C 
BRANCH  23  24
ATOM     24  C   UNL     1      -3.850  -2.857  -2.315  0.00  0.00    +0.258 C 
ATOM     25  O   UNL     1      -4.121  -2.058  -3.186  0.00  0.00    -0.271 OA
ATOM     26  N   UNL     1      -4.263  -4.136  -2.422  0.00  0.00    -0.282 N 
ATOM     27  H   UNL     1      -3.990  -4.791  -1.760  0.00  0.00    +0.155 HD
BRANCH  26  28
ATOM     28  C   UNL     1      -5.086  -4.519  -3.489  0.00  0.00    +0.037 A 
ATOM     29  C   UNL     1      -6.064  -5.487  -3.298  0.00  0.00    +0.027 A 
ATOM     30  C   UNL     1      -6.880  -5.863  -4.348  0.00  0.00    +0.051 A 
ATOM     31  C   UNL     1      -6.718  -5.283  -5.596  0.00  0.00    +0.166 A 
ATOM     32  C   UNL     1      -5.735  -4.316  -5.792  0.00  0.00    +0.168 A 
ATOM     33  C   UNL     1      -4.921  -3.936  -4.737  0.00  0.00    +0.072 A 
ATOM     34  O   UNL     1      -5.779  -3.905  -7.093  0.00  0.00    -0.453 OA
ATOM     35  C   UNL     1      -6.523  -4.920  -7.792  0.00  0.00    +0.466 C 
ATOM     36  O   UNL     1      -7.379  -5.478  -6.776  0.00  0.00    -0.453 OA
ENDBRANCH  26  28
ENDBRANCH  23  24
ENDBRANCH  21  23
ENDBRANCH   1  21
TORSDOF 7
