REMARK  Name = ZINC13063751
REMARK  12 active torsions:
REMARK  status: ('A' for Active; 'I' for Inactive)
REMARK    1  A    between atoms: C_1  and  C_2
REMARK    2  A    between atoms: C_2  and  C_3
REMARK    3  A    between atoms: C_10  and  C_15
REMARK    4  A    between atoms: C_15  and  N_63
REMARK    5  A    between atoms: C_16  and  C_17
REMARK    6  A    between atoms: C_16  and  N_63
REMARK    7  A    between atoms: C_22  and  C_24
REMARK    8  A    between atoms: C_22  and  C_26
REMARK    9  A    between atoms: C_22  and  N_63
REMARK   10  A    between atoms: C_24  and  C_25
REMARK   11  A    between atoms: N_30  and  C_31
REMARK   12  A    between atoms: C_31  and  C_32
REMARK                            x       y       z     vdW  Elec       q    Type
REMARK                         _______ _______ _______ _____ _____    ______ ____
ROOT
ATOM      1  N   UNL     1      -0.118  -0.367   2.286  0.00  0.00    +0.392 N 
ATOM      2  H   UNL     1       0.242  -0.801   3.144  0.00  0.00    -0.080 HD
ENDROOT
BRANCH   1   3
ATOM      3  C   UNL     1       0.895  -0.500   1.218  0.00  0.00    -0.036 C 
BRANCH   3  11
ATOM      4  C   UNL     1       6.380  -1.653   3.840  0.00  0.00    -0.047 A 
ATOM      5  C   UNL     1       6.809  -0.333   3.892  0.00  0.00    +0.005 A 
ATOM      6  C   UNL     1       6.010   0.684   3.417  0.00  0.00    +0.026 A 
ATOM      7  C   UNL     1       4.761   0.389   2.880  0.00  0.00    +0.049 A 
ATOM      8  C   UNL     1       4.331  -0.950   2.829  0.00  0.00    -0.001 A 
ATOM      9  C   UNL     1       5.158  -1.967   3.317  0.00  0.00    +0.013 A 
ATOM     10  C   UNL     1       3.012  -1.251   2.268  0.00  0.00    +0.017 A 
ATOM     11  C   UNL     1       2.255  -0.225   1.807  0.00  0.00    +0.001 A 
ATOM     12  C   UNL     1       2.734   1.101   1.881  0.00  0.00    +0.251 A 
ATOM     13  O   UNL     1       2.036   2.009   1.464  0.00  0.00    -0.268 OA
ATOM     14  N   UNL     1       3.942   1.387   2.399  0.00  0.00    -0.322 N 
ATOM     15  H   UNL     1       4.240   2.309   2.434  0.00  0.00    +0.169 HD
BRANCH   4  17
ATOM     16  C   UNL     1       8.169  -3.261   3.237  0.00  0.00    +0.009 C 
ATOM     17  C   UNL     1       7.272  -2.749   4.365  0.00  0.00    +0.032 C 
ENDBRANCH   4  17
ENDBRANCH   3  11
ENDBRANCH   1   3
BRANCH   1  18
ATOM     18  C   UNL     1      -1.365  -1.054   1.888  0.00  0.00    -0.034 C 
BRANCH  18  19
ATOM     19  C   UNL     1      -1.148  -2.542   1.982  0.00  0.00    -0.027 A 
ATOM     20  C   UNL     1      -1.399  -3.377   3.019  0.00  0.00    +0.009 A 
ATOM     21  C   UNL     1      -1.119  -4.724   2.879  0.00  0.00    +0.008 A 
ATOM     22  C   UNL     1      -0.602  -5.169   1.708  0.00  0.00    +0.045 A 
ATOM     23  S   UNL     1      -0.503  -3.664   0.752  0.00  0.00    -0.103 S 
ENDBRANCH  18  19
ENDBRANCH   1  18
BRANCH   1  24
ATOM     24  C   UNL     1      -0.390   1.062   2.549  0.00  0.00    +0.003 C 
BRANCH  24  25
ATOM     25  C   UNL     1      -1.162   1.179   3.838  0.00  0.00    +0.139 A 
ATOM     26  N   UNL     1      -2.337   0.659   4.096  0.00  0.00    -0.115 NA
ATOM     27  N   UNL     1      -2.658   0.982   5.301  0.00  0.00    -0.023 NA
ATOM     28  N   UNL     1      -1.719   1.694   5.819  0.00  0.00    -0.044 NA
ATOM     29  N   UNL     1      -0.776   1.834   4.949  0.00  0.00    -0.223 N 
BRANCH  29  30
ATOM     30  C   UNL     1       0.477   2.569   5.135  0.00  0.00    +0.221 C 
BRANCH  30  31
ATOM     31  C   UNL     1       0.248   4.032   4.853  0.00  0.00    +0.126 A 
ATOM     32  C   UNL     1      -0.094   4.963   5.761  0.00  0.00    +0.046 A 
ATOM     33  C   UNL     1      -0.201   6.191   5.069  0.00  0.00    +0.041 A 
ATOM     34  C   UNL     1       0.074   5.934   3.777  0.00  0.00    +0.195 A 
ATOM     35  O   UNL     1       0.346   4.625   3.653  0.00  0.00    -0.466 OA
ENDBRANCH  30  31
ENDBRANCH  29  30
ENDBRANCH  24  25
BRANCH  24  36
ATOM     36  C   UNL     1      -1.208   1.671   1.407  0.00  0.00    -0.011 C 
ATOM     37  C   UNL     1      -1.349   3.178   1.628  0.00  0.00    +0.002 C 
ENDBRANCH  24  36
ENDBRANCH   1  24
TORSDOF 10
