REMARK  Name = ZINC05556972
REMARK  1 active torsions:
REMARK  status: ('A' for Active; 'I' for Inactive)
REMARK    1  A    between atoms: C_4  and  C_7
REMARK                            x       y       z     vdW  Elec       q    Type
REMARK                         _______ _______ _______ _____ _____    ______ ____
ROOT
ATOM      1  C   UNL     1       3.711  -0.707  -0.038  0.00  0.00    +0.158 C 
ATOM      2  C   UNL     1       4.054  -1.096   1.384  0.00  0.00    +0.020 C 
ATOM      3  C   UNL     1       4.230  -2.404   1.659  0.00  0.00    +0.083 C 
ATOM      4  C   UNL     1       4.556  -2.772   3.060  0.00  0.00    +0.044 A 
ATOM      5  C   UNL     1       5.063  -4.023   3.382  0.00  0.00    +0.033 A 
ATOM      6  C   UNL     1       5.356  -4.323   4.700  0.00  0.00    +0.042 A 
ATOM      7  C   UNL     1       5.143  -3.380   5.692  0.00  0.00    +0.023 A 
ATOM      8  C   UNL     1       4.638  -2.132   5.378  0.00  0.00    +0.048 A 
ATOM      9  C   UNL     1       4.339  -1.819   4.064  0.00  0.00    +0.130 A 
ATOM     10  O   UNL     1       3.835  -0.604   3.729  0.00  0.00    -0.487 OA
ATOM     11  C   UNL     1       4.204  -0.061   2.460  0.00  0.00    +0.264 C 
ATOM     12 CL   UNL     1       5.990  -5.885   5.112  0.00  0.00    -0.084 Cl
ATOM     13  N   UNL     1       4.113  -3.353   0.697  0.00  0.00    -0.213 NA
ATOM     14  C   UNL     1       3.820  -3.103  -0.558  0.00  0.00    +0.237 C 
ATOM     15  N   UNL     1       3.604  -1.815  -0.995  0.00  0.00    -0.208 N 
ATOM     16  N   UNL     1       3.314  -1.901  -2.358  0.00  0.00    -0.251 N 
ATOM     17  C   UNL     1       3.368  -3.223  -2.681  0.00  0.00    +0.203 C 
ATOM     18  N   UNL     1       3.667  -3.914  -1.627  0.00  0.00    -0.205 NA
ATOM     19  H   UNL     1       3.113  -1.165  -2.957  0.00  0.00    +0.171 HD
ENDROOT
BRANCH   1  23
ATOM     20  C   UNL     1      -0.017   1.378   0.010  0.00  0.00    +0.000 A 
ATOM     21  C   UNL     1       1.171   2.086   0.002  0.00  0.00    +0.000 A 
ATOM     22  C   UNL     1       2.377   1.411  -0.013  0.00  0.00    +0.006 A 
ATOM     23  C   UNL     1       2.396   0.029  -0.020  0.00  0.00    -0.021 A 
ATOM     24  C   UNL     1       1.208  -0.679  -0.012  0.00  0.00    +0.006 A 
ATOM     25  C   UNL     1       0.002  -0.004   0.002  0.00  0.00    +0.000 A 
ENDBRANCH   1  23
TORSDOF 1
