REMARK  Name = ZINC30671366
REMARK  4 active torsions:
REMARK  status: ('A' for Active; 'I' for Inactive)
REMARK    1  A    between atoms: C_1  and  N_2
REMARK    2  A    between atoms: C_3  and  C_9
REMARK    3  A    between atoms: N_11  and  N_12
REMARK    4  A    between atoms: C_13  and  C_15
REMARK                            x       y       z     vdW  Elec       q    Type
REMARK                         _______ _______ _______ _____ _____    ______ ____
ROOT
ATOM      1  C   UNL     1       5.904   2.664   0.393  0.00  0.00    +0.277 C 
ATOM      2  O   UNL     1       5.653   3.855   0.376  0.00  0.00    -0.267 OA
ATOM      3  N   UNL     1       4.908   1.768   0.543  0.00  0.00    -0.229 N 
ATOM      4  H   UNL     1       5.122   0.691   0.474  0.00  0.00    +0.173 HD
ENDROOT
BRANCH   1   7
ATOM      5  C   UNL     1       8.416   4.468   0.206  0.00  0.00    +0.150 C 
ATOM      6  N   UNL     1       8.407   3.003   0.166  0.00  0.00    -0.329 N 
ATOM      7  C   UNL     1       7.287   2.204   0.249  0.00  0.00    +0.108 A 
ATOM      8  C   UNL     1       7.707   0.891   0.178  0.00  0.00    +0.054 A 
ATOM      9  C   UNL     1       9.098   0.911   0.041  0.00  0.00    +0.078 A 
ATOM     10  C   UNL     1       9.499   2.208   0.040  0.00  0.00    +0.128 A 
ATOM     11 CL   UNL     1      11.139   2.758  -0.099  0.00  0.00    -0.062 Cl
ATOM     12 CL   UNL     1      10.131  -0.478  -0.095  0.00  0.00    -0.080 Cl
ENDBRANCH   1   7
BRANCH   3  13
ATOM     13  N   UNL     1       3.601   2.208   0.788  0.00  0.00    -0.230 N 
ATOM     14  C   UNL     1       2.605   1.313   0.939  0.00  0.00    +0.267 C 
ATOM     15  O   UNL     1       2.841   0.121   0.862  0.00  0.00    -0.268 OA
ATOM     16  H   UNL     1       3.387   3.285   0.858  0.00  0.00    +0.173 HD
BRANCH  14  17
ATOM     17  C   UNL     1       1.237   1.773   1.196  0.00  0.00    +0.075 A 
ATOM     18  C   UNL     1       0.084   1.027   1.379  0.00  0.00    +0.021 A 
ATOM     19  C   UNL     1      -1.080   1.719   1.601  0.00  0.00    +0.008 A 
ATOM     20  C   UNL     1      -1.047   3.077   1.641  0.00  0.00    +0.046 A 
ATOM     21  S   UNL     1       0.624   3.441   1.355  0.00  0.00    -0.092 S 
ENDBRANCH  14  17
ENDBRANCH   3  13
TORSDOF 3
