REMARK  Name = ZINC12971212
REMARK  11 active torsions:
REMARK  status: ('A' for Active; 'I' for Inactive)
REMARK    1  A    between atoms: C_1  and  C_2
REMARK    2  A    between atoms: C_2  and  C_3
REMARK    3  A    between atoms: C_2  and  C_4
REMARK    4  A    between atoms: C_4  and  C_6
REMARK    5  A    between atoms: C_4  and  S_20
REMARK    6  A    between atoms: N_8  and  N_9
REMARK    7  A    between atoms: C_10  and  C_11
REMARK    8  A    between atoms: C_14  and  N_17
REMARK    9  A    between atoms: S_20  and  C_21
REMARK   10  A    between atoms: C_24  and  C_33
REMARK   11  A    between atoms: C_25  and  C_27
REMARK                            x       y       z     vdW  Elec       q    Type
REMARK                         _______ _______ _______ _____ _____    ______ ____
ROOT
ATOM      1  C   UNL     1       0.302  -0.126  -0.655  0.00  0.00    +0.144 C 
ENDROOT
BRANCH   1   2
ATOM      2  C   UNL     1       0.379   1.360  -0.893  0.00  0.00    +0.246 C 
ATOM      3  O   UNL     1       1.455   1.920  -0.891  0.00  0.00    -0.273 OA
ATOM      4  N   UNL     1      -0.748   2.067  -1.113  0.00  0.00    -0.206 N 
ATOM      5  H   UNL     1      -1.608   1.619  -1.118  0.00  0.00    +0.177 HD
BRANCH   4   6
ATOM      6  N   UNL     1      -0.676   3.448  -1.334  0.00  0.00    -0.188 NA
ATOM      7  C   UNL     1      -1.761   4.128  -1.545  0.00  0.00    +0.138 C 
BRANCH   7   8
ATOM      8  C   UNL     1      -1.686   5.583  -1.778  0.00  0.00    -0.005 A 
ATOM      9  C   UNL     1      -0.449   6.232  -1.766  0.00  0.00    +0.012 A 
ATOM     10  C   UNL     1      -0.386   7.592  -1.989  0.00  0.00    +0.033 A 
ATOM     11  C   UNL     1      -1.545   8.314  -2.215  0.00  0.00    +0.126 A 
ATOM     12  C   UNL     1      -2.773   7.678  -2.223  0.00  0.00    +0.033 A 
ATOM     13  C   UNL     1      -2.851   6.318  -2.006  0.00  0.00    +0.012 A 
BRANCH  11  14
ATOM     14  N   UNL     1      -1.469   9.774  -2.447  0.00  0.00    +0.056 N 
ATOM     15  O   UNL     1      -2.487  10.412  -2.646  0.00  0.00    -0.126 OA
ATOM     16  O   UNL     1      -0.389  10.337  -2.441  0.00  0.00    -0.126 OA
ENDBRANCH  11  14
ENDBRANCH   7   8
ENDBRANCH   4   6
ENDBRANCH   1   2
BRANCH   1  18
ATOM     17  C   UNL     1      -0.949  -0.404  -2.800  0.00  0.00    +0.009 C 
ATOM     18  C   UNL     1       0.274  -0.857  -1.999  0.00  0.00    +0.005 C 
ATOM     19  C   UNL     1       1.546  -0.531  -2.783  0.00  0.00    +0.009 C 
ENDBRANCH   1  18
BRANCH   1  20
ATOM     20  S   UNL     1       1.748  -0.661   0.292  0.00  0.00    -0.075 S 
BRANCH  20  21
ATOM     21  C   UNL     1       1.336  -2.354   0.551  0.00  0.00    +0.168 A 
ATOM     22  N   UNL     1       2.098  -3.257   1.228  0.00  0.00    -0.332 N 
ATOM     23  H   UNL     1       2.981  -3.082   1.663  0.00  0.00    +0.168 HD
ATOM     24  C   UNL     1       1.421  -4.463   1.202  0.00  0.00    +0.075 A 
ATOM     25  C   UNL     1       0.255  -4.239   0.497  0.00  0.00    +0.098 A 
ATOM     26  N   UNL     1       0.243  -2.943   0.126  0.00  0.00    -0.221 NA
BRANCH  25  27
ATOM     27  C   UNL     1      -0.797  -5.241   0.207  0.00  0.00    +0.002 A 
ATOM     28  C   UNL     1      -0.445  -6.532  -0.186  0.00  0.00    +0.010 A 
ATOM     29  C   UNL     1      -1.429  -7.462  -0.449  0.00  0.00    +0.001 A 
ATOM     30  C   UNL     1      -2.763  -7.113  -0.336  0.00  0.00    +0.000 A 
ATOM     31  C   UNL     1      -3.119  -5.832   0.048  0.00  0.00    +0.001 A 
ATOM     32  C   UNL     1      -2.143  -4.895   0.319  0.00  0.00    +0.010 A 
ENDBRANCH  25  27
BRANCH  24  33
ATOM     33  C   UNL     1       1.859  -5.736   1.806  0.00  0.00    +0.000 A 
ATOM     34  C   UNL     1       0.972  -6.486   2.583  0.00  0.00    +0.010 A 
ATOM     35  C   UNL     1       1.385  -7.677   3.140  0.00  0.00    +0.001 A 
ATOM     36  C   UNL     1       2.679  -8.126   2.941  0.00  0.00    +0.000 A 
ATOM     37  C   UNL     1       3.565  -7.386   2.178  0.00  0.00    +0.001 A 
ATOM     38  C   UNL     1       3.164  -6.195   1.610  0.00  0.00    +0.010 A 
ENDBRANCH  24  33
ENDBRANCH  20  21
ENDBRANCH   1  20
TORSDOF 9
