REMARK  Name = ZINC49754929
REMARK  4 active torsions:
REMARK  status: ('A' for Active; 'I' for Inactive)
REMARK    1  A    between atoms: C_1  and  N_2
REMARK    2  A    between atoms: N_5  and  N_8
REMARK    3  A    between atoms: C_16  and  S_18
REMARK    4  A    between atoms: S_18  and  C_19
REMARK                            x       y       z     vdW  Elec       q    Type
REMARK                         _______ _______ _______ _____ _____    ______ ____
ROOT
ATOM      1  N   UNL     1       1.448  -3.871  -0.034  0.00  0.00    -0.262 N 
ATOM      2  C   UNL     1       2.679  -4.501  -0.011  0.00  0.00    +0.145 A 
ATOM      3  C   UNL     1       2.761  -5.919   0.082  0.00  0.00    +0.052 A 
ATOM      4  C   UNL     1       1.672  -6.894   0.166  0.00  0.00    -0.025 A 
ATOM      5  C   UNL     1       2.020  -8.194   0.247  0.00  0.00    -0.004 A 
ATOM      6  S   UNL     1       3.792  -8.201   0.216  0.00  0.00    -0.073 S 
ATOM      7  C   UNL     1       4.064  -6.452   0.096  0.00  0.00    +0.115 A 
ATOM      8  N   UNL     1       5.130  -5.677   0.028  0.00  0.00    -0.215 NA
ATOM      9  C   UNL     1       4.994  -4.361  -0.057  0.00  0.00    +0.191 A 
ATOM     10  N   UNL     1       3.793  -3.793  -0.081  0.00  0.00    -0.205 NA
ATOM     11  C   UNL     1       1.103  -9.375   0.343  0.00  0.00    +0.043 C 
ATOM     12  C   UNL     1      -0.300  -8.871   0.712  0.00  0.00    +0.005 C 
ATOM     13  C   UNL     1      -0.653  -7.693  -0.200  0.00  0.00    +0.005 C 
ATOM     14  C   UNL     1       0.203  -6.479   0.165  0.00  0.00    +0.037 C 
ATOM     15  H   UNL     1       0.654  -4.349   0.253  0.00  0.00    +0.168 HD
ENDROOT
BRANCH   1  20
ATOM     16  C   UNL     1      -0.107   1.236  -1.491  0.00  0.00    -0.096 C 
ATOM     17  N   UNL     1      -0.057  -0.156  -1.022  0.00  0.00    +0.380 N 
ATOM     18  C   UNL     1       0.427  -1.020  -2.107  0.00  0.00    -0.062 C 
ATOM     19  C   UNL     1       0.463  -2.472  -1.626  0.00  0.00    +0.087 C 
ATOM     20  N   UNL     1       1.351  -2.577  -0.459  0.00  0.00    -0.232 NA
ATOM     21  C   UNL     1       0.892  -1.698   0.626  0.00  0.00    +0.087 C 
ATOM     22  C   UNL     1       0.854  -0.253   0.126  0.00  0.00    -0.062 C 
ATOM     23  H   UNL     1      -0.981  -0.451  -0.745  0.00  0.00    -0.082 HD
ENDBRANCH   1  20
BRANCH   9  24
ATOM     24  S   UNL     1       6.432  -3.347  -0.147  0.00  0.00    -0.089 S 
ATOM     25  C   UNL     1       7.807  -4.529  -0.090  0.00  0.00    +0.093 C 
ENDBRANCH   9  24
TORSDOF 2
