REMARK  Name = ZINC66555299
REMARK  7 active torsions:
REMARK  status: ('A' for Active; 'I' for Inactive)
REMARK    1  A    between atoms: C_1  and  C_2
REMARK    2  A    between atoms: C_2  and  C_4
REMARK    3  A    between atoms: C_2  and  N_18
REMARK    4  A    between atoms: N_6  and  N_7
REMARK    5  A    between atoms: C_8  and  C_10
REMARK    6  A    between atoms: C_10  and  C_11
REMARK    7  A    between atoms: C_11  and  C_12
REMARK                            x       y       z     vdW  Elec       q    Type
REMARK                         _______ _______ _______ _____ _____    ______ ____
ROOT
ATOM      1  C   UNL     1      -1.412  -0.526   0.013  0.00  0.00    +0.250 C 
ATOM      2  O   UNL     1      -1.790  -1.233   0.922  0.00  0.00    -0.272 OA
ATOM      3  N   UNL     1      -2.256  -0.206  -0.988  0.00  0.00    -0.233 N 
ATOM      4  H   UNL     1      -1.953   0.360  -1.716  0.00  0.00    +0.173 HD
ENDROOT
BRANCH   3   5
ATOM      5  N   UNL     1      -3.570  -0.691  -0.978  0.00  0.00    -0.234 N 
ATOM      6  C   UNL     1      -4.414  -0.371  -1.980  0.00  0.00    +0.229 C 
ATOM      7  O   UNL     1      -4.035   0.336  -2.889  0.00  0.00    -0.274 OA
ATOM      8  H   UNL     1      -3.873  -1.257  -0.251  0.00  0.00    +0.173 HD
BRANCH   6   9
ATOM      9  C   UNL     1      -5.828  -0.893  -1.969  0.00  0.00    +0.097 C 
BRANCH   9  10
ATOM     10  C   UNL     1      -6.567  -0.386  -3.208  0.00  0.00    +0.013 C 
BRANCH  10  11
ATOM     11  C   UNL     1      -8.003  -0.916  -3.197  0.00  0.00    -0.011 C 
ATOM     12  C   UNL     1      -7.985  -2.440  -3.332  0.00  0.00    +0.003 C 
ATOM     13  C   UNL     1      -9.421  -2.969  -3.321  0.00  0.00    +0.000 C 
ATOM     14  C   UNL     1     -10.197  -2.363  -4.492  0.00  0.00    +0.000 C 
ATOM     15  C   UNL     1     -10.214  -0.839  -4.358  0.00  0.00    +0.000 C 
ATOM     16  C   UNL     1      -8.779  -0.310  -4.369  0.00  0.00    +0.003 C 
ENDBRANCH  10  11
ENDBRANCH   9  10
ENDBRANCH   6   9
ENDBRANCH   3   5
BRANCH   1  18
ATOM     17  C   UNL     1      -0.019   1.526   0.010  0.00  0.00    +0.038 C 
ATOM     18  C   UNL     1       0.002  -0.004   0.002  0.00  0.00    +0.170 C 
BRANCH  18  19
ATOM     19  N   UNL     1       0.711  -0.489   1.189  0.00  0.00    -0.212 N 
ATOM     20  C   UNL     1       1.826  -1.249   1.149  0.00  0.00    +0.247 C 
ATOM     21  O   UNL     1       2.411  -1.646   0.164  0.00  0.00    -0.273 OA
ATOM     22  C   UNL     1       2.189  -1.499   2.591  0.00  0.00    +0.113 C 
ATOM     23  C   UNL     1       2.188  -3.000   2.907  0.00  0.00    +0.035 C 
ATOM     24  C   UNL     1       3.685  -3.400   2.828  0.00  0.00    +0.003 C 
ATOM     25  C   UNL     1       4.404  -2.166   3.429  0.00  0.00    +0.003 C 
ATOM     26  C   UNL     1       3.586  -0.962   2.913  0.00  0.00    +0.035 C 
ATOM     27  N   UNL     1       1.157  -0.796   3.356  0.00  0.00    -0.285 N 
ATOM     28  C   UNL     1       0.336  -0.230   2.448  0.00  0.00    +0.310 C 
ATOM     29  O   UNL     1      -0.636   0.439   2.740  0.00  0.00    -0.252 OA
ATOM     30  H   UNL     1       1.080  -0.746   4.321  0.00  0.00    +0.151 HD
ENDBRANCH  18  19
ENDBRANCH   1  18
TORSDOF 6
