REMARK  Name = ZINC09205337
REMARK  7 active torsions:
REMARK  status: ('A' for Active; 'I' for Inactive)
REMARK    1  A    between atoms: C_1  and  C_2
REMARK    2  A    between atoms: C_2  and  C_3
REMARK    3  A    between atoms: C_3  and  C_27
REMARK    4  A    between atoms: N_6  and  C_10
REMARK    5  A    between atoms: C_10  and  C_11
REMARK    6  A    between atoms: N_13  and  C_14
REMARK    7  A    between atoms: C_17  and  N_20
REMARK                            x       y       z     vdW  Elec       q    Type
REMARK                         _______ _______ _______ _____ _____    ______ ____
ROOT
ATOM      1  C   UNL     1       2.470   1.488  -0.016  0.00  0.00    +0.214 C 
ENDROOT
BRANCH   1   5
ATOM      2  C   UNL     1      -0.673   3.467   0.011  0.00  0.00    +0.138 C 
ATOM      3  C   UNL     1       0.839   3.365  -0.007  0.00  0.00    +0.251 C 
ATOM      4  O   UNL     1       1.635   4.279  -0.022  0.00  0.00    -0.272 OA
ATOM      5  N   UNL     1       1.115   2.046  -0.003  0.00  0.00    -0.215 N 
ATOM      6  C   UNL     1      -0.001   1.308   0.014  0.00  0.00    +0.310 C 
ATOM      7  O   UNL     1      -0.008   0.093   0.020  0.00  0.00    -0.252 OA
ATOM      8  N   UNL     1      -1.115   2.062   0.018  0.00  0.00    -0.281 N 
ATOM      9  H   UNL     1      -2.031   1.742   0.025  0.00  0.00    +0.152 HD
BRANCH   2  10
ATOM     10  C   UNL     1      -1.172   4.172  -1.224  0.00  0.00    -0.015 A 
ATOM     11  C   UNL     1      -1.341   5.544  -1.216  0.00  0.00    +0.009 A 
ATOM     12  C   UNL     1      -1.793   6.192  -2.350  0.00  0.00    +0.039 A 
ATOM     13  C   UNL     1      -2.086   5.466  -3.491  0.00  0.00    +0.123 A 
ATOM     14  C   UNL     1      -1.921   4.091  -3.497  0.00  0.00    +0.039 A 
ATOM     15  C   UNL     1      -1.464   3.446  -2.364  0.00  0.00    +0.009 A 
ATOM     16  F   UNL     1      -2.534   6.097  -4.598  0.00  0.00    -0.205 F 
ENDBRANCH   2  10
BRANCH   2  18
ATOM     17  C   UNL     1      -0.675   3.428   2.509  0.00  0.00    +0.007 C 
ATOM     18  C   UNL     1      -1.149   4.192   1.271  0.00  0.00    +0.037 C 
ENDBRANCH   2  18
ENDBRANCH   1   5
BRANCH   1  19
ATOM     19  C   UNL     1       2.918   1.290  -1.441  0.00  0.00    +0.235 C 
ATOM     20  O   UNL     1       2.178   1.585  -2.356  0.00  0.00    -0.274 OA
ATOM     21  N   UNL     1       4.140   0.784  -1.699  0.00  0.00    -0.284 N 
ATOM     22  H   UNL     1       4.753   0.602  -0.970  0.00  0.00    +0.155 HD
BRANCH  21  23
ATOM     23  C   UNL     1       4.526   0.523  -3.021  0.00  0.00    +0.034 A 
ATOM     24  C   UNL     1       5.340  -0.566  -3.304  0.00  0.00    +0.025 A 
ATOM     25  C   UNL     1       5.716  -0.827  -4.606  0.00  0.00    +0.025 A 
ATOM     26  C   UNL     1       5.289   0.007  -5.632  0.00  0.00    +0.030 A 
ATOM     27  C   UNL     1       4.480   1.099  -5.348  0.00  0.00    +0.025 A 
ATOM     28  C   UNL     1       4.100   1.356  -4.046  0.00  0.00    +0.025 A 
BRANCH  26  29
ATOM     29  N   UNL     1       5.674  -0.255  -6.952  0.00  0.00    -0.330 N 
ATOM     30  C   UNL     1       6.279  -1.600  -7.071  0.00  0.00    +0.105 C 
ATOM     31  C   UNL     1       6.951  -1.822  -8.399  0.00  0.00    +0.019 C 
ATOM     32  C   UNL     1       8.446  -1.467  -8.256  0.00  0.00    +0.002 C 
ATOM     33  C   UNL     1       8.676  -0.027  -8.290  0.00  0.00    +0.002 C 
ATOM     34  C   UNL     1       7.960   0.704  -7.135  0.00  0.00    +0.019 C 
ATOM     35  C   UNL     1       6.505   0.846  -7.489  0.00  0.00    +0.105 C 
ENDBRANCH  26  29
ENDBRANCH  21  23
ENDBRANCH   1  19
TORSDOF 6
