REMARK  Name = ZINC39636250
REMARK  11 active torsions:
REMARK  status: ('A' for Active; 'I' for Inactive)
REMARK    1  A    between atoms: C_1  and  O_2
REMARK    2  A    between atoms: O_2  and  C_3
REMARK    3  A    between atoms: C_8  and  C_9
REMARK    4  A    between atoms: C_9  and  C_10
REMARK    5  A    between atoms: C_10  and  N_11
REMARK    6  A    between atoms: C_12  and  C_14
REMARK    7  A    between atoms: C_25  and  C_27
REMARK    8  A    between atoms: C_30  and  O_35
REMARK    9  A    between atoms: C_31  and  O_33
REMARK   10  A    between atoms: O_33  and  C_34
REMARK   11  A    between atoms: O_35  and  C_36
REMARK                            x       y       z     vdW  Elec       q    Type
REMARK                         _______ _______ _______ _____ _____    ______ ____
ROOT
ATOM      1  C   UNL     1      -3.982  -5.353   2.380  0.00  0.00    +0.100 C 
ATOM      2  C   UNL     1      -3.711  -4.391   3.558  0.00  0.00    +0.121 C 
ATOM      3  N   UNL     1      -4.966  -3.616   3.705  0.00  0.00    -0.296 N 
ATOM      4  C   UNL     1      -6.042  -4.610   3.476  0.00  0.00    +0.115 C 
ATOM      5  C   UNL     1      -5.513  -5.497   2.332  0.00  0.00    -0.004 C 
ATOM      6  C   UNL     1      -5.913  -6.951   2.562  0.00  0.00    -0.010 C 
ATOM      7  C   UNL     1      -7.435  -7.080   2.452  0.00  0.00    -0.082 C 
ATOM      8  N   UNL     1      -7.871  -6.636   1.122  0.00  0.00    +0.379 N 
ATOM      9  C   UNL     1      -7.565  -5.211   0.945  0.00  0.00    -0.082 C 
ATOM     10  C   UNL     1      -6.048  -5.003   0.992  0.00  0.00    -0.010 C 
ATOM     11  C   UNL     1      -5.099  -2.304   3.984  0.00  0.00    +0.247 C 
ATOM     12  O   UNL     1      -4.117  -1.588   4.022  0.00  0.00    -0.270 OA
ATOM     13  H   UNL     1      -7.390  -7.172   0.416  0.00  0.00    -0.086 HD
ATOM     14  H   UNL     1      -8.866  -6.778   1.030  0.00  0.00    -0.086 HD
ENDROOT
BRANCH  11  15
ATOM     15  C   UNL     1      -6.437  -1.737   4.244  0.00  0.00    +0.041 A 
ATOM     16  C   UNL     1      -7.486  -2.571   4.637  0.00  0.00    +0.017 A 
ATOM     17  C   UNL     1      -8.734  -2.040   4.880  0.00  0.00    +0.050 A 
ATOM     18  C   UNL     1      -8.952  -0.677   4.735  0.00  0.00    +0.162 A 
ATOM     19  C   UNL     1      -7.910   0.161   4.343  0.00  0.00    +0.162 A 
ATOM     20  C   UNL     1      -6.654  -0.364   4.104  0.00  0.00    +0.062 A 
BRANCH  19  21
ATOM     21  O   UNL     1      -8.127   1.496   4.202  0.00  0.00    -0.491 OA
ATOM     22  C   UNL     1      -7.013   2.295   3.797  0.00  0.00    +0.277 C 
ENDBRANCH  19  21
BRANCH  18  23
ATOM     23  O   UNL     1     -10.184  -0.158   4.976  0.00  0.00    -0.491 OA
ATOM     24  C   UNL     1     -11.207  -1.074   5.373  0.00  0.00    +0.277 C 
ENDBRANCH  18  23
ENDBRANCH  11  15
BRANCH   1  26
ATOM     25  N   UNL     1      -3.159  -5.568   0.057  0.00  0.00    -0.315 N 
ATOM     26  C   UNL     1      -3.470  -4.762   1.091  0.00  0.00    +0.218 C 
ATOM     27  O   UNL     1      -3.338  -3.561   0.985  0.00  0.00    -0.275 OA
ATOM     28  H   UNL     1      -3.265  -6.529   0.142  0.00  0.00    +0.149 HD
BRANCH  25  29
ATOM     29  C   UNL     1      -2.662  -4.994  -1.196  0.00  0.00    +0.109 C 
BRANCH  29  30
ATOM     30  C   UNL     1      -2.387  -6.117  -2.198  0.00  0.00    +0.057 C 
BRANCH  30  36
ATOM     31  C   UNL     1      -0.525  -5.245  -3.633  0.00  0.00    +0.123 A 
ATOM     32  C   UNL     1      -0.056  -4.707  -4.823  0.00  0.00    +0.046 A 
ATOM     33  C   UNL     1      -0.936  -4.446  -5.856  0.00  0.00    +0.004 A 
ATOM     34  C   UNL     1      -2.282  -4.721  -5.705  0.00  0.00    +0.000 A 
ATOM     35  C   UNL     1      -2.752  -5.258  -4.520  0.00  0.00    +0.007 A 
ATOM     36  C   UNL     1      -1.876  -5.526  -3.486  0.00  0.00    -0.004 A 
BRANCH  31  38
ATOM     37  C   UNL     1       1.714  -5.189  -2.837  0.00  0.00    +0.277 C 
ATOM     38  O   UNL     1       0.338  -5.503  -2.616  0.00  0.00    -0.495 OA
ENDBRANCH  31  38
ENDBRANCH  30  36
ENDBRANCH  29  30
ENDBRANCH  25  29
ENDBRANCH   1  26
TORSDOF 8
