REMARK  Name = ZINC20438653
REMARK  13 active torsions:
REMARK  status: ('A' for Active; 'I' for Inactive)
REMARK    1  A    between atoms: C_1  and  C_2
REMARK    2  A    between atoms: C_2  and  C_3
REMARK    3  A    between atoms: C_3  and  N_4
REMARK    4  A    between atoms: C_5  and  C_7
REMARK    5  A    between atoms: C_7  and  N_24
REMARK    6  A    between atoms: C_8  and  C_9
REMARK    7  A    between atoms: N_11  and  S_18
REMARK    8  A    between atoms: S_18  and  N_21
REMARK    9  A    between atoms: N_21  and  C_22
REMARK   10  A    between atoms: N_21  and  C_23
REMARK   11  A    between atoms: C_25  and  C_27
REMARK   12  A    between atoms: C_32  and  O_33
REMARK   13  A    between atoms: O_33  and  C_34
REMARK                            x       y       z     vdW  Elec       q    Type
REMARK                         _______ _______ _______ _____ _____    ______ ____
ROOT
ATOM      1  C   UNL     1      -7.077   3.425   1.640  0.00  0.00    +0.097 C 
ATOM      2  C   UNL     1      -5.786   3.825   1.522  0.00  0.00    +0.038 C 
ENDROOT
BRANCH   2   3
ATOM      3  C   UNL     1      -4.729   2.835   1.303  0.00  0.00    +0.004 A 
ATOM      4  C   UNL     1      -4.892   1.542   0.895  0.00  0.00    +0.122 A 
ATOM      5  N   UNL     1      -3.680   0.935   0.802  0.00  0.00    -0.208 N 
ATOM      6  C   UNL     1      -2.674   1.817   1.138  0.00  0.00    +0.074 A 
ATOM      7  C   UNL     1      -3.277   3.042   1.464  0.00  0.00    +0.009 A 
ATOM      8  C   UNL     1      -2.492   4.130   1.838  0.00  0.00    +0.010 A 
ATOM      9  C   UNL     1      -1.122   3.995   1.892  0.00  0.00    +0.001 A 
ATOM     10  C   UNL     1      -0.524   2.784   1.576  0.00  0.00    +0.002 A 
ATOM     11  C   UNL     1      -1.289   1.700   1.203  0.00  0.00    +0.028 A 
BRANCH   5  12
ATOM     12  S   UNL     1      -3.445  -0.641   0.351  0.00  0.00    +0.123 S 
ATOM     13  O   UNL     1      -4.731  -1.187   0.095  0.00  0.00    -0.136 OA
ATOM     14  O   UNL     1      -2.412  -0.633  -0.626  0.00  0.00    -0.136 OA
BRANCH  12  15
ATOM     15  N   UNL     1      -2.844  -1.443   1.669  0.00  0.00    -0.168 NA
ATOM     16  C   UNL     1      -3.760  -2.029   2.650  0.00  0.00    +0.133 C 
ATOM     17  C   UNL     1      -1.395  -1.567   1.853  0.00  0.00    +0.133 C 
ENDBRANCH  12  15
ENDBRANCH   5  12
ENDBRANCH   2   3
BRANCH   1  19
ATOM     18  N   UNL     1      -7.868   5.726   1.524  0.00  0.00    -0.310 N 
ATOM     19  C   UNL     1      -8.149   4.420   1.704  0.00  0.00    +0.258 C 
ATOM     20  O   UNL     1      -9.295   4.068   1.919  0.00  0.00    -0.269 OA
ATOM     21  H   UNL     1      -6.834   6.044   1.330  0.00  0.00    +0.149 HD
BRANCH  18  22
ATOM     22  C   UNL     1      -8.941   6.721   1.588  0.00  0.00    +0.104 C 
BRANCH  22  24
ATOM     23  C   UNL     1      -9.478   9.155   1.418  0.00  0.00    +0.005 C 
ATOM     24  C   UNL     1      -8.358   8.116   1.352  0.00  0.00    +0.015 C 
ENDBRANCH  22  24
ENDBRANCH  18  22
ENDBRANCH   1  19
BRANCH   1  25
ATOM     25  N   UNL     1      -7.385   2.058   1.701  0.00  0.00    -0.277 N 
ATOM     26  C   UNL     1      -8.272   1.528   0.836  0.00  0.00    +0.252 C 
ATOM     27  O   UNL     1      -8.748   2.217  -0.046  0.00  0.00    -0.270 OA
ATOM     28  H   UNL     1      -6.902   1.419   2.455  0.00  0.00    +0.155 HD
BRANCH  26  29
ATOM     29  C   UNL     1      -8.664   0.111   0.958  0.00  0.00    +0.079 A 
ATOM     30  C   UNL     1      -8.115  -0.686   1.965  0.00  0.00    +0.017 A 
ATOM     31  C   UNL     1      -8.490  -2.008   2.076  0.00  0.00    +0.001 A 
ATOM     32  C   UNL     1      -9.401  -2.553   1.187  0.00  0.00    +0.004 A 
ATOM     33  C   UNL     1      -9.948  -1.778   0.184  0.00  0.00    +0.046 A 
ATOM     34  C   UNL     1      -9.586  -0.445   0.060  0.00  0.00    +0.132 A 
BRANCH  34  35
ATOM     35  O   UNL     1     -10.122   0.318  -0.926  0.00  0.00    -0.494 OA
ATOM     36  C   UNL     1     -11.055  -0.317  -1.803  0.00  0.00    +0.277 C 
ENDBRANCH  34  35
ENDBRANCH  26  29
ENDBRANCH   1  25
TORSDOF 9
