REMARK  Name = ZINC02074459
REMARK  16 active torsions:
REMARK  status: ('A' for Active; 'I' for Inactive)
REMARK    1  A    between atoms: C_1  and  C_2
REMARK    2  A    between atoms: C_3  and  C_34
REMARK    3  A    between atoms: C_4  and  C_25
REMARK    4  A    between atoms: C_10  and  C_15
REMARK    5  A    between atoms: C_18  and  O_23
REMARK    6  A    between atoms: C_19  and  O_21
REMARK    7  A    between atoms: O_21  and  C_22
REMARK    8  A    between atoms: O_23  and  C_24
REMARK    9  A    between atoms: C_28  and  O_32
REMARK   10  A    between atoms: C_29  and  O_31
REMARK   11  A    between atoms: O_32  and  C_33
REMARK   12  A    between atoms: C_34  and  O_36
REMARK   13  A    between atoms: O_36  and  C_37
REMARK   14  A    between atoms: C_37  and  C_38
REMARK   15  A    between atoms: C_38  and  O_39
REMARK   16  A    between atoms: O_39  and  C_40
REMARK                            x       y       z     vdW  Elec       q    Type
REMARK                         _______ _______ _______ _____ _____    ______ ____
ROOT
ATOM      1  C   UNL     1      -4.528   4.952   5.717  0.00  0.00    +0.061 C 
ATOM      2  C   UNL     1      -3.959   5.761   4.580  0.00  0.00    +0.016 C 
ATOM      3  C   UNL     1      -3.217   5.156   3.636  0.00  0.00    +0.065 C 
ATOM      4  C   UNL     1      -2.634   5.929   2.490  0.00  0.00    +0.092 C 
ATOM      5  C   UNL     1      -3.323   7.261   2.330  0.00  0.00    +0.024 C 
ATOM      6  C   UNL     1      -4.056   7.783   3.337  0.00  0.00    +0.016 C 
ATOM      7  N   UNL     1      -4.197   7.105   4.518  0.00  0.00    -0.321 N 
ATOM      8  C   UNL     1      -4.737   9.121   3.188  0.00  0.00    +0.059 C 
ATOM      9  C   UNL     1      -5.123   9.342   1.724  0.00  0.00    +0.032 C 
ATOM     10  C   UNL     1      -3.853   9.265   0.870  0.00  0.00    +0.088 C 
ATOM     11  C   UNL     1      -3.183   7.939   1.107  0.00  0.00    +0.162 C 
ATOM     12  O   UNL     1      -2.508   7.446   0.225  0.00  0.00    -0.292 OA
ATOM     13  H   UNL     1      -4.506   7.652   5.421  0.00  0.00    +0.152 HD
ENDROOT
BRANCH   9  14
ATOM     14  C   UNL     1      -5.760  10.698   1.563  0.00  0.00    -0.040 A 
ATOM     15  C   UNL     1      -5.057  11.836   1.910  0.00  0.00    +0.008 A 
ATOM     16  C   UNL     1      -5.637  13.082   1.764  0.00  0.00    +0.049 A 
ATOM     17  C   UNL     1      -6.926  13.193   1.269  0.00  0.00    +0.161 A 
ATOM     18  C   UNL     1      -7.634  12.047   0.919  0.00  0.00    +0.162 A 
ATOM     19  C   UNL     1      -7.045  10.801   1.063  0.00  0.00    +0.053 A 
BRANCH  18  20
ATOM     20  O   UNL     1      -8.900  12.150   0.432  0.00  0.00    -0.491 OA
ATOM     21  C   UNL     1      -9.566  10.932   0.093  0.00  0.00    +0.277 C 
ENDBRANCH  18  20
BRANCH  17  22
ATOM     22  O   UNL     1      -7.498  14.418   1.124  0.00  0.00    -0.491 OA
ATOM     23  C   UNL     1      -6.713  15.550   1.503  0.00  0.00    +0.277 C 
ENDBRANCH  17  22
ENDBRANCH   9  14
BRANCH   4  24
ATOM     24  C   UNL     1      -1.167   6.159   2.744  0.00  0.00    -0.032 A 
ATOM     25  C   UNL     1      -0.763   6.859   3.866  0.00  0.00    +0.008 A 
ATOM     26  C   UNL     1       0.582   7.072   4.104  0.00  0.00    +0.050 A 
ATOM     27  C   UNL     1       1.529   6.585   3.217  0.00  0.00    +0.161 A 
ATOM     28  C   UNL     1       1.122   5.881   2.087  0.00  0.00    +0.159 A 
ATOM     29  C   UNL     1      -0.228   5.666   1.858  0.00  0.00    +0.053 A 
BRANCH  28  30
ATOM     30  O   UNL     1       2.047   5.401   1.214  0.00  0.00    -0.503 OA
ATOM     31  H   UNL     1       1.724   4.844   0.322  0.00  0.00    +0.292 HD
ENDBRANCH  28  30
BRANCH  27  32
ATOM     32  O   UNL     1       2.852   6.793   3.450  0.00  0.00    -0.491 OA
ATOM     33  C   UNL     1       3.196   7.523   4.629  0.00  0.00    +0.277 C 
ENDBRANCH  27  32
ENDBRANCH   4  24
BRANCH   3  34
ATOM     34  C   UNL     1      -2.987   3.763   3.722  0.00  0.00    +0.338 C 
ATOM     35  O   UNL     1      -3.570   3.002   2.973  0.00  0.00    -0.245 OA
BRANCH  34  36
ATOM     36  O   UNL     1      -2.120   3.277   4.636  0.00  0.00    -0.459 OA
BRANCH  36  37
ATOM     37  C   UNL     1      -1.935   1.861   4.667  0.00  0.00    +0.260 C 
BRANCH  37  38
ATOM     38  C   UNL     1      -0.924   1.502   5.758  0.00  0.00    +0.200 C 
BRANCH  38  39
ATOM     39  O   UNL     1      -1.463   1.841   7.037  0.00  0.00    -0.380 OA
ATOM     40  C   UNL     1      -0.594   1.544   8.131  0.00  0.00    +0.194 C 
ENDBRANCH  38  39
ENDBRANCH  37  38
ENDBRANCH  36  37
ENDBRANCH  34  36
ENDBRANCH   3  34
TORSDOF 11
