REMARK  Name = ZINC50322461
REMARK  7 active torsions:
REMARK  status: ('A' for Active; 'I' for Inactive)
REMARK    1  A    between atoms: C_1  and  C_2
REMARK    2  A    between atoms: C_2  and  C_3
REMARK    3  A    between atoms: C_3  and  C_4
REMARK    4  A    between atoms: C_5  and  N_20
REMARK    5  A    between atoms: C_6  and  C_10
REMARK    6  A    between atoms: C_16  and  C_18
REMARK    7  A    between atoms: C_18  and  C_19
REMARK                            x       y       z     vdW  Elec       q    Type
REMARK                         _______ _______ _______ _____ _____    ______ ____
ROOT
ATOM      1  C   UNL     1       0.480  -1.931  -1.582  0.00  0.00    +0.057 A 
ATOM      2  C   UNL     1      -0.468  -2.813  -1.996  0.00  0.00    +0.078 A 
ATOM      3  C   UNL     1       0.069  -4.099  -1.728  0.00  0.00    +0.168 A 
ATOM      4  N   UNL     1       1.260  -3.916  -1.189  0.00  0.00    -0.167 NA
ATOM      5  N   UNL     1       1.520  -2.661  -1.100  0.00  0.00    -0.279 N 
ATOM      6  H   UNL     1       2.340  -2.288  -0.740  0.00  0.00    +0.189 HD
ENDROOT
BRANCH   3   7
ATOM      7  C   UNL     1      -0.581  -5.394  -1.998  0.00  0.00    +0.269 C 
ATOM      8  O   UNL     1      -1.688  -5.426  -2.501  0.00  0.00    -0.268 OA
ATOM      9  N   UNL     1       0.052  -6.543  -1.689  0.00  0.00    -0.293 N 
ATOM     10  C   UNL     1       1.427  -6.654  -1.169  0.00  0.00    +0.108 C 
ATOM     11  C   UNL     1       1.885  -8.081  -1.561  0.00  0.00    +0.021 C 
ATOM     12  C   UNL     1       0.576  -8.892  -1.370  0.00  0.00    +0.024 C 
ATOM     13  C   UNL     1      -0.517  -7.894  -1.807  0.00  0.00    +0.076 C 
BRANCH  13  14
ATOM     14  C   UNL     1      -1.740  -8.025  -0.896  0.00  0.00    +0.019 C 
ATOM     15  C   UNL     1      -2.382  -9.399  -1.100  0.00  0.00    +0.006 C 
ENDBRANCH  13  14
ENDBRANCH   3   7
BRANCH   2  16
ATOM     16  N   UNL     1      -1.713  -2.516  -2.569  0.00  0.00    -0.355 N 
ATOM     17  H   UNL     1      -1.976  -1.592  -2.706  0.00  0.00    +0.142 HD
ATOM     18  H   UNL     1      -2.312  -3.234  -2.828  0.00  0.00    +0.142 HD
ENDBRANCH   2  16
BRANCH   1  19
ATOM     19  C   UNL     1       0.396  -0.428  -1.649  0.00  0.00    +0.056 C 
BRANCH  19  21
ATOM     20  C   UNL     1      -0.422   1.623  -0.482  0.00  0.00    +0.004 C 
ATOM     21  C   UNL     1      -0.337   0.098  -0.413  0.00  0.00    +0.003 C 
ENDBRANCH  19  21
ENDBRANCH   1  19
TORSDOF 5
