REMARK  Name = ZINC12833521
REMARK  9 active torsions:
REMARK  status: ('A' for Active; 'I' for Inactive)
REMARK    1  A    between atoms: C_1  and  C_2
REMARK    2  A    between atoms: C_2  and  O_3
REMARK    3  A    between atoms: O_3  and  C_4
REMARK    4  A    between atoms: C_11  and  C_16
REMARK    5  A    between atoms: C_16  and  N_67
REMARK    6  A    between atoms: C_17  and  C_18
REMARK    7  A    between atoms: C_17  and  N_67
REMARK    8  A    between atoms: N_22  and  C_23
REMARK    9  A    between atoms: C_29  and  N_67
REMARK                            x       y       z     vdW  Elec       q    Type
REMARK                         _______ _______ _______ _____ _____    ______ ____
ROOT
ATOM      1  N   UNL     1       0.523   1.912   2.648  0.00  0.00    +0.389 N 
ATOM      2  H   UNL     1       1.139   1.146   2.944  0.00  0.00    -0.080 HD
ENDROOT
BRANCH   1   3
ATOM      3  C   UNL     1      -0.470   1.387   1.688  0.00  0.00    -0.068 C 
ATOM      4  C   UNL     1       0.204   0.359   0.755  0.00  0.00    -0.015 C 
ATOM      5  C   UNL     1      -0.421   0.551  -0.638  0.00  0.00    -0.002 C 
ATOM      6  C   UNL     1      -1.454   1.690  -0.504  0.00  0.00    -0.002 C 
ATOM      7  C   UNL     1      -0.973   2.495   0.729  0.00  0.00    -0.015 C 
ENDBRANCH   1   3
BRANCH   1   8
ATOM      8  C   UNL     1      -0.165   2.460   3.836  0.00  0.00    -0.037 C 
BRANCH   8  16
ATOM      9  C   UNL     1       0.209  -1.692   8.424  0.00  0.00    +0.121 A 
ATOM     10  C   UNL     1      -1.014  -2.307   8.169  0.00  0.00    +0.047 A 
ATOM     11  C   UNL     1      -1.815  -1.875   7.136  0.00  0.00    +0.030 A 
ATOM     12  C   UNL     1      -1.404  -0.814   6.334  0.00  0.00    +0.049 A 
ATOM     13  C   UNL     1      -0.169  -0.190   6.588  0.00  0.00    +0.002 A 
ATOM     14  C   UNL     1       0.636  -0.638   7.641  0.00  0.00    +0.055 A 
ATOM     15  C   UNL     1       0.254   0.921   5.734  0.00  0.00    +0.017 A 
ATOM     16  C   UNL     1      -0.568   1.317   4.731  0.00  0.00    +0.001 A 
ATOM     17  C   UNL     1      -1.797   0.657   4.518  0.00  0.00    +0.251 A 
ATOM     18  O   UNL     1      -2.519   1.025   3.607  0.00  0.00    -0.268 OA
ATOM     19  N   UNL     1      -2.192  -0.367   5.293  0.00  0.00    -0.322 N 
ATOM     20  H   UNL     1      -3.044  -0.798   5.119  0.00  0.00    +0.169 HD
BRANCH   9  21
ATOM     21  O   UNL     1       0.987  -2.131   9.449  0.00  0.00    -0.492 OA
BRANCH  21  23
ATOM     22  C   UNL     1       1.492  -3.578  11.318  0.00  0.00    +0.048 C 
ATOM     23  C   UNL     1       0.487  -3.226  10.220  0.00  0.00    +0.225 C 
ENDBRANCH  21  23
ENDBRANCH   9  21
ENDBRANCH   8  16
ENDBRANCH   1   8
BRANCH   1  24
ATOM     24  C   UNL     1       1.339   2.964   2.007  0.00  0.00    +0.001 C 
BRANCH  24  25
ATOM     25  C   UNL     1       2.185   2.335   0.930  0.00  0.00    +0.135 A 
ATOM     26  N   UNL     1       1.924   2.308  -0.354  0.00  0.00    -0.115 NA
ATOM     27  N   UNL     1       2.884   1.681  -0.943  0.00  0.00    -0.023 NA
ATOM     28  N   UNL     1       3.750   1.307  -0.067  0.00  0.00    -0.044 NA
ATOM     29  N   UNL     1       3.357   1.696   1.099  0.00  0.00    -0.228 N 
BRANCH  29  30
ATOM     30  C   UNL     1       4.055   1.480   2.369  0.00  0.00    +0.111 C 
ATOM     31  C   UNL     1       5.436   2.138   2.311  0.00  0.00    +0.027 C 
ATOM     32  C   UNL     1       6.164   1.912   3.637  0.00  0.00    +0.002 C 
ATOM     33  C   UNL     1       6.324   0.410   3.882  0.00  0.00    +0.000 C 
ATOM     34  C   UNL     1       4.944  -0.247   3.940  0.00  0.00    +0.002 C 
ATOM     35  C   UNL     1       4.215  -0.022   2.614  0.00  0.00    +0.027 C 
ENDBRANCH  29  30
ENDBRANCH  24  25
ENDBRANCH   1  24
TORSDOF 8
