REMARK  Name = ZINC21581219
REMARK  8 active torsions:
REMARK  status: ('A' for Active; 'I' for Inactive)
REMARK    1  A    between atoms: C_1  and  C_2
REMARK    2  A    between atoms: C_2  and  O_3
REMARK    3  A    between atoms: O_3  and  C_4
REMARK    4  A    between atoms: C_4  and  C_6
REMARK    5  A    between atoms: C_7  and  C_19
REMARK    6  A    between atoms: C_12  and  C_14
REMARK    7  A    between atoms: C_19  and  N_20
REMARK    8  A    between atoms: C_24  and  C_26
REMARK                            x       y       z     vdW  Elec       q    Type
REMARK                         _______ _______ _______ _____ _____    ______ ____
ROOT
ATOM      1  C   UNL     1       0.089  -0.037   0.981  0.00  0.00    +0.079 C 
ATOM      2  C   UNL     1      -0.840   0.896   0.684  0.00  0.00    +0.008 C 
ATOM      3  N   UNL     1      -0.477   2.153   0.293  0.00  0.00    -0.274 N 
ATOM      4  C   UNL     1       0.794   2.559   0.184  0.00  0.00    +0.304 C 
ATOM      5  O   UNL     1       1.018   3.701  -0.167  0.00  0.00    -0.252 OA
ATOM      6  N   UNL     1       1.833   1.743   0.452  0.00  0.00    -0.285 N 
ATOM      7  C   UNL     1       1.548   0.362   0.877  0.00  0.00    +0.179 C 
ATOM      8  H   UNL     1      -1.250   2.897   0.046  0.00  0.00    +0.156 HD
ATOM      9  H   UNL     1       2.873   2.086   0.359  0.00  0.00    +0.151 HD
ENDROOT
BRANCH   7  10
ATOM     10  C   UNL     1       2.216  -0.572  -0.099  0.00  0.00    +0.130 A 
ATOM     11  C   UNL     1       2.854  -1.713   0.216  0.00  0.00    +0.047 A 
ATOM     12  C   UNL     1       3.326  -2.267  -0.997  0.00  0.00    +0.041 A 
ATOM     13  C   UNL     1       2.947  -1.430  -1.980  0.00  0.00    +0.195 A 
ATOM     14  O   UNL     1       2.271  -0.408  -1.431  0.00  0.00    -0.466 OA
ENDBRANCH   7  10
BRANCH   1  15
ATOM     15  C   UNL     1      -0.285  -1.341   1.382  0.00  0.00    +0.339 C 
ATOM     16  O   UNL     1      -1.454  -1.675   1.350  0.00  0.00    -0.245 OA
BRANCH  15  17
ATOM     17  O   UNL     1       0.655  -2.214   1.800  0.00  0.00    -0.462 OA
BRANCH  17  19
ATOM     18  C   UNL     1       1.404  -4.357   2.629  0.00  0.00    +0.048 C 
ATOM     19  C   UNL     1       0.206  -3.514   2.189  0.00  0.00    +0.229 C 
ENDBRANCH  17  19
ENDBRANCH  15  17
ENDBRANCH   1  15
BRANCH   2  20
ATOM     20  C   UNL     1      -2.302   0.543   0.779  0.00  0.00    -0.026 C 
BRANCH  20  21
ATOM     21  N   UNL     1      -2.705  -0.202  -0.421  0.00  0.00    +0.388 N 
ATOM     22  C   UNL     1      -2.822   0.699  -1.588  0.00  0.00    -0.078 C 
ATOM     23  C   UNL     1      -3.980   0.106  -2.430  0.00  0.00    -0.020 C 
ATOM     24  C   UNL     1      -4.954  -0.381  -1.325  0.00  0.00    -0.013 C 
ATOM     25  C   UNL     1      -4.001  -0.875  -0.216  0.00  0.00    -0.037 C 
ATOM     26  H   UNL     1      -1.924  -0.953  -0.607  0.00  0.00    -0.080 HD
BRANCH  25  27
ATOM     27  C   UNL     1      -4.556  -0.515   1.138  0.00  0.00    -0.057 A 
ATOM     28  C   UNL     1      -4.708  -1.493   2.104  0.00  0.00    +0.006 A 
ATOM     29  C   UNL     1      -5.213  -1.166   3.348  0.00  0.00    +0.049 A 
ATOM     30  C   UNL     1      -5.580   0.142   3.628  0.00  0.00    +0.162 A 
ATOM     31  C   UNL     1      -5.430   1.125   2.656  0.00  0.00    +0.162 A 
ATOM     32  C   UNL     1      -4.918   0.791   1.411  0.00  0.00    +0.051 A 
ATOM     33  O   UNL     1      -5.775   2.416   2.913  0.00  0.00    -0.485 OA
ATOM     34  C   UNL     1      -6.629   2.642   4.039  0.00  0.00    +0.270 C 
ATOM     35  C   UNL     1      -6.089   1.830   5.223  0.00  0.00    +0.270 C 
ATOM     36  O   UNL     1      -6.086   0.446   4.854  0.00  0.00    -0.485 OA
ENDBRANCH  25  27
ENDBRANCH  20  21
ENDBRANCH   2  20
TORSDOF 7
