REMARK  Name = ZINC09018809
REMARK  8 active torsions:
REMARK  status: ('A' for Active; 'I' for Inactive)
REMARK    1  A    between atoms: C_1  and  C_2
REMARK    2  A    between atoms: C_2  and  C_3
REMARK    3  A    between atoms: C_2  and  C_4
REMARK    4  A    between atoms: C_2  and  C_5
REMARK    5  A    between atoms: C_13  and  S_16
REMARK    6  A    between atoms: S_16  and  C_17
REMARK    7  A    between atoms: C_17  and  C_18
REMARK    8  A    between atoms: C_17  and  C_24
REMARK                            x       y       z     vdW  Elec       q    Type
REMARK                         _______ _______ _______ _____ _____    ______ ____
ROOT
ATOM      1  C   UNL     1       3.764   1.553   0.798  0.00  0.00    +0.039 A 
ATOM      2  C   UNL     1       3.762   0.231   1.041  0.00  0.00    +0.092 A 
ATOM      3  C   UNL     1       4.989  -0.469   1.157  0.00  0.00    +0.253 A 
ATOM      4  O   UNL     1       4.990  -1.667   1.377  0.00  0.00    -0.268 OA
ATOM      5  N   UNL     1       6.154   0.195   1.023  0.00  0.00    -0.291 N 
ATOM      6  H   UNL     1       6.996  -0.279   1.101  0.00  0.00    +0.172 HD
ATOM      7  C   UNL     1       6.146   1.557   0.773  0.00  0.00    +0.237 A 
ATOM      8  N   UNL     1       4.955   2.229   0.662  0.00  0.00    -0.260 N 
ATOM      9  C   UNL     1       5.237   3.546   0.417  0.00  0.00    +0.198 A 
ATOM     10  N   UNL     1       6.540   3.681   0.379  0.00  0.00    -0.120 NA
ATOM     11  N   UNL     1       7.115   2.424   0.604  0.00  0.00    -0.109 NA
ENDROOT
BRANCH   1  13
ATOM     12  C   UNL     1       1.297   1.308   0.776  0.00  0.00    +0.017 C 
ATOM     13  C   UNL     1       2.460   2.297   0.675  0.00  0.00    +0.003 C 
ATOM     14  C   UNL     1       2.352   3.327   1.802  0.00  0.00    +0.017 C 
ATOM     15  C   UNL     1       2.406   3.013  -0.676  0.00  0.00    +0.017 C 
ENDBRANCH   1  13
BRANCH   9  16
ATOM     16  S   UNL     1       4.056   4.834   0.193  0.00  0.00    -0.073 S 
BRANCH  16  17
ATOM     17  C   UNL     1       5.067   6.314  -0.089  0.00  0.00    +0.114 C 
BRANCH  17  18
ATOM     18  C   UNL     1       5.833   6.160  -1.378  0.00  0.00    -0.030 A 
ATOM     19  C   UNL     1       5.169   5.806  -2.538  0.00  0.00    +0.005 A 
ATOM     20  C   UNL     1       5.870   5.670  -3.721  0.00  0.00    +0.000 A 
ATOM     21  C   UNL     1       7.237   5.879  -3.743  0.00  0.00    +0.000 A 
ATOM     22  C   UNL     1       7.901   6.229  -2.582  0.00  0.00    +0.000 A 
ATOM     23  C   UNL     1       7.199   6.369  -1.400  0.00  0.00    +0.005 A 
ENDBRANCH  17  18
BRANCH  17  24
ATOM     24  C   UNL     1       4.174   7.524  -0.176  0.00  0.00    -0.030 A 
ATOM     25  C   UNL     1       3.094   7.525  -1.038  0.00  0.00    +0.005 A 
ATOM     26  C   UNL     1       2.271   8.634  -1.114  0.00  0.00    +0.000 A 
ATOM     27  C   UNL     1       2.535   9.745  -0.335  0.00  0.00    +0.000 A 
ATOM     28  C   UNL     1       3.618   9.746   0.523  0.00  0.00    +0.000 A 
ATOM     29  C   UNL     1       4.438   8.635   0.603  0.00  0.00    +0.005 A 
ENDBRANCH  17  24
ENDBRANCH  16  17
ENDBRANCH   9  16
TORSDOF 5
