REMARK  Name = ZINC01336701
REMARK  13 active torsions:
REMARK  status: ('A' for Active; 'I' for Inactive)
REMARK    1  A    between atoms: C_1  and  C_2
REMARK    2  A    between atoms: C_2  and  C_3
REMARK    3  A    between atoms: C_2  and  C_4
REMARK    4  A    between atoms: C_4  and  C_6
REMARK    5  A    between atoms: C_4  and  N_20
REMARK    6  A    between atoms: N_10  and  C_11
REMARK    7  A    between atoms: C_11  and  C_12
REMARK    8  A    between atoms: C_15  and  O_18
REMARK    9  A    between atoms: O_18  and  C_19
REMARK   10  A    between atoms: N_20  and  C_21
REMARK   11  A    between atoms: N_20  and  C_28
REMARK   12  A    between atoms: C_21  and  C_22
REMARK   13  A    between atoms: C_28  and  C_29
REMARK                            x       y       z     vdW  Elec       q    Type
REMARK                         _______ _______ _______ _____ _____    ______ ____
ROOT
ATOM      1  N   UNL     1      -2.767  -0.928  -0.612  0.00  0.00    -0.284 NA
ENDROOT
BRANCH   1   2
ATOM      2  C   UNL     1      -2.272  -1.985   0.280  0.00  0.00    +0.130 C 
BRANCH   2   3
ATOM      3  C   UNL     1      -2.886  -1.819   1.646  0.00  0.00    +0.169 A 
ATOM      4  N   UNL     1      -2.736  -0.796   2.453  0.00  0.00    -0.112 NA
ATOM      5  N   UNL     1      -3.417  -1.028   3.521  0.00  0.00    -0.023 NA
ATOM      6  N   UNL     1      -3.998  -2.172   3.417  0.00  0.00    -0.044 NA
ATOM      7  N   UNL     1      -3.700  -2.688   2.273  0.00  0.00    -0.223 N 
BRANCH   7   8
ATOM      8  C   UNL     1      -4.157  -3.980   1.755  0.00  0.00    +0.182 C 
BRANCH   8   9
ATOM      9  C   UNL     1      -3.286  -5.079   2.305  0.00  0.00    -0.026 A 
ATOM     10  C   UNL     1      -2.181  -5.507   1.591  0.00  0.00    +0.009 A 
ATOM     11  C   UNL     1      -1.381  -6.515   2.093  0.00  0.00    +0.046 A 
ATOM     12  C   UNL     1      -1.686  -7.098   3.314  0.00  0.00    +0.120 A 
ATOM     13  C   UNL     1      -2.794  -6.666   4.029  0.00  0.00    +0.046 A 
ATOM     14  C   UNL     1      -3.588  -5.655   3.525  0.00  0.00    +0.009 A 
BRANCH  12  15
ATOM     15  O   UNL     1      -0.900  -8.090   3.810  0.00  0.00    -0.495 OA
ATOM     16  C   UNL     1      -1.274  -8.643   5.073  0.00  0.00    +0.277 C 
ENDBRANCH  12  15
ENDBRANCH   8   9
ENDBRANCH   7   8
ENDBRANCH   2   3
BRANCH   2  18
ATOM     17  C   UNL     1      -0.228  -3.018   1.280  0.00  0.00    +0.009 C 
ATOM     18  C   UNL     1      -0.749  -1.887   0.390  0.00  0.00    +0.008 C 
ATOM     19  C   UNL     1      -0.128  -2.007  -1.003  0.00  0.00    +0.009 C 
ENDBRANCH   2  18
ENDBRANCH   1   2
BRANCH   1  20
ATOM     20  C   UNL     1      -2.494   0.403  -0.053  0.00  0.00    +0.120 C 
BRANCH  20  21
ATOM     21  C   UNL     1      -1.088   0.816  -0.402  0.00  0.00    -0.033 A 
ATOM     22  C   UNL     1      -0.094   0.763   0.558  0.00  0.00    +0.005 A 
ATOM     23  C   UNL     1       1.196   1.141   0.238  0.00  0.00    +0.000 A 
ATOM     24  C   UNL     1       1.494   1.572  -1.041  0.00  0.00    +0.000 A 
ATOM     25  C   UNL     1       0.500   1.623  -2.001  0.00  0.00    +0.000 A 
ATOM     26  C   UNL     1      -0.789   1.241  -1.683  0.00  0.00    +0.005 A 
ENDBRANCH  20  21
ENDBRANCH   1  20
BRANCH   1  27
ATOM     27  C   UNL     1      -2.193  -1.062  -1.957  0.00  0.00    +0.126 C 
BRANCH  27  28
ATOM     28  C   UNL     1      -3.260  -0.797  -2.987  0.00  0.00    +0.031 A 
ATOM     29  C   UNL     1      -3.263   0.376  -3.671  0.00  0.00    +0.020 A 
ATOM     30  C   UNL     1      -4.312   0.603  -4.665  0.00  0.00    +0.003 A 
ATOM     31  C   UNL     1      -4.365   1.794  -5.399  0.00  0.00    +0.059 A 
ATOM     32  C   UNL     1      -5.365   1.980  -6.327  0.00  0.00    +0.167 A 
ATOM     33  C   UNL     1      -6.327   0.984  -6.538  0.00  0.00    +0.168 A 
ATOM     34  C   UNL     1      -6.282  -0.196  -5.818  0.00  0.00    +0.075 A 
ATOM     35  C   UNL     1      -5.279  -0.399  -4.878  0.00  0.00    +0.053 A 
ATOM     36  N   UNL     1      -5.219  -1.569  -4.149  0.00  0.00    -0.322 N 
ATOM     37  H   UNL     1      -5.885  -2.259  -4.297  0.00  0.00    +0.169 HD
ATOM     38  C   UNL     1      -4.248  -1.770  -3.241  0.00  0.00    +0.254 A 
ATOM     39  O   UNL     1      -4.224  -2.817  -2.619  0.00  0.00    -0.268 OA
ATOM     40  O   UNL     1      -7.193   1.416  -7.500  0.00  0.00    -0.453 OA
ATOM     41  C   UNL     1      -7.002   2.840  -7.580  0.00  0.00    +0.466 C 
ATOM     42  O   UNL     1      -5.639   3.029  -7.159  0.00  0.00    -0.453 OA
ENDBRANCH  27  28
ENDBRANCH   1  27
TORSDOF 10
