REMARK  Name = ZINC11753654
REMARK  5 active torsions:
REMARK  status: ('A' for Active; 'I' for Inactive)
REMARK    1  A    between atoms: C_1  and  C_2
REMARK    2  A    between atoms: C_5  and  N_9
REMARK    3  A    between atoms: C_7  and  C_8
REMARK    4  A    between atoms: N_9  and  C_10
REMARK    5  A    between atoms: C_17  and  C_19
REMARK                            x       y       z     vdW  Elec       q    Type
REMARK                         _______ _______ _______ _____ _____    ______ ____
ROOT
ATOM      1  C   UNL     1       3.473   2.226  -0.200  0.00  0.00    +0.088 C 
ATOM      2  C   UNL     1       4.511   1.558  -1.105  0.00  0.00    +0.025 C 
ATOM      3  C   UNL     1       5.787   2.402  -1.129  0.00  0.00    +0.021 C 
ATOM      4  C   UNL     1       6.365   2.487   0.287  0.00  0.00    +0.108 C 
ATOM      5  N   UNL     1       5.325   2.992   1.193  0.00  0.00    -0.294 N 
ATOM      6  C   UNL     1       4.024   2.309   1.227  0.00  0.00    +0.130 C 
ATOM      7  C   UNL     1       5.558   4.063   1.977  0.00  0.00    +0.267 C 
ATOM      8  O   UNL     1       4.651   4.553   2.623  0.00  0.00    -0.268 OA
ENDROOT
BRANCH   7   9
ATOM      9  C   UNL     1       6.911   4.641   2.052  0.00  0.00    +0.145 A 
ATOM     10  C   UNL     1       7.257   5.794   2.686  0.00  0.00    +0.126 A 
ATOM     11  N   UNL     1       8.617   5.975   2.517  0.00  0.00    -0.300 N 
ATOM     12  C   UNL     1       9.580   6.893   2.881  0.00  0.00    +0.100 A 
ATOM     13  C   UNL     1      10.851   6.728   2.519  0.00  0.00    +0.067 A 
ATOM     14  S   UNL     1      10.780   5.199   1.599  0.00  0.00    -0.058 S 
ATOM     15  C   UNL     1       9.036   4.899   1.774  0.00  0.00    +0.178 A 
ATOM     16  N   UNL     1       8.037   4.113   1.505  0.00  0.00    -0.217 NA
ENDBRANCH   7   9
BRANCH   1  17
ATOM     17  N   UNL     1       2.240   1.434  -0.202  0.00  0.00    -0.339 N 
ATOM     18  H   UNL     1       2.273   0.486  -0.406  0.00  0.00    +0.146 HD
BRANCH  17  23
ATOM     19  C   UNL     1      -2.722   3.910   0.983  0.00  0.00    +0.044 C 
ATOM     20  C   UNL     1      -1.403   3.252   0.668  0.00  0.00    -0.047 A 
ATOM     21  C   UNL     1      -0.240   4.001   0.670  0.00  0.00    +0.005 A 
ATOM     22  C   UNL     1       0.970   3.401   0.382  0.00  0.00    +0.023 A 
ATOM     23  C   UNL     1       1.018   2.044   0.089  0.00  0.00    +0.028 A 
ATOM     24  C   UNL     1      -0.151   1.295   0.087  0.00  0.00    +0.026 A 
ATOM     25  C   UNL     1      -1.359   1.902   0.371  0.00  0.00    -0.046 A 
ATOM     26  C   UNL     1      -2.629   1.091   0.364  0.00  0.00    +0.044 C 
ENDBRANCH  17  23
ENDBRANCH   1  17
TORSDOF 3
