REMARK  Name = ZINC20830113
REMARK  11 active torsions:
REMARK  status: ('A' for Active; 'I' for Inactive)
REMARK    1  A    between atoms: C_1  and  C_2
REMARK    2  A    between atoms: C_7  and  N_8
REMARK    3  A    between atoms: N_8  and  S_9
REMARK    4  A    between atoms: S_9  and  C_12
REMARK    5  A    between atoms: C_15  and  N_18
REMARK    6  A    between atoms: C_19  and  C_21
REMARK    7  A    between atoms: C_21  and  C_22
REMARK    8  A    between atoms: C_22  and  S_23
REMARK    9  A    between atoms: S_23  and  C_24
REMARK   10  A    between atoms: C_27  and  C_30
REMARK   11  A    between atoms: N_28  and  N_29
REMARK                            x       y       z     vdW  Elec       q    Type
REMARK                         _______ _______ _______ _____ _____    ______ ____
ROOT
ATOM      1  N   UNL     1      -2.698   5.492  -5.528  0.00  0.00    -0.285 N 
ATOM      2  C   UNL     1      -2.223   6.747  -5.651  0.00  0.00    +0.218 C 
ATOM      3  O   UNL     1      -1.612   7.256  -4.735  0.00  0.00    -0.275 OA
ATOM      4  H   UNL     1      -3.317   5.058  -6.327  0.00  0.00    +0.155 HD
ENDROOT
BRANCH   1   8
ATOM      5  C   UNL     1      -1.820   3.255  -2.125  0.00  0.00    +0.109 A 
ATOM      6  C   UNL     1      -1.909   2.631  -3.356  0.00  0.00    +0.030 A 
ATOM      7  C   UNL     1      -2.205   3.369  -4.485  0.00  0.00    +0.025 A 
ATOM      8  C   UNL     1      -2.403   4.740  -4.385  0.00  0.00    +0.033 A 
ATOM      9  C   UNL     1      -2.307   5.364  -3.148  0.00  0.00    +0.025 A 
ATOM     10  C   UNL     1      -2.016   4.620  -2.022  0.00  0.00    +0.030 A 
BRANCH   5  11
ATOM     11  S   UNL     1      -1.449   2.309  -0.685  0.00  0.00    +0.072 S 
ATOM     12  O   UNL     1      -0.878   3.208   0.255  0.00  0.00    -0.150 OA
ATOM     13  O   UNL     1      -0.773   1.141  -1.130  0.00  0.00    -0.150 OA
BRANCH  11  14
ATOM     14  N   UNL     1      -2.891   1.806  -0.045  0.00  0.00    -0.216 N 
ATOM     15  H   UNL     1      -3.172   2.101   0.977  0.00  0.00    +0.174 HD
BRANCH  14  22
ATOM     16  C   UNL     1      -5.693   2.200   0.245  0.00  0.00    +0.046 C 
ATOM     17  C   UNL     1      -5.126   1.165  -0.692  0.00  0.00    -0.028 A 
ATOM     18  C   UNL     1      -5.973   0.374  -1.442  0.00  0.00    +0.005 A 
ATOM     19  C   UNL     1      -5.454  -0.576  -2.303  0.00  0.00    +0.000 A 
ATOM     20  C   UNL     1      -4.085  -0.736  -2.415  0.00  0.00    +0.002 A 
ATOM     21  C   UNL     1      -3.232   0.055  -1.671  0.00  0.00    +0.025 A 
ATOM     22  C   UNL     1      -3.751   1.007  -0.802  0.00  0.00    +0.051 A 
ENDBRANCH  14  22
ENDBRANCH  11  14
ENDBRANCH   5  11
ENDBRANCH   1   8
BRANCH   2  23
ATOM     23  C   UNL     1      -2.451   7.518  -6.925  0.00  0.00    +0.107 C 
BRANCH  23  24
ATOM     24  C   UNL     1      -1.816   8.904  -6.803  0.00  0.00    +0.086 C 
BRANCH  24  25
ATOM     25  S   UNL     1      -2.090   9.830  -8.334  0.00  0.00    -0.084 S 
BRANCH  25  26
ATOM     26  C   UNL     1      -1.279  11.341  -7.928  0.00  0.00    +0.209 A 
ATOM     27  N   UNL     1      -0.671  11.619  -6.796  0.00  0.00    -0.121 NA
ATOM     28  N   UNL     1      -0.188  12.810  -6.836  0.00  0.00    -0.127 NA
ATOM     29  C   UNL     1      -0.458  13.364  -7.995  0.00  0.00    +0.183 A 
ATOM     30  N   UNL     1      -1.160  12.438  -8.732  0.00  0.00    -0.224 N 
BRANCH  29  31
ATOM     31  C   UNL     1      -0.074  14.724  -8.429  0.00  0.00    +0.039 A 
ATOM     32  C   UNL     1       0.899  15.447  -7.728  0.00  0.00    +0.014 A 
ATOM     33  C   UNL     1       1.222  16.715  -8.175  0.00  0.00    +0.020 A 
ATOM     34  C   UNL     1       0.581  17.224  -9.290  0.00  0.00    +0.111 A 
ATOM     35  N   UNL     1      -0.332  16.520  -9.932  0.00  0.00    -0.263 NA
ATOM     36  C   UNL     1      -0.670  15.307  -9.548  0.00  0.00    +0.122 A 
ENDBRANCH  29  31
BRANCH  30  37
ATOM     37  N   UNL     1      -1.639  12.586 -10.002  0.00  0.00    -0.295 N 
ATOM     38  H   UNL     1      -1.474  13.528 -10.546  0.00  0.00    +0.163 HD
ATOM     39  H   UNL     1      -2.191  11.764 -10.482  0.00  0.00    +0.163 HD
ENDBRANCH  30  37
ENDBRANCH  25  26
ENDBRANCH  24  25
ENDBRANCH  23  24
ENDBRANCH   2  23
TORSDOF 10
