REMARK  Name = ZINC27549832
REMARK  15 active torsions:
REMARK  status: ('A' for Active; 'I' for Inactive)
REMARK    1  A    between atoms: C_1  and  C_2
REMARK    2  A    between atoms: C_2  and  O_3
REMARK    3  A    between atoms: O_3  and  C_4
REMARK    4  A    between atoms: C_6  and  C_22
REMARK    5  A    between atoms: C_9  and  O_10
REMARK    6  A    between atoms: O_10  and  C_11
REMARK    7  A    between atoms: C_11  and  C_12
REMARK    8  A    between atoms: C_12  and  O_13
REMARK    9  A    between atoms: O_13  and  C_14
REMARK   10  A    between atoms: C_16  and  C_21
REMARK   11  A    between atoms: C_19  and  C_20
REMARK   12  A    between atoms: C_32  and  C_34
REMARK   13  A    between atoms: C_34  and  C_35
REMARK   14  A    between atoms: C_35  and  C_36
REMARK   15  A    between atoms: C_35  and  C_37
REMARK                            x       y       z     vdW  Elec       q    Type
REMARK                         _______ _______ _______ _____ _____    ______ ____
ROOT
ATOM      1  C   UNL     1      -1.809  -2.117  -0.446  0.00  0.00    +0.162 A 
ATOM      2  C   UNL     1      -0.637  -2.807  -0.214  0.00  0.00    +0.057 A 
ATOM      3  C   UNL     1      -0.633  -4.209  -0.263  0.00  0.00    -0.021 A 
ATOM      4  C   UNL     1      -1.819  -4.899  -0.547  0.00  0.00    +0.012 A 
ATOM      5  C   UNL     1      -2.983  -4.201  -0.777  0.00  0.00    +0.050 A 
ATOM      6  C   UNL     1      -2.987  -2.812  -0.723  0.00  0.00    +0.162 A 
ENDROOT
BRANCH   3   7
ATOM      7  C   UNL     1       0.608  -4.949  -0.018  0.00  0.00    +0.024 C 
ATOM      8  C   UNL     1       0.572  -6.146   0.660  0.00  0.00    +0.081 C 
ATOM      9  C   UNL     1       1.774  -7.020   0.774  0.00  0.00    +0.152 C 
ATOM     10  N   UNL     1       2.994  -6.557   0.842  0.00  0.00    -0.283 NA
ATOM     11  N   UNL     1       1.465  -8.397   0.801  0.00  0.00    -0.152 N 
ATOM     12  C   UNL     1       0.200  -8.757   1.213  0.00  0.00    +0.181 C 
ATOM     13  N   UNL     1      -0.803  -7.964   1.498  0.00  0.00    -0.152 NA
ATOM     14  C   UNL     1      -0.663  -6.633   1.323  0.00  0.00    +0.273 C 
ATOM     15  O   UNL     1      -1.526  -5.854   1.694  0.00  0.00    -0.268 OA
ATOM     16  S   UNL     1       0.302 -10.527   1.223  0.00  0.00    -0.038 S 
ATOM     17  C   UNL     1       1.968 -10.669   0.589  0.00  0.00    +0.100 C 
ATOM     18  N   UNL     1       2.322  -9.422   0.462  0.00  0.00    -0.169 NA
ATOM     19  H   UNL     1       3.742  -7.170   0.915  0.00  0.00    +0.188 HD
BRANCH  17  20
ATOM     20  C   UNL     1       2.759 -11.913   0.280  0.00  0.00    +0.067 C 
BRANCH  20  21
ATOM     21  C   UNL     1       4.143 -11.521  -0.242  0.00  0.00    -0.011 C 
ATOM     22  C   UNL     1       4.923 -10.810   0.865  0.00  0.00    +0.007 C 
ATOM     23  C   UNL     1       4.901 -12.778  -0.673  0.00  0.00    +0.007 C 
ENDBRANCH  20  21
ENDBRANCH  17  20
ENDBRANCH   3   7
BRANCH   1  24
ATOM     24  O   UNL     1      -1.817  -0.758  -0.399  0.00  0.00    -0.489 OA
BRANCH  24  26
ATOM     25  C   UNL     1      -0.782   1.405  -0.100  0.00  0.00    +0.048 C 
ATOM     26  C   UNL     1      -0.577  -0.111  -0.110  0.00  0.00    +0.226 C 
ENDBRANCH  24  26
ENDBRANCH   1  24
BRANCH   6  27
ATOM     27  O   UNL     1      -4.139  -2.130  -0.945  0.00  0.00    -0.485 OA
BRANCH  27  28
ATOM     28  C   UNL     1      -5.308  -2.903  -1.223  0.00  0.00    +0.270 C 
BRANCH  28  29
ATOM     29  C   UNL     1      -6.498  -1.968  -1.444  0.00  0.00    +0.270 C 
BRANCH  29  30
ATOM     30  O   UNL     1      -6.276  -1.183  -2.618  0.00  0.00    -0.488 OA
BRANCH  30  31
ATOM     31  C   UNL     1      -7.245  -0.294  -2.958  0.00  0.00    +0.124 A 
ATOM     32  C   UNL     1      -8.385  -0.175  -2.176  0.00  0.00    +0.049 A 
ATOM     33  C   UNL     1      -9.369   0.730  -2.524  0.00  0.00    -0.047 A 
ATOM     34  C   UNL     1      -9.219   1.516  -3.651  0.00  0.00    +0.004 A 
ATOM     35  C   UNL     1      -8.085   1.399  -4.433  0.00  0.00    +0.007 A 
ATOM     36  C   UNL     1      -7.095   0.500  -4.086  0.00  0.00    -0.009 A 
ATOM     37  C   UNL     1      -5.856   0.377  -4.935  0.00  0.00    +0.047 C 
ATOM     38  C   UNL     1     -10.607   0.860  -1.675  0.00  0.00    +0.044 C 
ENDBRANCH  30  31
ENDBRANCH  29  30
ENDBRANCH  28  29
ENDBRANCH  27  28
ENDBRANCH   6  27
TORSDOF 10
