REMARK  Name = ZINC05003502
REMARK  4 active torsions:
REMARK  status: ('A' for Active; 'I' for Inactive)
REMARK    1  A    between atoms: C_1  and  C_2
REMARK    2  A    between atoms: C_2  and  C_18
REMARK    3  A    between atoms: N_3  and  N_4
REMARK    4  A    between atoms: C_5  and  C_7
REMARK                            x       y       z     vdW  Elec       q    Type
REMARK                         _______ _______ _______ _____ _____    ______ ____
ROOT
ATOM      1  N   UNL     1      -2.222   8.132   0.364  0.00  0.00    -0.204 N 
ATOM      2  C   UNL     1      -1.210   7.309   0.025  0.00  0.00    +0.276 C 
ATOM      3  O   UNL     1      -0.256   7.742  -0.587  0.00  0.00    -0.270 OA
ATOM      4  H   UNL     1      -2.985   7.786   0.854  0.00  0.00    +0.177 HD
ENDROOT
BRANCH   2   5
ATOM      5  C   UNL     1      -1.263   5.852   0.407  0.00  0.00    +0.297 C 
ATOM      6  C   UNL     1      -2.424   5.167  -0.326  0.00  0.00    +0.283 C 
ATOM      7  O   UNL     1      -2.437   3.785   0.048  0.00  0.00    -0.484 OA
ATOM      8  C   UNL     1      -1.241   3.136   0.030  0.00  0.00    +0.162 A 
ATOM      9  C   UNL     1      -1.219   1.749   0.017  0.00  0.00    +0.049 A 
ATOM     10  C   UNL     1      -0.013   1.076   0.008  0.00  0.00    +0.004 A 
ATOM     11  C   UNL     1       1.176   1.782   0.000  0.00  0.00    +0.004 A 
ATOM     12  C   UNL     1       1.161   3.164   0.007  0.00  0.00    +0.049 A 
ATOM     13  C   UNL     1      -0.046   3.846   0.020  0.00  0.00    +0.163 A 
ATOM     14  O   UNL     1      -0.045   5.207   0.019  0.00  0.00    -0.472 OA
ENDBRANCH   2   5
BRANCH   1  17
ATOM     15  C   UNL     1      -4.333   9.741   1.096  0.00  0.00    +0.068 C 
ATOM     16  C   UNL     1      -3.148  10.278   0.336  0.00  0.00    +0.063 C 
ATOM     17  N   UNL     1      -2.173   9.486   0.009  0.00  0.00    -0.184 NA
BRANCH  16  18
ATOM     18  C   UNL     1      -3.096  11.704  -0.038  0.00  0.00    -0.002 A 
ATOM     19  C   UNL     1      -4.146  12.558   0.307  0.00  0.00    +0.012 A 
ATOM     20  C   UNL     1      -4.090  13.891  -0.040  0.00  0.00    +0.039 A 
ATOM     21  C   UNL     1      -2.999  14.382  -0.739  0.00  0.00    +0.123 A 
ATOM     22  C   UNL     1      -1.956  13.539  -1.089  0.00  0.00    +0.039 A 
ATOM     23  C   UNL     1      -1.999  12.205  -0.743  0.00  0.00    +0.012 A 
ATOM     24  F   UNL     1      -2.951  15.688  -1.081  0.00  0.00    -0.205 F 
ENDBRANCH  16  18
ENDBRANCH   1  17
TORSDOF 3
