REMARK  Name = ZINC08790697
REMARK  2 active torsions:
REMARK  status: ('A' for Active; 'I' for Inactive)
REMARK    1  A    between atoms: C_8  and  C_25
REMARK    2  A    between atoms: C_25  and  C_27
REMARK                            x       y       z     vdW  Elec       q    Type
REMARK                         _______ _______ _______ _____ _____    ______ ____
ROOT
ATOM      1  C   UNL     1      -2.036  -4.394   2.939  0.00  0.00    +0.000 A 
ATOM      2  C   UNL     1      -1.623  -3.963   4.187  0.00  0.00    +0.002 A 
ATOM      3  C   UNL     1      -1.356  -2.628   4.410  0.00  0.00    +0.023 A 
ATOM      4  C   UNL     1      -1.500  -1.703   3.378  0.00  0.00    +0.038 A 
ATOM      5  C   UNL     1      -1.917  -2.148   2.128  0.00  0.00    -0.011 A 
ATOM      6  C   UNL     1      -2.183  -3.481   1.910  0.00  0.00    +0.006 A 
ATOM      7  C   UNL     1      -1.974  -0.926   1.254  0.00  0.00    +0.085 C 
ATOM      8  C   UNL     1      -3.394  -0.700   0.708  0.00  0.00    +0.066 C 
ATOM      9  C   UNL     1      -3.136  -0.177  -0.726  0.00  0.00    -0.055 C 
ATOM     10  C   UNL     1      -4.269  -0.654  -1.649  0.00  0.00    -0.016 C 
ATOM     11  C   UNL     1      -3.802  -2.010  -2.211  0.00  0.00    -0.020 C 
ATOM     12  C   UNL     1      -2.433  -2.270  -1.553  0.00  0.00    -0.076 C 
ATOM     13  C   UNL     1      -1.073  -1.056   0.032  0.00  0.00    +0.060 C 
ATOM     14  C   UNL     1       0.009  -0.009   0.032  0.00  0.00    -0.027 A 
ATOM     15  C   UNL     1      -0.009   1.368   0.031  0.00  0.00    +0.004 A 
ATOM     16  C   UNL     1       1.180   2.075   0.031  0.00  0.00    +0.000 A 
ATOM     17  C   UNL     1       2.385   1.396   0.032  0.00  0.00    +0.002 A 
ATOM     18  C   UNL     1       2.407   0.017   0.032  0.00  0.00    +0.023 A 
ATOM     19  C   UNL     1       1.214  -0.703   0.033  0.00  0.00    +0.036 A 
ATOM     20  N   UNL     1       0.979  -2.079   0.033  0.00  0.00    -0.286 N 
ATOM     21  C   UNL     1      -0.335  -2.370   0.031  0.00  0.00    +0.212 C 
ATOM     22  O   UNL     1      -0.830  -3.477   0.030  0.00  0.00    -0.277 OA
ATOM     23  C   UNL     1      -1.550   0.210   2.145  0.00  0.00    +0.228 C 
ATOM     24  O   UNL     1      -1.456   1.379   1.834  0.00  0.00    -0.275 OA
ATOM     25  N   UNL     1      -1.294  -0.322   3.356  0.00  0.00    -0.285 N 
ATOM     26  H   UNL     1       1.681  -2.748   0.034  0.00  0.00    +0.155 HD
ATOM     27  H   UNL     1      -1.001   0.194   4.123  0.00  0.00    +0.155 HD
ATOM     28  N   UNL     1      -1.966  -0.935  -1.131  0.00  0.00    +0.395 N 
ATOM     29  H   UNL     1      -1.479  -0.467  -1.904  0.00  0.00    -0.079 HD
ENDROOT
BRANCH   8  30
ATOM     30  C   UNL     1      -4.164  -1.995   0.672  0.00  0.00    +0.172 C 
ATOM     31  O   UNL     1      -4.115  -2.703  -0.314  0.00  0.00    -0.291 OA
BRANCH  30  32
ATOM     32  C   UNL     1      -4.941  -2.385   1.785  0.00  0.00    +0.055 A 
ATOM     33  C   UNL     1      -5.718  -3.527   1.955  0.00  0.00    +0.019 A 
ATOM     34  C   UNL     1      -6.378  -3.659   3.148  0.00  0.00    +0.008 A 
ATOM     35  C   UNL     1      -6.245  -2.688   4.092  0.00  0.00    +0.046 A 
ATOM     36  S   UNL     1      -5.178  -1.547   3.341  0.00  0.00    -0.094 S 
ENDBRANCH  30  32
ENDBRANCH   8  30
TORSDOF 2
