REMARK  Name = ZINC36490854
REMARK  17 active torsions:
REMARK  status: ('A' for Active; 'I' for Inactive)
REMARK    1  A    between atoms: C_1  and  C_2
REMARK    2  A    between atoms: C_2  and  C_3
REMARK    3  A    between atoms: C_2  and  C_4
REMARK    4  A    between atoms: C_2  and  C_5
REMARK    5  A    between atoms: C_5  and  C_6
REMARK    6  A    between atoms: C_6  and  C_7
REMARK    7  A    between atoms: C_6  and  C_8
REMARK    8  A    between atoms: C_6  and  N_9
REMARK    9  A    between atoms: C_10  and  C_12
REMARK   10  A    between atoms: C_12  and  C_14
REMARK   11  A    between atoms: C_12  and  N_24
REMARK   12  A    between atoms: C_17  and  O_22
REMARK   13  A    between atoms: C_18  and  O_20
REMARK   14  A    between atoms: O_20  and  C_21
REMARK   15  A    between atoms: O_22  and  C_23
REMARK   16  A    between atoms: N_24  and  C_25
REMARK   17  A    between atoms: C_31  and  C_33
REMARK                            x       y       z     vdW  Elec       q    Type
REMARK                         _______ _______ _______ _____ _____    ______ ____
ROOT
ATOM      1  C   UNL     1       5.265  -0.397  -4.294  0.00  0.00    +0.193 C 
ENDROOT
BRANCH   1   2
ATOM      2  C   UNL     1       4.969   0.628  -5.358  0.00  0.00    -0.015 A 
ATOM      3  C   UNL     1       5.778   1.741  -5.488  0.00  0.00    +0.010 A 
ATOM      4  C   UNL     1       5.510   2.684  -6.462  0.00  0.00    +0.050 A 
ATOM      5  C   UNL     1       4.429   2.515  -7.312  0.00  0.00    +0.162 A 
ATOM      6  C   UNL     1       3.615   1.394  -7.182  0.00  0.00    +0.162 A 
ATOM      7  C   UNL     1       3.892   0.450  -6.206  0.00  0.00    +0.055 A 
BRANCH   6   8
ATOM      8  O   UNL     1       2.553   1.223  -8.014  0.00  0.00    -0.491 OA
ATOM      9  C   UNL     1       1.761   0.049  -7.822  0.00  0.00    +0.277 C 
ENDBRANCH   6   8
BRANCH   5  10
ATOM     10  O   UNL     1       4.164   3.442  -8.271  0.00  0.00    -0.491 OA
ATOM     11  C   UNL     1       5.042   4.567  -8.346  0.00  0.00    +0.277 C 
ENDBRANCH   5  10
ENDBRANCH   1   2
BRANCH   1  13
ATOM     12  N   UNL     1       3.487  -0.086  -2.602  0.00  0.00    -0.308 N 
ATOM     13  C   UNL     1       4.772   0.105  -2.961  0.00  0.00    +0.239 C 
ATOM     14  O   UNL     1       5.532   0.682  -2.212  0.00  0.00    -0.273 OA
ATOM     15  H   UNL     1       2.880  -0.547  -3.201  0.00  0.00    +0.149 HD
BRANCH  12  16
ATOM     16  C   UNL     1       3.008   0.403  -1.307  0.00  0.00    +0.030 C 
ATOM     17  C   UNL     1       3.419   1.866  -1.130  0.00  0.00    +0.031 C 
ATOM     18  C   UNL     1       3.622  -0.438  -0.186  0.00  0.00    +0.031 C 
BRANCH  16  19
ATOM     19  C   UNL     1       1.483   0.290  -1.252  0.00  0.00    +0.031 C 
BRANCH  19  21
ATOM     20  C   UNL     1       0.959  -0.344  -3.611  0.00  0.00    +0.010 C 
ATOM     21  C   UNL     1       0.888   0.779  -2.574  0.00  0.00    -0.036 C 
ATOM     22  C   UNL     1       1.681   1.987  -3.075  0.00  0.00    +0.010 C 
ATOM     23  C   UNL     1      -0.572   1.182  -2.357  0.00  0.00    +0.010 C 
ENDBRANCH  19  21
ENDBRANCH  16  19
ENDBRANCH  12  16
ENDBRANCH   1  13
BRANCH   1  24
ATOM     24  N   UNL     1       6.710  -0.626  -4.225  0.00  0.00    -0.281 N 
ATOM     25  C   UNL     1       7.234  -1.774  -4.700  0.00  0.00    +0.237 C 
ATOM     26  O   UNL     1       8.437  -1.927  -4.724  0.00  0.00    -0.274 OA
BRANCH  25  27
ATOM     27  C   UNL     1       6.325  -2.866  -5.200  0.00  0.00    +0.159 C 
ATOM     28  C   UNL     1       5.697  -3.626  -4.011  0.00  0.00    +0.041 C 
ATOM     29  C   UNL     1       6.684  -4.802  -3.830  0.00  0.00    +0.098 C 
ATOM     30  C   UNL     1       7.319  -4.966  -5.194  0.00  0.00    +0.214 C 
ATOM     31  O   UNL     1       7.937  -5.943  -5.559  0.00  0.00    -0.276 OA
ATOM     32  N   UNL     1       7.098  -3.869  -5.943  0.00  0.00    -0.304 N 
ATOM     33  H   UNL     1       7.408  -3.756  -6.855  0.00  0.00    +0.149 HD
ENDBRANCH  25  27
BRANCH  24  34
ATOM     34  C   UNL     1       7.586   0.393  -3.641  0.00  0.00    +0.077 C 
ATOM     35  C   UNL     1       8.567   0.892  -4.703  0.00  0.00    +0.022 C 
ATOM     36  C   UNL     1       9.482   1.956  -4.093  0.00  0.00    +0.002 C 
ATOM     37  C   UNL     1      10.261   1.349  -2.925  0.00  0.00    +0.000 C 
ATOM     38  C   UNL     1       9.280   0.849  -1.862  0.00  0.00    +0.002 C 
ATOM     39  C   UNL     1       8.366  -0.214  -2.472  0.00  0.00    +0.022 C 
ENDBRANCH  24  34
ENDBRANCH   1  24
TORSDOF 10
