REMARK  Name = ZINC14093000
REMARK  2 active torsions:
REMARK  status: ('A' for Active; 'I' for Inactive)
REMARK    1  A    between atoms: C_3  and  N_11
REMARK    2  A    between atoms: C_6  and  C_7
REMARK                            x       y       z     vdW  Elec       q    Type
REMARK                         _______ _______ _______ _____ _____    ______ ____
ROOT
ATOM      1  N   UNL     1       3.586   2.125  -0.021  0.00  0.00    -0.210 N 
ATOM      2  C   UNL     1       3.646   3.482  -0.009  0.00  0.00    +0.230 C 
ATOM      3  O   UNL     1       2.730   4.253  -0.199  0.00  0.00    -0.274 OA
ATOM      4  C   UNL     1       5.072   3.836   0.287  0.00  0.00    +0.092 C 
ATOM      5  C   UNL     1       5.655   5.072  -0.363  0.00  0.00    +0.040 C 
ATOM      6  C   UNL     1       7.157   4.996  -0.187  0.00  0.00    -0.030 C 
ATOM      7  C   UNL     1       7.807   3.909   0.101  0.00  0.00    -0.030 C 
ATOM      8  C   UNL     1       7.163   2.550   0.277  0.00  0.00    +0.040 C 
ATOM      9  C   UNL     1       5.796   2.611  -0.352  0.00  0.00    +0.092 C 
ATOM     10  C   UNL     1       4.806   1.529  -0.036  0.00  0.00    +0.230 C 
ATOM     11  O   UNL     1       5.046   0.357   0.164  0.00  0.00    -0.274 OA
ENDROOT
BRANCH   1  14
ATOM     12  C   UNL     1      -0.017   1.379   0.010  0.00  0.00    +0.014 A 
ATOM     13  C   UNL     1       1.169   2.087   0.002  0.00  0.00    +0.024 A 
ATOM     14  C   UNL     1       2.381   1.409  -0.013  0.00  0.00    +0.044 A 
ATOM     15  C   UNL     1       2.396   0.021  -0.021  0.00  0.00    +0.024 A 
ATOM     16  C   UNL     1       1.207  -0.682  -0.013  0.00  0.00    +0.014 A 
ATOM     17  C   UNL     1       0.002  -0.004   0.002  0.00  0.00    +0.055 A 
BRANCH  17  18
ATOM     18  C   UNL     1      -1.294  -0.774   0.011  0.00  0.00    +0.417 C 
ATOM     19  F   UNL     1      -1.708  -1.005  -1.305  0.00  0.00    -0.166 F 
ATOM     20  F   UNL     1      -1.105  -1.998   0.662  0.00  0.00    -0.166 F 
ATOM     21  F   UNL     1      -2.271  -0.034   0.684  0.00  0.00    -0.166 F 
ENDBRANCH  17  18
ENDBRANCH   1  14
TORSDOF 2
