REMARK  Name = ZINC02478049
REMARK  12 active torsions:
REMARK  status: ('A' for Active; 'I' for Inactive)
REMARK    1  A    between atoms: C_1  and  C_2
REMARK    2  A    between atoms: C_2  and  C_3
REMARK    3  A    between atoms: C_2  and  C_4
REMARK    4  A    between atoms: C_2  and  N_5
REMARK    5  A    between atoms: N_5  and  S_6
REMARK    6  A    between atoms: S_6  and  C_9
REMARK    7  A    between atoms: C_16  and  S_24
REMARK    8  A    between atoms: S_24  and  N_27
REMARK    9  A    between atoms: N_27  and  C_28
REMARK   10  A    between atoms: C_28  and  C_29
REMARK   11  A    between atoms: C_28  and  C_30
REMARK   12  A    between atoms: C_28  and  C_31
REMARK                            x       y       z     vdW  Elec       q    Type
REMARK                         _______ _______ _______ _____ _____    ______ ____
ROOT
ATOM      1  C   UNL     1       1.216  -0.851   0.960  0.00  0.00    +0.106 A 
ATOM      2  C   UNL     1       1.850   0.067   1.783  0.00  0.00    +0.029 A 
ATOM      3  C   UNL     1       2.875  -0.325   2.621  0.00  0.00    +0.011 A 
ATOM      4  C   UNL     1       3.273  -1.654   2.636  0.00  0.00    -0.000 A 
ATOM      5  C   UNL     1       4.358  -2.156   3.502  0.00  0.00    +0.025 A 
ATOM      6  C   UNL     1       4.881  -1.376   4.530  0.00  0.00    +0.014 A 
ATOM      7  C   UNL     1       5.890  -1.879   5.324  0.00  0.00    +0.029 A 
ATOM      8  C   UNL     1       6.383  -3.155   5.101  0.00  0.00    +0.109 A 
ATOM      9  C   UNL     1       5.875  -3.936   4.083  0.00  0.00    +0.075 A 
ATOM     10  C   UNL     1       4.861  -3.446   3.272  0.00  0.00    +0.142 A 
ATOM     11  O   UNL     1       4.371  -4.204   2.259  0.00  0.00    -0.422 OA
ATOM     12  C   UNL     1       3.097  -3.987   1.855  0.00  0.00    +0.345 A 
ATOM     13  O   UNL     1       2.366  -4.910   1.552  0.00  0.00    -0.245 OA
ATOM     14  C   UNL     1       2.628  -2.590   1.797  0.00  0.00    +0.069 A 
ATOM     15  C   UNL     1       1.594  -2.179   0.964  0.00  0.00    +0.044 A 
ENDROOT
BRANCH   1  16
ATOM     16  S   UNL     1      -0.090  -0.320  -0.097  0.00  0.00    +0.059 S 
ATOM     17  O   UNL     1      -0.320  -1.375  -1.021  0.00  0.00    -0.153 OA
ATOM     18  O   UNL     1       0.236   0.999  -0.514  0.00  0.00    -0.153 OA
BRANCH  16  19
ATOM     19  N   UNL     1      -1.454  -0.199   0.833  0.00  0.00    -0.185 NA
ATOM     20  H   UNL     1      -1.850   0.670   1.003  0.00  0.00    +0.149 HD
BRANCH  19  22
ATOM     21  C   UNL     1      -1.005  -2.200   2.166  0.00  0.00    +0.029 C 
ATOM     22  C   UNL     1      -2.064  -1.405   1.399  0.00  0.00    +0.032 C 
ATOM     23  C   UNL     1      -2.631  -2.268   0.270  0.00  0.00    +0.029 C 
ATOM     24  C   UNL     1      -3.192  -1.006   2.352  0.00  0.00    +0.029 C 
ENDBRANCH  19  22
ENDBRANCH  16  19
ENDBRANCH   1  16
BRANCH   8  25
ATOM     25  S   UNL     1       7.671  -3.785   6.125  0.00  0.00    +0.059 S 
ATOM     26  O   UNL     1       8.496  -4.588   5.293  0.00  0.00    -0.153 OA
ATOM     27  O   UNL     1       8.178  -2.682   6.864  0.00  0.00    -0.153 OA
BRANCH  25  28
ATOM     28  N   UNL     1       6.968  -4.807   7.223  0.00  0.00    -0.185 NA
ATOM     29  H   UNL     1       7.154  -5.758   7.188  0.00  0.00    +0.149 HD
BRANCH  28  30
ATOM     30  C   UNL     1       6.065  -4.274   8.246  0.00  0.00    +0.032 C 
ATOM     31  C   UNL     1       4.967  -3.446   7.576  0.00  0.00    +0.029 C 
ATOM     32  C   UNL     1       5.431  -5.432   9.019  0.00  0.00    +0.029 C 
ATOM     33  C   UNL     1       6.855  -3.388   9.212  0.00  0.00    +0.029 C 
ENDBRANCH  28  30
ENDBRANCH  25  28
ENDBRANCH   8  25
TORSDOF 6
