REMARK  Name = ZINC16683087
REMARK  11 active torsions:
REMARK  status: ('A' for Active; 'I' for Inactive)
REMARK    1  A    between atoms: C_1  and  C_2
REMARK    2  A    between atoms: C_2  and  O_3
REMARK    3  A    between atoms: O_3  and  C_4
REMARK    4  A    between atoms: C_4  and  C_6
REMARK    5  A    between atoms: C_10  and  N_11
REMARK    6  A    between atoms: C_12  and  C_14
REMARK    7  A    between atoms: C_14  and  N_15
REMARK    8  A    between atoms: N_15  and  C_16
REMARK    9  A    between atoms: N_15  and  S_23
REMARK   10  A    between atoms: C_20  and  C_22
REMARK   11  A    between atoms: S_23  and  C_26
REMARK                            x       y       z     vdW  Elec       q    Type
REMARK                         _______ _______ _______ _____ _____    ______ ____
ROOT
ATOM      1  N   UNL     1      -2.261   6.730   2.598  0.00  0.00    -0.278 N 
ATOM      2  C   UNL     1      -1.249   6.101   1.968  0.00  0.00    +0.237 C 
ATOM      3  O   UNL     1      -0.321   5.655   2.608  0.00  0.00    -0.274 OA
ATOM      4  H   UNL     1      -3.003   7.088   2.086  0.00  0.00    +0.155 HD
ENDROOT
BRANCH   1   9
ATOM      5  C   UNL     1      -3.178   7.481   4.797  0.00  0.00    +0.091 A 
ATOM      6  C   UNL     1      -2.919   7.483   6.227  0.00  0.00    -0.021 A 
ATOM      7  C   UNL     1      -1.768   6.886   6.604  0.00  0.00    -0.004 A 
ATOM      8  S   UNL     1      -1.036   6.319   5.095  0.00  0.00    -0.077 S 
ATOM      9  C   UNL     1      -2.241   6.867   3.977  0.00  0.00    +0.086 A 
ATOM     10  C   UNL     1      -1.239   6.743   7.998  0.00  0.00    +0.043 C 
ATOM     11  C   UNL     1      -2.014   7.705   8.911  0.00  0.00    +0.005 C 
ATOM     12  C   UNL     1      -3.512   7.545   8.637  0.00  0.00    +0.005 C 
ATOM     13  C   UNL     1      -3.852   8.110   7.256  0.00  0.00    +0.037 C 
BRANCH   5  14
ATOM     14  C   UNL     1      -4.384   8.099   4.242  0.00  0.00    +0.342 C 
ATOM     15  O   UNL     1      -5.399   7.442   4.110  0.00  0.00    -0.245 OA
BRANCH  14  16
ATOM     16  O   UNL     1      -4.369   9.398   3.878  0.00  0.00    -0.461 OA
BRANCH  16  18
ATOM     17  C   UNL     1      -5.392  11.418   2.982  0.00  0.00    +0.048 C 
ATOM     18  C   UNL     1      -5.601   9.944   3.336  0.00  0.00    +0.229 C 
ENDBRANCH  16  18
ENDBRANCH  14  16
ENDBRANCH   5  14
ENDBRANCH   1   9
BRANCH   2  19
ATOM     19  C   UNL     1      -1.271   5.953   0.468  0.00  0.00    +0.227 C 
BRANCH  19  20
ATOM     20  N   UNL     1      -0.069   5.239   0.030  0.00  0.00    -0.194 N 
BRANCH  20  21
ATOM     21  C   UNL     1      -0.046   3.843   0.034  0.00  0.00    +0.052 A 
ATOM     22  C   UNL     1      -0.962   3.129  -0.729  0.00  0.00    +0.025 A 
ATOM     23  C   UNL     1      -0.936   1.749  -0.723  0.00  0.00    +0.002 A 
ATOM     24  C   UNL     1      -0.001   1.076   0.042  0.00  0.00    +0.003 A 
ATOM     25  C   UNL     1       0.908   1.783   0.807  0.00  0.00    -0.049 A 
ATOM     26  C   UNL     1       0.892   3.164   0.801  0.00  0.00    +0.028 A 
ATOM     27  C   UNL     1       1.921   1.046   1.645  0.00  0.00    +0.044 C 
ENDBRANCH  20  21
BRANCH  20  28
ATOM     28  S   UNL     1       1.262   6.088  -0.469  0.00  0.00    +0.075 S 
ATOM     29  O   UNL     1       1.248   7.320   0.239  0.00  0.00    -0.150 OA
ATOM     30  O   UNL     1       2.362   5.189  -0.411  0.00  0.00    -0.150 OA
BRANCH  28  31
ATOM     31  C   UNL     1       1.022   6.481  -2.170  0.00  0.00    +0.109 A 
ATOM     32  C   UNL     1       1.469   5.614  -3.149  0.00  0.00    +0.029 A 
ATOM     33  C   UNL     1       1.275   5.920  -4.483  0.00  0.00    +0.002 A 
ATOM     34  C   UNL     1       0.645   7.098  -4.838  0.00  0.00    +0.000 A 
ATOM     35  C   UNL     1       0.204   7.968  -3.858  0.00  0.00    +0.002 A 
ATOM     36  C   UNL     1       0.392   7.659  -2.524  0.00  0.00    +0.029 A 
ENDBRANCH  28  31
ENDBRANCH  20  28
ENDBRANCH  19  20
ENDBRANCH   2  19
TORSDOF 9
