REMARK  Name = ZINC39665451
REMARK  8 active torsions:
REMARK  status: ('A' for Active; 'I' for Inactive)
REMARK    1  A    between atoms: C_1  and  C_2
REMARK    2  A    between atoms: C_6  and  C_7
REMARK    3  A    between atoms: C_11  and  C_20
REMARK    4  A    between atoms: N_22  and  C_23
REMARK    5  A    between atoms: C_23  and  C_24
REMARK    6  A    between atoms: C_24  and  C_26
REMARK    7  A    between atoms: C_24  and  O_27
REMARK    8  A    between atoms: O_27  and  C_28
REMARK                            x       y       z     vdW  Elec       q    Type
REMARK                         _______ _______ _______ _____ _____    ______ ____
ROOT
ATOM      1  C   UNL     1       0.070  -0.298   2.370  0.00  0.00    +0.254 C 
ATOM      2  O   UNL     1       0.032  -0.682   1.216  0.00  0.00    -0.269 OA
ATOM      3  N   UNL     1       0.160  -1.192   3.375  0.00  0.00    -0.296 N 
ATOM      4  C   UNL     1       0.311  -2.662   3.272  0.00  0.00    +0.121 C 
ATOM      5  C   UNL     1       1.299  -3.034   4.400  0.00  0.00    +0.100 C 
ATOM      6  C   UNL     1       1.175  -1.891   5.422  0.00  0.00    -0.004 C 
ATOM      7  C   UNL     1       0.137  -0.925   4.833  0.00  0.00    +0.115 C 
ATOM      8  C   UNL     1       0.692  -2.433   6.764  0.00  0.00    -0.010 C 
ATOM      9  C   UNL     1       0.632  -1.289   7.780  0.00  0.00    -0.082 C 
ATOM     10  N   UNL     1       1.964  -0.688   7.922  0.00  0.00    +0.379 N 
ATOM     11  C   UNL     1       2.381  -0.087   6.650  0.00  0.00    -0.082 C 
ATOM     12  C   UNL     1       2.515  -1.181   5.586  0.00  0.00    -0.010 C 
ATOM     13  H   UNL     1       1.935   0.025   8.636  0.00  0.00    -0.086 HD
ATOM     14  H   UNL     1       2.626  -1.401   8.189  0.00  0.00    -0.086 HD
ENDROOT
BRANCH   1  20
ATOM     15  C   UNL     1       0.162   2.029   0.301  0.00  0.00    +0.045 C 
ATOM     16  C   UNL     1       0.055   2.212   1.793  0.00  0.00    -0.031 A 
ATOM     17  C   UNL     1      -0.017   3.455   2.374  0.00  0.00    +0.011 A 
ATOM     18  C   UNL     1      -0.112   3.549   3.723  0.00  0.00    +0.046 A 
ATOM     19  S   UNL     1      -0.105   1.953   4.247  0.00  0.00    -0.092 S 
ATOM     20  C   UNL     1       0.019   1.136   2.667  0.00  0.00    +0.077 A 
ENDBRANCH   1  20
BRANCH   5  21
ATOM     21  C   UNL     1       2.705  -3.109   3.862  0.00  0.00    +0.218 C 
ATOM     22  O   UNL     1       3.057  -2.358   2.976  0.00  0.00    -0.275 OA
ATOM     23  N   UNL     1       3.572  -4.010   4.365  0.00  0.00    -0.312 N 
ATOM     24  H   UNL     1       3.291  -4.610   5.073  0.00  0.00    +0.149 HD
BRANCH  23  25
ATOM     25  C   UNL     1       4.938  -4.083   3.842  0.00  0.00    +0.148 C 
BRANCH  25  26
ATOM     26  C   UNL     1       5.708  -5.181   4.579  0.00  0.00    +0.187 C 
ATOM     27  C   UNL     1       7.168  -5.175   4.122  0.00  0.00    +0.053 C 
BRANCH  26  28
ATOM     28  O   UNL     1       5.123  -6.452   4.287  0.00  0.00    -0.488 OA
BRANCH  28  29
ATOM     29  C   UNL     1       5.328  -7.447   5.189  0.00  0.00    +0.121 A 
ATOM     30  C   UNL     1       6.000  -7.184   6.374  0.00  0.00    +0.045 A 
ATOM     31  C   UNL     1       6.207  -8.198   7.289  0.00  0.00    +0.004 A 
ATOM     32  C   UNL     1       5.746  -9.474   7.025  0.00  0.00    +0.000 A 
ATOM     33  C   UNL     1       5.077  -9.739   5.844  0.00  0.00    +0.004 A 
ATOM     34  C   UNL     1       4.862  -8.728   4.928  0.00  0.00    +0.045 A 
ENDBRANCH  28  29
ENDBRANCH  26  28
ENDBRANCH  25  26
ENDBRANCH  23  25
ENDBRANCH   5  21
TORSDOF 6
