REMARK  Name = ZINC32655360
REMARK  11 active torsions:
REMARK  status: ('A' for Active; 'I' for Inactive)
REMARK    1  A    between atoms: C_1  and  C_2
REMARK    2  A    between atoms: C_2  and  C_33
REMARK    3  A    between atoms: C_6  and  C_18
REMARK    4  A    between atoms: C_11  and  S_15
REMARK    5  A    between atoms: S_15  and  C_16
REMARK    6  A    between atoms: C_20  and  O_28
REMARK    7  A    between atoms: C_21  and  O_26
REMARK    8  A    between atoms: C_22  and  O_24
REMARK    9  A    between atoms: O_24  and  C_25
REMARK   10  A    between atoms: O_26  and  C_27
REMARK   11  A    between atoms: O_28  and  C_29
REMARK                            x       y       z     vdW  Elec       q    Type
REMARK                         _______ _______ _______ _____ _____    ______ ____
ROOT
ATOM      1  C   UNL     1      -0.019   1.526   0.010  0.00  0.00    +0.011 C 
ATOM      2  C   UNL     1       0.002  -0.004   0.002  0.00  0.00    -0.023 C 
ATOM      3  C   UNL     1      -1.432  -0.539  -0.000  0.00  0.00    +0.058 C 
ATOM      4  C   UNL     1      -1.409  -2.047  -0.053  0.00  0.00    +0.017 C 
ATOM      5  C   UNL     1      -0.415  -2.705  -0.686  0.00  0.00    +0.024 C 
ATOM      6  C   UNL     1      -0.392  -4.212  -0.755  0.00  0.00    +0.091 C 
ATOM      7  C   UNL     1      -1.281  -4.817   0.288  0.00  0.00    +0.044 A 
ATOM      8  C   UNL     1      -1.136  -6.152   0.659  0.00  0.00    +0.126 A 
ATOM      9  N   UNL     1      -1.948  -6.653   1.587  0.00  0.00    -0.207 NA
ATOM     10  C   UNL     1      -2.881  -5.901   2.152  0.00  0.00    +0.191 A 
ATOM     11  N   UNL     1      -3.045  -4.627   1.823  0.00  0.00    -0.206 NA
ATOM     12  C   UNL     1      -2.267  -4.061   0.905  0.00  0.00    +0.133 A 
ATOM     13  N   UNL     1      -2.424  -2.728   0.563  0.00  0.00    -0.302 N 
ATOM     14  N   UNL     1      -0.163  -6.944   0.071  0.00  0.00    -0.343 N 
ATOM     15  C   UNL     1       0.637  -2.005  -1.302  0.00  0.00    +0.162 C 
ATOM     16  O   UNL     1       1.509  -2.627  -1.878  0.00  0.00    -0.292 OA
ATOM     17  C   UNL     1       0.707  -0.504  -1.263  0.00  0.00    +0.086 C 
ATOM     18  C   UNL     1       0.741  -0.516   1.240  0.00  0.00    +0.011 C 
ATOM     19  H   UNL     1      -3.371  -2.217   0.790  0.00  0.00    +0.153 HD
ATOM     20  H   UNL     1      -0.056  -7.997   0.372  0.00  0.00    +0.144 HD
ATOM     21  H   UNL     1       0.503  -6.521  -0.695  0.00  0.00    +0.144 HD
ENDROOT
BRANCH   6  22
ATOM     22  C   UNL     1      -0.861  -4.651  -2.118  0.00  0.00    -0.028 A 
ATOM     23  C   UNL     1      -2.130  -4.315  -2.551  0.00  0.00    +0.054 A 
ATOM     24  C   UNL     1      -2.564  -4.712  -3.807  0.00  0.00    +0.165 A 
ATOM     25  C   UNL     1      -1.725  -5.460  -4.626  0.00  0.00    +0.204 A 
ATOM     26  C   UNL     1      -0.452  -5.800  -4.184  0.00  0.00    +0.165 A 
ATOM     27  C   UNL     1      -0.024  -5.394  -2.929  0.00  0.00    +0.054 A 
BRANCH  26  28
ATOM     28  O   UNL     1       0.372  -6.532  -4.981  0.00  0.00    -0.491 OA
ATOM     29  C   UNL     1       1.666  -6.845  -4.462  0.00  0.00    +0.277 C 
ENDBRANCH  26  28
BRANCH  25  30
ATOM     30  O   UNL     1      -2.149  -5.857  -5.856  0.00  0.00    -0.488 OA
ATOM     31  C   UNL     1      -2.814  -7.119  -5.937  0.00  0.00    +0.277 C 
ENDBRANCH  25  30
BRANCH  24  32
ATOM     32  O   UNL     1      -3.810  -4.376  -4.235  0.00  0.00    -0.491 OA
ATOM     33  C   UNL     1      -4.617  -3.607  -3.341  0.00  0.00    +0.277 C 
ENDBRANCH  24  32
ENDBRANCH   6  22
BRANCH  10  34
ATOM     34  S   UNL     1      -3.934  -6.613   3.372  0.00  0.00    -0.089 S 
ATOM     35  C   UNL     1      -3.278  -8.300   3.408  0.00  0.00    +0.093 C 
ENDBRANCH  10  34
TORSDOF 5
