REMARK  Name = ZINC38679337
REMARK  16 active torsions:
REMARK  status: ('A' for Active; 'I' for Inactive)
REMARK    1  A    between atoms: C_1  and  C_2
REMARK    2  A    between atoms: C_2  and  O_3
REMARK    3  A    between atoms: O_3  and  C_4
REMARK    4  A    between atoms: C_7  and  C_13
REMARK    5  A    between atoms: C_9  and  O_10
REMARK    6  A    between atoms: O_10  and  C_11
REMARK    7  A    between atoms: C_11  and  C_12
REMARK    8  A    between atoms: C_18  and  O_27
REMARK    9  A    between atoms: C_22  and  N_26
REMARK   10  A    between atoms: C_23  and  C_24
REMARK   11  A    between atoms: O_27  and  C_28
REMARK   12  A    between atoms: C_28  and  C_30
REMARK   13  A    between atoms: C_30  and  O_31
REMARK   14  A    between atoms: O_31  and  C_32
REMARK   15  A    between atoms: C_36  and  C_39
REMARK   16  A    between atoms: C_37  and  C_38
REMARK                            x       y       z     vdW  Elec       q    Type
REMARK                         _______ _______ _______ _____ _____    ______ ____
ROOT
ATOM      1  C   UNL     1      -1.938  -6.093   0.016  0.00  0.00    +0.098 C 
ATOM      2  C   UNL     1      -1.317  -6.664  -1.231  0.00  0.00    +0.008 A 
ATOM      3  C   UNL     1      -2.022  -6.623  -2.422  0.00  0.00    +0.012 A 
ATOM      4  C   UNL     1      -1.468  -7.142  -3.576  0.00  0.00    +0.047 A 
ATOM      5  C   UNL     1      -0.201  -7.706  -3.544  0.00  0.00    +0.135 A 
ATOM      6  C   UNL     1       0.507  -7.748  -2.354  0.00  0.00    +0.093 A 
ATOM      7  C   UNL     1      -0.051  -7.226  -1.194  0.00  0.00    +0.138 A 
ATOM      8  O   UNL     1       0.655  -7.275  -0.038  0.00  0.00    -0.441 OA
ATOM      9  C   UNL     1       0.021  -7.145   1.140  0.00  0.00    +0.199 C 
ATOM     10  C   UNL     1      -1.208  -6.593   1.231  0.00  0.00    +0.098 C 
ENDROOT
BRANCH   1  14
ATOM     11  C   UNL     1      -1.708  -1.825  -0.116  0.00  0.00    +0.162 A 
ATOM     12  C   UNL     1      -0.550  -2.585  -0.146  0.00  0.00    +0.050 A 
ATOM     13  C   UNL     1      -0.627  -3.965  -0.103  0.00  0.00    +0.008 A 
ATOM     14  C   UNL     1      -1.859  -4.589  -0.030  0.00  0.00    -0.031 A 
ATOM     15  C   UNL     1      -3.018  -3.836   0.000  0.00  0.00    +0.054 A 
ATOM     16  C   UNL     1      -2.947  -2.453  -0.036  0.00  0.00    +0.162 A 
BRANCH  11  17
ATOM     17  O   UNL     1      -1.633  -0.467  -0.157  0.00  0.00    -0.489 OA
BRANCH  17  19
ATOM     18  C   UNL     1      -0.444   1.633  -0.276  0.00  0.00    +0.048 C 
ATOM     19  C   UNL     1      -0.328   0.108  -0.238  0.00  0.00    +0.226 C 
ENDBRANCH  17  19
ENDBRANCH  11  17
BRANCH  16  20
ATOM     20  O   UNL     1      -4.086  -1.711  -0.001  0.00  0.00    -0.489 OA
BRANCH  20  21
ATOM     21  C   UNL     1      -5.322  -2.423   0.081  0.00  0.00    +0.226 C 
ATOM     22  C   UNL     1      -6.484  -1.427   0.110  0.00  0.00    +0.048 C 
ENDBRANCH  20  21
ENDBRANCH  16  20
ENDBRANCH   1  14
BRANCH   9  23
ATOM     23  N   UNL     1       0.642  -7.587   2.282  0.00  0.00    -0.328 N 
ATOM     24  H   UNL     1       1.525  -7.985   2.231  0.00  0.00    +0.145 HD
ATOM     25  H   UNL     1       0.197  -7.500   3.140  0.00  0.00    +0.145 HD
ENDBRANCH   9  23
BRANCH  10  26
ATOM     26  C   UNL     1      -1.828  -6.482   2.517  0.00  0.00    +0.101 C 
ATOM     27  N   UNL     1      -2.321  -6.395   3.537  0.00  0.00    -0.191 NA
ENDBRANCH  10  26
BRANCH   5  28
ATOM     28  O   UNL     1       0.345  -8.217  -4.679  0.00  0.00    -0.423 OA
BRANCH  28  29
ATOM     29  C   UNL     1       0.498  -9.549  -4.761  0.00  0.00    +0.350 C 
ATOM     30  O   UNL     1       0.061 -10.261  -3.889  0.00  0.00    -0.247 OA
BRANCH  29  31
ATOM     31  C   UNL     1       1.215 -10.154  -5.940  0.00  0.00    +0.349 C 
BRANCH  31  32
ATOM     32  O   UNL     1       1.250 -11.575  -5.799  0.00  0.00    -0.481 OA
BRANCH  32  33
ATOM     33  C   UNL     1       1.865 -12.279  -6.785  0.00  0.00    +0.124 A 
ATOM     34  C   UNL     1       2.430 -11.614  -7.864  0.00  0.00    +0.046 A 
ATOM     35  C   UNL     1       3.055 -12.331  -8.865  0.00  0.00    +0.004 A 
ATOM     36  C   UNL     1       3.119 -13.711  -8.793  0.00  0.00    +0.004 A 
ATOM     37  C   UNL     1       2.557 -14.376  -7.719  0.00  0.00    -0.044 A 
ATOM     38  C   UNL     1       1.935 -13.662  -6.712  0.00  0.00    -0.006 A 
ATOM     39  C   UNL     1       1.327 -14.387  -5.539  0.00  0.00    +0.048 C 
ATOM     40  C   UNL     1       2.627 -15.879  -7.643  0.00  0.00    +0.044 C 
ENDBRANCH  32  33
ENDBRANCH  31  32
ENDBRANCH  29  31
ENDBRANCH  28  29
ENDBRANCH   5  28
TORSDOF 12
