REMARK  Name = ZINC43218915
REMARK  7 active torsions:
REMARK  status: ('A' for Active; 'I' for Inactive)
REMARK    1  A    between atoms: C_1  and  C_2
REMARK    2  A    between atoms: C_2  and  C_3
REMARK    3  A    between atoms: C_6  and  N_9
REMARK    4  A    between atoms: C_14  and  C_31
REMARK    5  A    between atoms: C_17  and  C_22
REMARK    6  A    between atoms: C_17  and  C_28
REMARK    7  A    between atoms: C_36  and  O_37
REMARK                            x       y       z     vdW  Elec       q    Type
REMARK                         _______ _______ _______ _____ _____    ______ ____
ROOT
ATOM      1  N   UNL     1      -5.302  -2.035  -0.363  0.00  0.00    -0.210 N 
ATOM      2  C   UNL     1      -5.881  -2.246   0.864  0.00  0.00    +0.229 C 
ATOM      3  O   UNL     1      -5.470  -1.889   1.947  0.00  0.00    -0.275 OA
ATOM      4  C   UNL     1      -7.086  -2.985   0.579  0.00  0.00    +0.078 C 
ATOM      5  C   UNL     1      -8.393  -3.304   1.180  0.00  0.00    -0.023 C 
ATOM      6  N   UNL     1      -9.119  -3.948   0.031  0.00  0.00    +0.398 N 
ATOM      7  C   UNL     1      -8.481  -3.476  -1.234  0.00  0.00    +0.074 C 
ATOM      8  C   UNL     1      -7.527  -2.353  -0.800  0.00  0.00    +0.090 C 
ATOM      9  C   UNL     1      -6.150  -2.302  -1.400  0.00  0.00    +0.229 C 
ATOM     10  O   UNL     1      -5.853  -2.468  -2.564  0.00  0.00    -0.275 OA
ATOM     11  H   UNL     1      -9.042  -4.952   0.099  0.00  0.00    -0.083 HD
ATOM     12  H   UNL     1     -10.091  -3.677   0.046  0.00  0.00    -0.083 HD
ENDROOT
BRANCH   1  16
ATOM     13  C   UNL     1      -1.383  -0.707  -0.868  0.00  0.00    -0.048 A 
ATOM     14  C   UNL     1      -1.888  -0.898   0.405  0.00  0.00    +0.005 A 
ATOM     15  C   UNL     1      -3.186  -1.339   0.576  0.00  0.00    +0.024 A 
ATOM     16  C   UNL     1      -3.984  -1.588  -0.533  0.00  0.00    +0.044 A 
ATOM     17  C   UNL     1      -3.474  -1.394  -1.809  0.00  0.00    +0.024 A 
ATOM     18  C   UNL     1      -2.177  -0.949  -1.973  0.00  0.00    +0.005 A 
BRANCH  13  20
ATOM     19  C   UNL     1       0.054   1.303  -1.082  0.00  0.00    +0.009 C 
ATOM     20  C   UNL     1       0.034  -0.227  -1.050  0.00  0.00    +0.032 C 
ENDBRANCH  13  20
ENDBRANCH   1  16
BRANCH   7  21
ATOM     21  C   UNL     1      -7.732  -4.605  -1.894  0.00  0.00    -0.047 A 
ATOM     22  C   UNL     1      -7.451  -4.551  -3.246  0.00  0.00    +0.003 A 
ATOM     23  C   UNL     1      -6.763  -5.586  -3.851  0.00  0.00    +0.000 A 
ATOM     24  C   UNL     1      -6.356  -6.676  -3.103  0.00  0.00    +0.000 A 
ATOM     25  C   UNL     1      -6.637  -6.729  -1.751  0.00  0.00    +0.000 A 
ATOM     26  C   UNL     1      -7.321  -5.692  -1.145  0.00  0.00    +0.003 A 
ENDBRANCH   7  21
BRANCH   5  27
ATOM     27  C   UNL     1      -8.237  -4.268   2.327  0.00  0.00    -0.019 A 
ATOM     28  C   UNL     1      -7.054  -4.963   2.490  0.00  0.00    +0.005 A 
ATOM     29  C   UNL     1      -6.910  -5.848   3.542  0.00  0.00    +0.000 A 
ATOM     30  C   UNL     1      -7.949  -6.041   4.434  0.00  0.00    +0.004 A 
ATOM     31  C   UNL     1      -9.133  -5.348   4.276  0.00  0.00    +0.045 A 
ATOM     32  C   UNL     1      -9.278  -4.455   3.224  0.00  0.00    +0.118 A 
BRANCH  32  33
ATOM     33  O   UNL     1     -10.441  -3.768   3.070  0.00  0.00    -0.507 OA
ATOM     34  H   UNL     1     -11.095  -4.221   2.520  0.00  0.00    +0.292 HD
ENDBRANCH  32  33
ENDBRANCH   5  27
BRANCH   7  35
ATOM     35  C   UNL     1      -9.526  -2.925  -2.170  0.00  0.00    +0.350 C 
ATOM     36  O   UNL     1     -10.702  -2.939  -1.848  0.00  0.00    -0.248 OA
ATOM     37  O   UNL     1      -9.195  -2.464  -3.250  0.00  0.00    -0.248 OA
ENDBRANCH   7  35
TORSDOF 6
