REMARK  Name = ZINC64953956
REMARK  10 active torsions:
REMARK  status: ('A' for Active; 'I' for Inactive)
REMARK    1  A    between atoms: C_1  and  C_2
REMARK    2  A    between atoms: C_5  and  C_8
REMARK    3  A    between atoms: C_8  and  N_9
REMARK    4  A    between atoms: C_10  and  C_12
REMARK    5  A    between atoms: C_12  and  C_36
REMARK    6  A    between atoms: C_17  and  C_25
REMARK    7  A    between atoms: N_21  and  C_22
REMARK    8  A    between atoms: N_27  and  C_28
REMARK    9  A    between atoms: C_28  and  C_29
REMARK   10  A    between atoms: C_29  and  C_30
REMARK                            x       y       z     vdW  Elec       q    Type
REMARK                         _______ _______ _______ _____ _____    ______ ____
ROOT
ATOM      1  C   UNL     1       3.070  -6.674  -0.095  0.00  0.00    +0.129 C 
ATOM      2  C   UNL     1       3.050  -8.071  -0.716  0.00  0.00    +0.158 C 
ATOM      3  N   UNL     1       4.424  -8.522  -0.936  0.00  0.00    -0.323 N 
ATOM      4  C   UNL     1       4.952  -9.747  -0.955  0.00  0.00    +0.200 A 
ATOM      5  N   UNL     1       6.234  -9.667  -1.216  0.00  0.00    -0.230 NA
ATOM      6  C   UNL     1       6.585  -8.373  -1.369  0.00  0.00    +0.155 A 
ATOM      7  C   UNL     1       5.449  -7.629  -1.187  0.00  0.00    +0.137 A 
ATOM      8  C   UNL     1       5.205  -6.178  -1.208  0.00  0.00    +0.267 C 
ATOM      9  O   UNL     1       6.050  -5.390  -1.589  0.00  0.00    -0.268 OA
ATOM     10  N   UNL     1       3.987  -5.768  -0.776  0.00  0.00    -0.277 N 
ATOM     11  C   UNL     1       3.491  -6.794   1.371  0.00  0.00    +0.043 C 
ENDROOT
BRANCH   1  13
ATOM     12  N   UNL     1       1.211  -5.588  -1.313  0.00  0.00    -0.309 N 
ATOM     13  C   UNL     1       1.680  -6.095  -0.156  0.00  0.00    +0.238 C 
ATOM     14  O   UNL     1       0.983  -6.085   0.837  0.00  0.00    -0.273 OA
ATOM     15  H   UNL     1       1.791  -5.531  -2.088  0.00  0.00    +0.149 HD
BRANCH  12  16
ATOM     16  C   UNL     1      -0.176  -5.122  -1.400  0.00  0.00    +0.139 C 
BRANCH  16  21
ATOM     17  C   UNL     1      -1.214  -3.141  -6.728  0.00  0.00    +0.044 C 
ATOM     18  C   UNL     1      -0.943  -3.658  -5.339  0.00  0.00    -0.050 A 
ATOM     19  C   UNL     1      -1.164  -4.990  -5.041  0.00  0.00    +0.003 A 
ATOM     20  C   UNL     1      -0.915  -5.464  -3.767  0.00  0.00    +0.005 A 
ATOM     21  C   UNL     1      -0.446  -4.606  -2.790  0.00  0.00    -0.030 A 
ATOM     22  C   UNL     1      -0.224  -3.274  -3.087  0.00  0.00    +0.005 A 
ATOM     23  C   UNL     1      -0.468  -2.801  -4.363  0.00  0.00    +0.003 A 
ENDBRANCH  16  21
ENDBRANCH  12  16
ENDBRANCH   1  13
BRANCH   6  24
ATOM     24  C   UNL     1       7.936  -7.857  -1.674  0.00  0.00    +0.265 C 
ATOM     25  O   UNL     1       8.119  -6.661  -1.787  0.00  0.00    -0.268 OA
ATOM     26  N   UNL     1       8.966  -8.714  -1.827  0.00  0.00    -0.310 N 
ATOM     27  H   UNL     1       8.820  -9.668  -1.737  0.00  0.00    +0.149 HD
BRANCH  26  28
ATOM     28  C   UNL     1      10.305  -8.202  -2.129  0.00  0.00    +0.109 C 
BRANCH  28  29
ATOM     29  C   UNL     1      11.283  -9.373  -2.251  0.00  0.00    +0.049 C 
BRANCH  29  30
ATOM     30  C   UNL     1      12.660  -8.847  -2.562  0.00  0.00    -0.072 C 
ATOM     31  C   UNL     1      13.476  -8.662  -1.574  0.00  0.00    -0.028 C 
ATOM     32  C   UNL     1      14.873  -8.135  -1.726  0.00  0.00    +0.027 C 
ATOM     33  C   UNL     1      15.328  -8.256  -3.182  0.00  0.00    +0.004 C 
ATOM     34  C   UNL     1      14.234  -7.668  -4.082  0.00  0.00    +0.005 C 
ATOM     35  C   UNL     1      13.002  -8.576  -3.998  0.00  0.00    +0.030 C 
ENDBRANCH  29  30
ENDBRANCH  28  29
ENDBRANCH  26  28
ENDBRANCH   6  24
BRANCH  10  36
ATOM     36  C   UNL     1       3.582  -4.378  -1.001  0.00  0.00    +0.078 C 
ATOM     37  C   UNL     1       4.370  -3.570  -2.034  0.00  0.00    +0.024 C 
ATOM     38  C   UNL     1       4.542  -3.279  -0.541  0.00  0.00    +0.024 C 
ENDBRANCH  10  36
TORSDOF 8
