REMARK  Name = ZINC20998059
REMARK  8 active torsions:
REMARK  status: ('A' for Active; 'I' for Inactive)
REMARK    1  A    between atoms: C_8  and  N_10
REMARK    2  A    between atoms: C_12  and  N_27
REMARK    3  A    between atoms: C_15  and  C_17
REMARK    4  A    between atoms: N_19  and  C_20
REMARK    5  A    between atoms: C_20  and  C_21
REMARK    6  A    between atoms: N_27  and  C_28
REMARK    7  A    between atoms: C_28  and  C_29
REMARK    8  A    between atoms: C_34  and  C_35
REMARK                            x       y       z     vdW  Elec       q    Type
REMARK                         _______ _______ _______ _____ _____    ______ ____
ROOT
ATOM      1  N   UNL     1       0.593   1.797  -4.866  0.00  0.00    +0.391 N 
ATOM      2  C   UNL     1       0.530   2.312  -3.482  0.00  0.00    -0.059 C 
ATOM      3  C   UNL     1      -0.380   1.311  -2.728  0.00  0.00    +0.036 C 
ATOM      4  C   UNL     1      -1.432   0.964  -3.814  0.00  0.00    +0.010 C 
ATOM      5  C   UNL     1      -0.604   0.974  -5.116  0.00  0.00    +0.021 C 
ATOM      6  H   UNL     1       1.497   1.183  -4.995  0.00  0.00    -0.080 HD
ENDROOT
BRANCH   1  14
ATOM      7  C   UNL     1       3.606   5.446  -8.590  0.00  0.00    +0.000 A 
ATOM      8  C   UNL     1       3.066   4.632  -9.568  0.00  0.00    +0.000 A 
ATOM      9  C   UNL     1       2.208   3.608  -9.217  0.00  0.00    +0.004 A 
ATOM     10  C   UNL     1       1.885   3.395  -7.887  0.00  0.00    -0.046 A 
ATOM     11  C   UNL     1       2.425   4.210  -6.909  0.00  0.00    -0.046 A 
ATOM     12  C   UNL     1       3.285   5.235  -7.263  0.00  0.00    +0.004 A 
ATOM     13  C   UNL     1       1.923   3.776  -5.548  0.00  0.00    +0.020 C 
ATOM     14  C   UNL     1       0.687   2.897  -5.835  0.00  0.00    -0.059 C 
ATOM     15  C   UNL     1       0.979   2.359  -7.251  0.00  0.00    +0.020 C 
ENDBRANCH   1  14
BRANCH   5  16
ATOM     16  C   UNL     1      -1.415   1.575  -6.235  0.00  0.00    +0.200 C 
ATOM     17  O   UNL     1      -1.845   2.705  -6.133  0.00  0.00    -0.278 OA
ATOM     18  N   UNL     1      -1.664   0.857  -7.348  0.00  0.00    -0.312 N 
ATOM     19  H   UNL     1      -1.275  -0.168  -7.440  0.00  0.00    +0.149 HD
BRANCH  18  20
ATOM     20  C   UNL     1      -2.452   1.442  -8.436  0.00  0.00    +0.141 C 
BRANCH  20  21
ATOM     21  C   UNL     1      -2.584   0.441  -9.555  0.00  0.00    -0.012 A 
ATOM     22  C   UNL     1      -1.647   0.404 -10.577  0.00  0.00    +0.008 A 
ATOM     23  C   UNL     1      -1.805  -0.536 -11.583  0.00  0.00    +0.020 A 
ATOM     24  C   UNL     1      -2.890  -1.392 -11.541  0.00  0.00    +0.111 A 
ATOM     25  N   UNL     1      -3.764  -1.325 -10.556  0.00  0.00    -0.263 NA
ATOM     26  C   UNL     1      -3.642  -0.447  -9.579  0.00  0.00    +0.115 A 
ENDBRANCH  20  21
ENDBRANCH  18  20
ENDBRANCH   5  16
BRANCH   3  27
ATOM     27  N   UNL     1      -1.014   1.947  -1.565  0.00  0.00    -0.311 NA
ATOM     28  H   UNL     1      -1.164   3.017  -1.770  0.00  0.00    +0.122 HD
BRANCH  27  29
ATOM     29  C   UNL     1      -0.174   1.810  -0.368  0.00  0.00    +0.117 C 
BRANCH  29  30
ATOM     30  C   UNL     1      -0.840   2.501   0.794  0.00  0.00    -0.022 A 
ATOM     31  C   UNL     1      -1.519   1.760   1.743  0.00  0.00    +0.005 A 
ATOM     32  C   UNL     1      -2.126   2.393   2.811  0.00  0.00    +0.000 A 
ATOM     33  C   UNL     1      -2.062   3.770   2.925  0.00  0.00    +0.001 A 
ATOM     34  C   UNL     1      -1.387   4.511   1.974  0.00  0.00    +0.013 A 
ATOM     35  C   UNL     1      -0.776   3.877   0.908  0.00  0.00    +0.059 A 
BRANCH  35  36
ATOM     36  C   UNL     1      -0.041   4.686  -0.129  0.00  0.00    +0.418 C 
ATOM     37  F   UNL     1      -0.123   6.044   0.195  0.00  0.00    -0.166 F 
ATOM     38  F   UNL     1       1.302   4.294  -0.161  0.00  0.00    -0.166 F 
ATOM     39  F   UNL     1      -0.620   4.470  -1.385  0.00  0.00    -0.166 F 
ENDBRANCH  35  36
ENDBRANCH  29  30
ENDBRANCH  27  29
ENDBRANCH   3  27
TORSDOF 8
