REMARK  Name = ZINC00902987
REMARK  7 active torsions:
REMARK  status: ('A' for Active; 'I' for Inactive)
REMARK    1  A    between atoms: C_1  and  C_2
REMARK    2  A    between atoms: C_4  and  C_26
REMARK    3  A    between atoms: C_8  and  C_25
REMARK    4  A    between atoms: C_12  and  S_15
REMARK    5  A    between atoms: S_15  and  C_16
REMARK    6  A    between atoms: C_16  and  C_17
REMARK    7  A    between atoms: N_19  and  C_20
REMARK                            x       y       z     vdW  Elec       q    Type
REMARK                         _______ _______ _______ _____ _____    ______ ____
ROOT
ATOM      1  C   UNL     1      -2.516   0.986  -0.065  0.00  0.00    +0.044 C 
ATOM      2  C   UNL     1      -1.221   1.751   0.017  0.00  0.00    -0.050 A 
ATOM      3  C   UNL     1      -0.013   1.075   0.008  0.00  0.00    +0.008 A 
ATOM      4  C   UNL     1       1.183   1.771   0.000  0.00  0.00    -0.026 A 
ATOM      5  C   UNL     1       1.188   3.153  -0.062  0.00  0.00    +0.061 A 
ATOM      6  C   UNL     1      -0.035   3.829   0.169  0.00  0.00    +0.002 A 
ATOM      7  C   UNL     1      -1.240   3.126   0.103  0.00  0.00    +0.013 A 
ATOM      8  C   UNL     1      -0.007   5.255   0.501  0.00  0.00    -0.038 A 
ATOM      9  C   UNL     1       1.183   5.896   0.528  0.00  0.00    +0.052 A 
ATOM     10  C   UNL     1       2.360   5.224   0.128  0.00  0.00    +0.162 A 
ATOM     11  N   UNL     1       2.318   3.910  -0.306  0.00  0.00    -0.270 N 
ATOM     12  C   UNL     1       3.513   3.723  -0.930  0.00  0.00    +0.197 A 
ATOM     13  N   UNL     1       4.285   4.750  -0.628  0.00  0.00    -0.122 NA
ATOM     14  N   UNL     1       3.605   5.638  -0.003  0.00  0.00    -0.129 NA
ATOM     15  C   UNL     1      -1.269   6.002   0.849  0.00  0.00    +0.044 C 
ATOM     16  C   UNL     1       2.458   0.979   0.144  0.00  0.00    +0.046 C 
ENDROOT
BRANCH  12  17
ATOM     17  S   UNL     1       3.983   2.397  -1.993  0.00  0.00    -0.076 S 
BRANCH  17  18
ATOM     18  C   UNL     1       5.680   2.893  -2.382  0.00  0.00    +0.173 C 
BRANCH  18  19
ATOM     19  C   UNL     1       6.301   1.877  -3.306  0.00  0.00    +0.224 C 
ATOM     20  O   UNL     1       5.659   0.912  -3.666  0.00  0.00    -0.275 OA
ATOM     21  N   UNL     1       7.569   2.039  -3.732  0.00  0.00    -0.312 N 
ATOM     22  H   UNL     1       8.082   2.811  -3.444  0.00  0.00    +0.149 HD
BRANCH  21  23
ATOM     23  C   UNL     1       8.172   1.052  -4.630  0.00  0.00    +0.073 C 
ATOM     24  C   UNL     1       8.824  -0.080  -3.809  0.00  0.00    +0.022 C 
ATOM     25  C   UNL     1      10.104  -0.437  -4.604  0.00  0.00    +0.002 C 
ATOM     26  C   UNL     1      10.595   0.946  -5.100  0.00  0.00    +0.002 C 
ATOM     27  C   UNL     1       9.299   1.704  -5.450  0.00  0.00    +0.022 C 
ENDBRANCH  21  23
ENDBRANCH  18  19
ENDBRANCH  17  18
ENDBRANCH  12  17
TORSDOF 4
