REMARK  Name = ZINC06661278
REMARK  10 active torsions:
REMARK  status: ('A' for Active; 'I' for Inactive)
REMARK    1  A    between atoms: C_1  and  C_2
REMARK    2  A    between atoms: C_2  and  C_3
REMARK    3  A    between atoms: C_2  and  N_4
REMARK    4  A    between atoms: N_4  and  C_5
REMARK    5  A    between atoms: C_7  and  N_22
REMARK    6  A    between atoms: C_10  and  N_11
REMARK    7  A    between atoms: N_22  and  C_23
REMARK    8  A    between atoms: C_23  and  C_24
REMARK    9  A    between atoms: C_24  and  O_25
REMARK   10  A    between atoms: O_25  and  C_26
REMARK                            x       y       z     vdW  Elec       q    Type
REMARK                         _______ _______ _______ _____ _____    ______ ____
ROOT
ATOM      1  C   UNL     1      -1.685  -1.715  -0.649  0.00  0.00    +0.051 A 
ATOM      2  C   UNL     1      -0.662  -2.487  -1.163  0.00  0.00    +0.048 A 
ATOM      3  C   UNL     1      -0.893  -3.811  -1.534  0.00  0.00    +0.041 A 
ATOM      4  C   UNL     1      -2.172  -4.366  -1.388  0.00  0.00    +0.056 A 
ATOM      5  C   UNL     1      -3.222  -3.579  -0.862  0.00  0.00    +0.057 A 
ATOM      6  C   UNL     1      -2.975  -2.257  -0.489  0.00  0.00    +0.057 A 
ATOM      7  C   UNL     1      -4.567  -4.154  -0.706  0.00  0.00    +0.196 C 
ATOM      8  O   UNL     1      -5.471  -3.478  -0.254  0.00  0.00    -0.287 OA
ATOM      9  C   UNL     1      -4.817  -5.556  -1.099  0.00  0.00    +0.033 A 
ATOM     10  C   UNL     1      -6.087  -6.111  -0.956  0.00  0.00    +0.012 A 
ATOM     11  C   UNL     1      -6.311  -7.424  -1.327  0.00  0.00    +0.001 A 
ATOM     12  C   UNL     1      -5.282  -8.193  -1.841  0.00  0.00    +0.001 A 
ATOM     13  C   UNL     1      -4.015  -7.658  -1.990  0.00  0.00    +0.012 A 
ATOM     14  C   UNL     1      -3.771  -6.338  -1.622  0.00  0.00    +0.033 A 
ATOM     15  C   UNL     1      -2.421  -5.758  -1.778  0.00  0.00    +0.196 C 
ATOM     16  O   UNL     1      -1.516  -6.435  -2.231  0.00  0.00    -0.287 OA
ENDROOT
BRANCH   6  17
ATOM     17  N   UNL     1      -3.997  -1.479   0.032  0.00  0.00    -0.356 N 
ATOM     18  H   UNL     1      -3.967  -0.514  -0.061  0.00  0.00    +0.142 HD
ATOM     19  H   UNL     1      -4.742  -1.899   0.488  0.00  0.00    +0.142 HD
ENDBRANCH   6  17
BRANCH   1  20
ATOM     20  N   UNL     1      -1.439  -0.396  -0.282  0.00  0.00    -0.340 N 
ATOM     21  H   UNL     1      -2.155   0.147   0.082  0.00  0.00    +0.146 HD
BRANCH  20  23
ATOM     22  C   UNL     1      -0.203   1.692  -0.584  0.00  0.00    +0.027 C 
ATOM     23  C   UNL     1      -0.099   0.172  -0.447  0.00  0.00    +0.064 C 
ATOM     24  C   UNL     1       0.755  -0.173   0.775  0.00  0.00    +0.027 C 
ENDBRANCH  20  23
ENDBRANCH   1  20
BRANCH   3  25
ATOM     25  N   UNL     1       0.141  -4.577  -2.049  0.00  0.00    -0.341 N 
ATOM     26  H   UNL     1       0.005  -5.522  -2.221  0.00  0.00    +0.146 HD
BRANCH  25  27
ATOM     27  C   UNL     1       1.439  -3.960  -2.332  0.00  0.00    +0.129 C 
BRANCH  27  28
ATOM     28  C   UNL     1       2.395  -5.017  -2.888  0.00  0.00    +0.178 C 
BRANCH  28  29
ATOM     29  O   UNL     1       1.913  -5.479  -4.151  0.00  0.00    -0.381 OA
ATOM     30  C   UNL     1       2.738  -6.474  -4.760  0.00  0.00    +0.194 C 
ENDBRANCH  28  29
ENDBRANCH  27  28
ENDBRANCH  25  27
ENDBRANCH   3  25
TORSDOF 7
