REMARK  Name = ZINC39672858
REMARK  5 active torsions:
REMARK  status: ('A' for Active; 'I' for Inactive)
REMARK    1  A    between atoms: C_4  and  C_7
REMARK    2  A    between atoms: C_4  and  N_28
REMARK    3  A    between atoms: C_7  and  N_8
REMARK    4  A    between atoms: C_9  and  C_11
REMARK    5  A    between atoms: C_22  and  C_24
REMARK                            x       y       z     vdW  Elec       q    Type
REMARK                         _______ _______ _______ _____ _____    ______ ____
ROOT
ATOM      1  C   UNL     1       2.526  -4.206  -1.271  0.00  0.00    +0.100 C 
ATOM      2  C   UNL     1       3.124  -4.942  -0.050  0.00  0.00    +0.121 C 
ATOM      3  N   UNL     1       3.712  -6.181  -0.611  0.00  0.00    -0.300 N 
ATOM      4  C   UNL     1       4.319  -5.754  -1.894  0.00  0.00    +0.115 C 
ATOM      5  C   UNL     1       3.314  -4.741  -2.479  0.00  0.00    -0.004 C 
ATOM      6  C   UNL     1       4.056  -3.603  -3.172  0.00  0.00    -0.010 C 
ATOM      7  C   UNL     1       4.784  -4.149  -4.404  0.00  0.00    -0.082 C 
ATOM      8  N   UNL     1       3.811  -4.756  -5.320  0.00  0.00    +0.379 N 
ATOM      9  C   UNL     1       3.168  -5.909  -4.677  0.00  0.00    -0.082 C 
ATOM     10  C   UNL     1       2.372  -5.436  -3.457  0.00  0.00    -0.010 C 
ATOM     11  C   UNL     1       3.697  -7.418  -0.076  0.00  0.00    +0.219 C 
ATOM     12  O   UNL     1       4.226  -8.339  -0.661  0.00  0.00    -0.275 OA
ATOM     13  H   UNL     1       3.108  -4.074  -5.564  0.00  0.00    -0.086 HD
ATOM     14  H   UNL     1       4.284  -5.061  -6.158  0.00  0.00    -0.086 HD
ENDROOT
BRANCH   1  16
ATOM     15  N   UNL     1       1.872  -1.868  -1.744  0.00  0.00    -0.313 N 
ATOM     16  C   UNL     1       2.722  -2.718  -1.134  0.00  0.00    +0.218 C 
ATOM     17  O   UNL     1       3.645  -2.286  -0.476  0.00  0.00    -0.275 OA
ATOM     18  H   UNL     1       1.135  -2.214  -2.270  0.00  0.00    +0.149 HD
BRANCH  15  19
ATOM     19  C   UNL     1       2.063  -0.421  -1.611  0.00  0.00    +0.126 C 
BRANCH  19  23
ATOM     20  C   UNL     1      -0.051   1.950  -0.064  0.00  0.00    +0.000 C 
ATOM     21  C   UNL     1      -0.302   0.442  -0.112  0.00  0.00    +0.002 C 
ATOM     22  C   UNL     1      -0.402  -0.013  -1.569  0.00  0.00    +0.024 C 
ATOM     23  C   UNL     1       0.906   0.310  -2.295  0.00  0.00    +0.038 C 
ATOM     24  C   UNL     1       1.157   1.819  -2.247  0.00  0.00    +0.024 C 
ATOM     25  C   UNL     1       1.257   2.273  -0.789  0.00  0.00    +0.002 C 
BRANCH  23  26
ATOM     26  N   UNL     1       0.810  -0.126  -3.694  0.00  0.00    -0.291 NA
ATOM     27  C   UNL     1       2.062   0.141  -4.417  0.00  0.00    +0.113 C 
ATOM     28  C   UNL     1       1.940  -0.381  -5.850  0.00  0.00    +0.175 C 
ATOM     29  O   UNL     1       0.810   0.229  -6.480  0.00  0.00    -0.377 OA
ATOM     30  C   UNL     1      -0.426  -0.012  -5.803  0.00  0.00    +0.175 C 
ATOM     31  C   UNL     1      -0.328   0.515  -4.369  0.00  0.00    +0.113 C 
ENDBRANCH  23  26
ENDBRANCH  19  23
ENDBRANCH  15  19
ENDBRANCH   1  16
BRANCH  11  32
ATOM     32  C   UNL     1       3.022  -7.657   1.251  0.00  0.00    +0.075 C 
ATOM     33  C   UNL     1       3.902  -7.305   2.462  0.00  0.00    +0.013 C 
ATOM     34  C   UNL     1       3.340  -8.567   3.137  0.00  0.00    +0.001 C 
ATOM     35  C   UNL     1       3.093  -9.118   1.723  0.00  0.00    +0.013 C 
ENDBRANCH  11  32
TORSDOF 5
