REMARK  Name = ZINC64006906
REMARK  5 active torsions:
REMARK  status: ('A' for Active; 'I' for Inactive)
REMARK    1  A    between atoms: C_1  and  C_2
REMARK    2  A    between atoms: C_2  and  C_18
REMARK    3  A    between atoms: N_5  and  C_9
REMARK    4  A    between atoms: N_21  and  C_24
REMARK    5  A    between atoms: C_24  and  C_25
REMARK                            x       y       z     vdW  Elec       q    Type
REMARK                         _______ _______ _______ _____ _____    ______ ____
ROOT
ATOM      1  C   UNL     1      -0.019   1.526   0.010  0.00  0.00    +0.042 C 
ATOM      2  C   UNL     1       0.002  -0.004   0.002  0.00  0.00    +0.112 C 
ATOM      3  C   UNL     1      -1.403  -0.557   0.139  0.00  0.00    +0.247 C 
ATOM      4  O   UNL     1      -2.332  -0.392  -0.621  0.00  0.00    -0.273 OA
ATOM      5  N   UNL     1      -1.403  -1.272   1.282  0.00  0.00    -0.221 N 
ATOM      6  C   UNL     1      -0.206  -1.247   1.879  0.00  0.00    +0.310 C 
ATOM      7  O   UNL     1       0.040  -1.819   2.924  0.00  0.00    -0.252 OA
ATOM      8  N   UNL     1       0.695  -0.520   1.195  0.00  0.00    -0.285 N 
ATOM      9  H   UNL     1       1.621  -0.365   1.440  0.00  0.00    +0.151 HD
ENDROOT
BRANCH   5  10
ATOM     10  C   UNL     1      -2.569  -1.986   1.805  0.00  0.00    +0.094 C 
ATOM     11  C   UNL     1      -2.225  -3.463   2.093  0.00  0.00    +0.058 C 
ATOM     12  C   UNL     1      -3.024  -3.823   3.327  0.00  0.00    -0.042 A 
ATOM     13  C   UNL     1      -3.358  -5.062   3.850  0.00  0.00    +0.004 A 
ATOM     14  C   UNL     1      -4.108  -5.148   5.007  0.00  0.00    +0.000 A 
ATOM     15  C   UNL     1      -4.528  -3.996   5.645  0.00  0.00    +0.000 A 
ATOM     16  C   UNL     1      -4.196  -2.760   5.124  0.00  0.00    +0.004 A 
ATOM     17  C   UNL     1      -3.444  -2.671   3.965  0.00  0.00    -0.042 A 
ATOM     18  C   UNL     1      -2.955  -1.458   3.203  0.00  0.00    +0.058 C 
ENDBRANCH   5  10
BRANCH   2  19
ATOM     19  C   UNL     1       0.667  -0.525  -1.274  0.00  0.00    +0.018 C 
ATOM     20  C   UNL     1       0.700  -2.056  -1.246  0.00  0.00    -0.013 C 
ATOM     21  C   UNL     1       1.437  -2.567  -2.486  0.00  0.00    -0.078 C 
ATOM     22  N   UNL     1       2.809  -2.047  -2.494  0.00  0.00    +0.381 N 
ATOM     23  C   UNL     1       2.786  -0.582  -2.593  0.00  0.00    -0.078 C 
ATOM     24  C   UNL     1       2.101   0.006  -1.357  0.00  0.00    -0.013 C 
ATOM     25  H   UNL     1       3.275  -2.318  -1.641  0.00  0.00    -0.082 HD
BRANCH  22  26
ATOM     26  C   UNL     1       3.535  -2.602  -3.643  0.00  0.00    -0.050 C 
BRANCH  26  27
ATOM     27  C   UNL     1       4.999  -2.160  -3.584  0.00  0.00    +0.086 C 
ATOM     28  C   UNL     1       5.801  -2.868  -4.653  0.00  0.00    +0.005 C 
ATOM     29  C   UNL     1       6.746  -3.583  -4.002  0.00  0.00    -0.004 A 
ATOM     30  C   UNL     1       7.818  -4.471  -4.467  0.00  0.00    +0.010 A 
ATOM     31  C   UNL     1       8.625  -5.060  -3.555  0.00  0.00    +0.001 A 
ATOM     32  C   UNL     1       8.462  -4.845  -2.180  0.00  0.00    +0.002 A 
ATOM     33  C   UNL     1       7.500  -4.043  -1.676  0.00  0.00    +0.026 A 
ATOM     34  C   UNL     1       6.595  -3.373  -2.544  0.00  0.00    +0.043 A 
ATOM     35  N   UNL     1       5.595  -2.557  -2.303  0.00  0.00    -0.380 N 
ATOM     36  H   UNL     1       5.300  -2.266  -1.427  0.00  0.00    +0.160 HD
ENDBRANCH  26  27
ENDBRANCH  22  26
ENDBRANCH   2  19
TORSDOF 4
