REMARK  Name = ZINC02279654
REMARK  9 active torsions:
REMARK  status: ('A' for Active; 'I' for Inactive)
REMARK    1  A    between atoms: C_2  and  C_3
REMARK    2  A    between atoms: C_3  and  N_4
REMARK    3  A    between atoms: C_5  and  C_7
REMARK    4  A    between atoms: C_7  and  N_29
REMARK    5  A    between atoms: C_8  and  C_9
REMARK    6  A    between atoms: N_11  and  C_23
REMARK    7  A    between atoms: C_13  and  C_14
REMARK    8  A    between atoms: C_18  and  N_20
REMARK    9  A    between atoms: C_30  and  C_32
REMARK                            x       y       z     vdW  Elec       q    Type
REMARK                         _______ _______ _______ _____ _____    ______ ____
ROOT
ATOM      1  C   UNL     1      -4.073  -5.399  -3.341  0.00  0.00    +0.023 A 
ATOM      2  C   UNL     1      -3.265  -5.992  -4.291  0.00  0.00    +0.123 A 
ATOM      3  N   UNL     1      -3.947  -7.024  -4.826  0.00  0.00    -0.239 N 
ATOM      4  N   UNL     1      -5.207  -7.113  -4.228  0.00  0.00    -0.166 NA
ATOM      5  C   UNL     1      -5.326  -6.163  -3.328  0.00  0.00    +0.100 A 
ENDROOT
BRANCH   5   6
ATOM      6  C   UNL     1      -6.504  -5.909  -2.465  0.00  0.00    +0.005 A 
ATOM      7  C   UNL     1      -6.330  -5.440  -1.163  0.00  0.00    +0.010 A 
ATOM      8  C   UNL     1      -7.431  -5.204  -0.365  0.00  0.00    +0.003 A 
ATOM      9  C   UNL     1      -8.704  -5.434  -0.853  0.00  0.00    +0.033 A 
ATOM     10  C   UNL     1      -8.883  -5.899  -2.143  0.00  0.00    +0.127 A 
ATOM     11  C   UNL     1      -7.790  -6.132  -2.953  0.00  0.00    +0.042 A 
BRANCH  10  12
ATOM     12  N   UNL     1     -10.249  -6.143  -2.658  0.00  0.00    +0.056 N 
ATOM     13  O   UNL     1     -11.208  -5.935  -1.951  0.00  0.00    -0.126 OA
ATOM     14  O   UNL     1     -10.407  -6.550  -3.786  0.00  0.00    -0.126 OA
ENDBRANCH  10  12
ENDBRANCH   5   6
BRANCH   3  15
ATOM     15  C   UNL     1      -3.466  -7.876  -5.827  0.00  0.00    +0.065 A 
ATOM     16  C   UNL     1      -2.152  -7.767  -6.263  0.00  0.00    +0.028 A 
ATOM     17  C   UNL     1      -1.681  -8.609  -7.251  0.00  0.00    +0.002 A 
ATOM     18  C   UNL     1      -2.516  -9.561  -7.806  0.00  0.00    +0.000 A 
ATOM     19  C   UNL     1      -3.825  -9.672  -7.375  0.00  0.00    +0.002 A 
ATOM     20  C   UNL     1      -4.301  -8.837  -6.383  0.00  0.00    +0.028 A 
ENDBRANCH   3  15
BRANCH   1  22
ATOM     21  C   UNL     1      -2.645  -3.493  -2.784  0.00  0.00    +0.097 C 
ATOM     22  C   UNL     1      -3.742  -4.238  -2.505  0.00  0.00    +0.040 C 
BRANCH  21  24
ATOM     23  N   UNL     1      -1.214  -1.605  -2.208  0.00  0.00    -0.307 N 
ATOM     24  C   UNL     1      -2.248  -2.406  -1.883  0.00  0.00    +0.259 C 
ATOM     25  O   UNL     1      -2.852  -2.228  -0.841  0.00  0.00    -0.269 OA
ATOM     26  H   UNL     1      -0.695  -1.784  -3.008  0.00  0.00    +0.149 HD
BRANCH  23  27
ATOM     27  C   UNL     1      -0.874  -0.465  -1.353  0.00  0.00    +0.131 C 
BRANCH  27  29
ATOM     28  C   UNL     1       0.231   1.546  -2.188  0.00  0.00    +0.005 C 
ATOM     29  C   UNL     1       0.310   0.263  -1.934  0.00  0.00    -0.016 C 
ENDBRANCH  27  29
ENDBRANCH  23  27
ENDBRANCH  21  24
BRANCH  21  30
ATOM     30  N   UNL     1      -1.889  -3.762  -3.933  0.00  0.00    -0.277 N 
ATOM     31  C   UNL     1      -0.582  -4.071  -3.823  0.00  0.00    +0.248 C 
ATOM     32  O   UNL     1      -0.079  -4.200  -2.724  0.00  0.00    -0.270 OA
ATOM     33  H   UNL     1      -2.307  -3.725  -4.808  0.00  0.00    +0.155 HD
BRANCH  31  34
ATOM     34  C   UNL     1       0.239  -4.252  -5.038  0.00  0.00    +0.037 A 
ATOM     35  C   UNL     1      -0.303  -3.988  -6.297  0.00  0.00    +0.013 A 
ATOM     36  C   UNL     1       0.469  -4.159  -7.428  0.00  0.00    +0.001 A 
ATOM     37  C   UNL     1       1.778  -4.592  -7.316  0.00  0.00    +0.000 A 
ATOM     38  C   UNL     1       2.322  -4.856  -6.071  0.00  0.00    +0.001 A 
ATOM     39  C   UNL     1       1.563  -4.683  -4.932  0.00  0.00    +0.013 A 
ENDBRANCH  31  34
ENDBRANCH  21  30
ENDBRANCH   1  22
TORSDOF 9
