REMARK  Name = ZINC20573773
REMARK  6 active torsions:
REMARK  status: ('A' for Active; 'I' for Inactive)
REMARK    1  A    between atoms: C_1  and  C_2
REMARK    2  A    between atoms: N_10  and  C_12
REMARK    3  A    between atoms: C_14  and  C_20
REMARK    4  A    between atoms: C_14  and  C_21
REMARK    5  A    between atoms: C_16  and  C_18
REMARK    6  A    between atoms: C_16  and  C_19
REMARK                            x       y       z     vdW  Elec       q    Type
REMARK                         _______ _______ _______ _____ _____    ______ ____
ROOT
ATOM      1  C   UNL     1      -0.065   1.375   0.019  0.00  0.00    +0.051 C 
ATOM      2  C   UNL     1      -0.149  -0.129  -0.009  0.00  0.00    +0.034 A 
ATOM      3  C   UNL     1      -0.200  -0.798  -1.221  0.00  0.00    +0.146 A 
ATOM      4  C   UNL     1      -0.277  -2.203  -1.230  0.00  0.00    +0.022 A 
ATOM      5  C   UNL     1      -0.310  -2.909  -0.023  0.00  0.00    +0.020 A 
ATOM      6  C   UNL     1      -0.260  -2.234   1.164  0.00  0.00    +0.009 A 
ATOM      7  C   UNL     1      -0.172  -0.844   1.180  0.00  0.00    +0.133 A 
ATOM      8  O   UNL     1      -0.107  -0.167   2.356  0.00  0.00    -0.476 OA
ATOM      9  C   UNL     1      -0.491  -0.873   3.538  0.00  0.00    +0.319 C 
ATOM     10  N   UNL     1       0.198  -2.173   3.554  0.00  0.00    -0.263 NA
ATOM     11  C   UNL     1      -0.297  -3.017   2.453  0.00  0.00    +0.126 C 
ATOM     12  C   UNL     1      -0.319  -2.903  -2.516  0.00  0.00    -0.027 A 
ATOM     13  C   UNL     1      -0.281  -2.166  -3.654  0.00  0.00    +0.041 A 
ATOM     14  C   UNL     1      -0.204  -0.757  -3.569  0.00  0.00    +0.341 A 
ATOM     15  O   UNL     1      -0.162  -0.103  -4.595  0.00  0.00    -0.245 OA
ATOM     16  O   UNL     1      -0.174  -0.121  -2.388  0.00  0.00    -0.422 OA
ATOM     17  C   UNL     1      -0.332  -3.076  -4.863  0.00  0.00    +0.043 C 
ATOM     18  C   UNL     1       0.026  -4.479  -4.326  0.00  0.00    +0.010 C 
ATOM     19  C   UNL     1      -0.402  -4.376  -2.846  0.00  0.00    +0.036 C 
ENDROOT
BRANCH  10  20
ATOM     20  C   UNL     1       0.024  -2.847   4.852  0.00  0.00    +0.058 C 
ATOM     21  C   UNL     1      -1.470  -3.012   5.135  0.00  0.00    +0.006 C 
ATOM     22  C   UNL     1      -1.668  -3.700   6.486  0.00  0.00    -0.072 C 
ATOM     23  N   UNL     1      -0.970  -3.009   7.560  0.00  0.00    +0.386 N 
ATOM     24  C   UNL     1       0.410  -2.615   7.324  0.00  0.00    -0.072 C 
ATOM     25  C   UNL     1       0.628  -1.979   5.955  0.00  0.00    +0.006 C 
ATOM     26  C   UNL     1       1.375  -3.788   7.515  0.00  0.00    -0.010 C 
ATOM     27  C   UNL     1       0.777  -1.551   8.387  0.00  0.00    -0.010 C 
ATOM     28  C   UNL     1      -1.270  -5.172   6.393  0.00  0.00    -0.010 C 
ATOM     29  C   UNL     1      -3.180  -3.653   6.807  0.00  0.00    -0.010 C 
ATOM     30  H   UNL     1      -1.506  -2.173   7.806  0.00  0.00    -0.084 HD
ATOM     31  H   UNL     1      -0.998  -3.601   8.394  0.00  0.00    -0.084 HD
ENDBRANCH  10  20
TORSDOF 1
