REMARK  Name = ZINC21237212
REMARK  11 active torsions:
REMARK  status: ('A' for Active; 'I' for Inactive)
REMARK    1  A    between atoms: C_1  and  C_2
REMARK    2  A    between atoms: C_2  and  N_3
REMARK    3  A    between atoms: C_4  and  C_28
REMARK    4  A    between atoms: C_7  and  S_8
REMARK    5  A    between atoms: S_8  and  C_9
REMARK    6  A    between atoms: C_9  and  C_10
REMARK    7  A    between atoms: N_12  and  C_13
REMARK    8  A    between atoms: N_12  and  C_14
REMARK    9  A    between atoms: C_14  and  C_15
REMARK   10  A    between atoms: N_17  and  C_18
REMARK   11  A    between atoms: C_23  and  C_24
REMARK                            x       y       z     vdW  Elec       q    Type
REMARK                         _______ _______ _______ _____ _____    ______ ____
ROOT
ATOM      1  C   UNL     1       3.712  10.711  -0.182  0.00  0.00    +0.226 C 
ATOM      2  O   UNL     1       4.855  10.457  -0.499  0.00  0.00    -0.275 OA
ATOM      3  N   UNL     1       3.340  11.989   0.029  0.00  0.00    -0.295 N 
ATOM      4  C   UNL     1       1.960  12.297   0.412  0.00  0.00    +0.132 C 
ENDROOT
BRANCH   1   5
ATOM      5  C   UNL     1       2.709   9.598  -0.023  0.00  0.00    +0.173 C 
BRANCH   5   6
ATOM      6  S   UNL     1       3.508   8.012  -0.371  0.00  0.00    -0.077 S 
BRANCH   6  11
ATOM      7  N   UNL     1       2.165   5.560  -0.240  0.00  0.00    -0.302 N 
ATOM      8  C   UNL     1       0.883   5.145   0.047  0.00  0.00    +0.171 A 
ATOM      9  N   UNL     1       0.183   6.223   0.324  0.00  0.00    -0.128 NA
ATOM     10  N   UNL     1       0.927   7.266   0.226  0.00  0.00    -0.122 NA
ATOM     11  C   UNL     1       2.147   6.922  -0.119  0.00  0.00    +0.192 A 
BRANCH   8  12
ATOM     12  C   UNL     1       0.393   3.757   0.049  0.00  0.00    +0.056 A 
ATOM     13  C   UNL     1      -0.900   3.298   0.055  0.00  0.00    +0.019 A 
ATOM     14  C   UNL     1      -1.118   1.938   0.049  0.00  0.00    +0.008 A 
ATOM     15  C   UNL     1      -0.051   1.097   0.050  0.00  0.00    +0.046 A 
ATOM     16  S   UNL     1       1.324   2.234   0.044  0.00  0.00    -0.094 S 
ENDBRANCH   8  12
BRANCH   7  18
ATOM     17  C   UNL     1       3.354   4.548  -2.122  0.00  0.00    +0.027 C 
ATOM     18  C   UNL     1       3.308   4.719  -0.602  0.00  0.00    +0.122 C 
ENDBRANCH   7  18
ENDBRANCH   6  11
ENDBRANCH   5   6
ENDBRANCH   1   5
BRANCH   3  19
ATOM     19  C   UNL     1       4.316  13.072  -0.125  0.00  0.00    +0.203 C 
BRANCH  19  20
ATOM     20  C   UNL     1       4.297  13.566  -1.549  0.00  0.00    +0.235 C 
ATOM     21  O   UNL     1       3.543  13.063  -2.355  0.00  0.00    -0.274 OA
ATOM     22  N   UNL     1       5.118  14.566  -1.926  0.00  0.00    -0.284 N 
ATOM     23  H   UNL     1       5.748  15.071  -1.179  0.00  0.00    +0.155 HD
BRANCH  22  24
ATOM     24  C   UNL     1       5.169  14.961  -3.267  0.00  0.00    +0.045 A 
ATOM     25  C   UNL     1       4.020  14.926  -4.047  0.00  0.00    +0.024 A 
ATOM     26  C   UNL     1       4.072  15.322  -5.369  0.00  0.00    +0.002 A 
ATOM     27  C   UNL     1       5.269  15.743  -5.919  0.00  0.00    +0.001 A 
ATOM     28  C   UNL     1       6.416  15.774  -5.147  0.00  0.00    +0.014 A 
ATOM     29  C   UNL     1       6.369  15.384  -3.823  0.00  0.00    +0.076 A 
BRANCH  29  30
ATOM     30  C   UNL     1       7.619  15.417  -2.982  0.00  0.00    +0.419 C 
ATOM     31  F   UNL     1       8.690  15.875  -3.757  0.00  0.00    -0.166 F 
ATOM     32  F   UNL     1       7.428  16.278  -1.896  0.00  0.00    -0.166 F 
ATOM     33  F   UNL     1       7.899  14.130  -2.512  0.00  0.00    -0.166 F 
ENDBRANCH  29  30
ENDBRANCH  22  24
ENDBRANCH  19  20
ENDBRANCH   3  19
TORSDOF 9
