REMARK  Name = ZINC04603963
REMARK  6 active torsions:
REMARK  status: ('A' for Active; 'I' for Inactive)
REMARK    1  A    between atoms: C_1  and  C_2
REMARK    2  A    between atoms: C_2  and  C_3
REMARK    3  A    between atoms: C_10  and  C_14
REMARK    4  A    between atoms: C_10  and  O_18
REMARK    5  A    between atoms: C_19  and  C_21
REMARK    6  A    between atoms: C_24  and  C_26
REMARK                            x       y       z     vdW  Elec       q    Type
REMARK                         _______ _______ _______ _____ _____    ______ ____
ROOT
ATOM      1  C   UNL     1      -0.735   2.019   1.269  0.00  0.00    -0.010 C 
ATOM      2  C   UNL     1       0.056   1.581   2.500  0.00  0.00    +0.009 C 
ATOM      3  C   UNL     1       1.498   2.107   2.416  0.00  0.00    +0.053 C 
ATOM      4  C   UNL     1       1.403   3.594   2.143  0.00  0.00    +0.045 C 
ATOM      5  N   UNL     1       1.915   4.549   2.790  0.00  0.00    -0.183 NA
ATOM      6  N   UNL     1       1.509   5.815   2.366  0.00  0.00    -0.145 N 
ATOM      7  C   UNL     1       0.538   5.656   1.267  0.00  0.00    +0.260 C 
ATOM      8  C   UNL     1       0.534   4.142   1.020  0.00  0.00    +0.097 C 
ATOM      9  C   UNL     1      -0.862   3.545   1.210  0.00  0.00    +0.018 C 
ATOM     10  C   UNL     1       1.935   6.988   2.875  0.00  0.00    +0.304 C 
ATOM     11  O   UNL     1       1.512   8.037   2.424  0.00  0.00    -0.265 OA
ENDROOT
BRANCH  10  12
ATOM     12  C   UNL     1       2.907   7.002   3.972  0.00  0.00    +0.191 A 
ATOM     13  C   UNL     1       3.423   8.114   4.574  0.00  0.00    +0.055 A 
ATOM     14  C   UNL     1       4.306   7.662   5.567  0.00  0.00    +0.045 A 
ATOM     15  C   UNL     1       4.297   6.312   5.523  0.00  0.00    +0.103 A 
ATOM     16  O   UNL     1       3.453   5.917   4.561  0.00  0.00    -0.455 OA
ATOM     17  C   UNL     1       5.104   5.399   6.410  0.00  0.00    +0.086 C 
ENDBRANCH  10  12
BRANCH   7  18
ATOM     18  C   UNL     1       1.008   6.406   0.019  0.00  0.00    +0.438 C 
ATOM     19  F   UNL     1       0.145   6.124  -1.046  0.00  0.00    -0.166 F 
ATOM     20  F   UNL     1       1.002   7.782   0.271  0.00  0.00    -0.166 F 
ATOM     21  F   UNL     1       2.305   5.998  -0.310  0.00  0.00    -0.166 F 
ENDBRANCH   7  18
BRANCH   1  23
ATOM     22  C   UNL     1       0.002  -0.004   0.002  0.00  0.00    +0.004 C 
ATOM     23  C   UNL     1      -0.019   1.526   0.010  0.00  0.00    +0.000 C 
ENDBRANCH   1  23
BRANCH   7  24
ATOM     24  O   UNL     1      -0.757   6.105   1.670  0.00  0.00    -0.363 OA
ATOM     25  H   UNL     1      -0.809   7.056   1.839  0.00  0.00    +0.212 HD
ENDBRANCH   7  24
TORSDOF 4
