REMARK  Name = ZINC23080987
REMARK  8 active torsions:
REMARK  status: ('A' for Active; 'I' for Inactive)
REMARK    1  A    between atoms: C_1  and  C_2
REMARK    2  A    between atoms: C_7  and  C_8
REMARK    3  A    between atoms: C_8  and  C_9
REMARK    4  A    between atoms: N_11  and  C_12
REMARK    5  A    between atoms: C_12  and  C_14
REMARK    6  A    between atoms: C_12  and  C_20
REMARK    7  A    between atoms: C_23  and  O_26
REMARK    8  A    between atoms: O_26  and  C_27
REMARK                            x       y       z     vdW  Elec       q    Type
REMARK                         _______ _______ _______ _____ _____    ______ ____
ROOT
ATOM      1  C   UNL     1       2.998   3.860  -0.006  0.00  0.00    +0.134 C 
ENDROOT
BRANCH   1   2
ATOM      2  C   UNL     1       3.526   3.910   1.405  0.00  0.00    -0.023 A 
ATOM      3  C   UNL     1       2.706   4.331   2.435  0.00  0.00    +0.006 A 
ATOM      4  C   UNL     1       3.188   4.373   3.730  0.00  0.00    +0.000 A 
ATOM      5  C   UNL     1       4.494   4.002   3.993  0.00  0.00    +0.000 A 
ATOM      6  C   UNL     1       5.315   3.586   2.962  0.00  0.00    +0.000 A 
ATOM      7  C   UNL     1       4.831   3.540   1.668  0.00  0.00    +0.006 A 
ENDBRANCH   1   2
BRANCH   1   8
ATOM      8  C   UNL     1       3.018   5.245  -0.599  0.00  0.00    -0.023 A 
ATOM      9  C   UNL     1       2.009   6.140  -0.295  0.00  0.00    +0.009 A 
ATOM     10  C   UNL     1       2.028   7.413  -0.834  0.00  0.00    +0.046 A 
ATOM     11  C   UNL     1       3.054   7.788  -1.688  0.00  0.00    +0.127 A 
ATOM     12  C   UNL     1       4.062   6.885  -1.996  0.00  0.00    +0.046 A 
ATOM     13  C   UNL     1       4.042   5.616  -1.451  0.00  0.00    +0.009 A 
BRANCH  11  14
ATOM     14  O   UNL     1       3.072   9.036  -2.224  0.00  0.00    -0.434 OA
BRANCH  14  15
ATOM     15  C   UNL     1       2.002   9.912  -1.863  0.00  0.00    +0.541 C 
ATOM     16  F   UNL     1       0.784   9.349  -2.261  0.00  0.00    -0.166 F 
ATOM     17  F   UNL     1       1.999  10.098  -0.477  0.00  0.00    -0.166 F 
ENDBRANCH  14  15
ENDBRANCH  11  14
ENDBRANCH   1   8
BRANCH   1  20
ATOM     18  C   UNL     1       1.395   2.024  -0.000  0.00  0.00    +0.218 C 
ATOM     19  O   UNL     1       2.328   1.249  -0.013  0.00  0.00    -0.275 OA
ATOM     20  N   UNL     1       1.624   3.353   0.005  0.00  0.00    -0.304 N 
ATOM     21  H   UNL     1       0.778   4.056   0.017  0.00  0.00    +0.150 HD
BRANCH  18  22
ATOM     22  C   UNL     1      -0.018   1.503   0.010  0.00  0.00    +0.131 C 
BRANCH  22  29
ATOM     23  C   UNL     1       0.243   0.048   2.493  0.00  0.00    +0.044 C 
ATOM     24  C   UNL     1       0.127  -0.700   1.190  0.00  0.00    -0.047 A 
ATOM     25  C   UNL     1       0.145  -2.083   1.182  0.00  0.00    +0.003 A 
ATOM     26  C   UNL     1       0.039  -2.768  -0.013  0.00  0.00    +0.000 A 
ATOM     27  C   UNL     1      -0.086  -2.072  -1.201  0.00  0.00    +0.000 A 
ATOM     28  C   UNL     1      -0.110  -0.690  -1.193  0.00  0.00    +0.004 A 
ATOM     29  C   UNL     1       0.002  -0.004   0.002  0.00  0.00    -0.036 A 
ENDBRANCH  22  29
ENDBRANCH  18  22
ENDBRANCH   1  20
TORSDOF 7
