REMARK  Name = ZINC28929080
REMARK  7 active torsions:
REMARK  status: ('A' for Active; 'I' for Inactive)
REMARK    1  A    between atoms: C_1  and  C_2
REMARK    2  A    between atoms: C_9  and  C_14
REMARK    3  A    between atoms: C_14  and  S_15
REMARK    4  A    between atoms: S_15  and  C_16
REMARK    5  A    between atoms: C_18  and  C_25
REMARK    6  A    between atoms: C_19  and  C_21
REMARK    7  A    between atoms: C_21  and  C_22
REMARK                            x       y       z     vdW  Elec       q    Type
REMARK                         _______ _______ _______ _____ _____    ______ ____
ROOT
ATOM      1  C   UNL     1       2.279   5.601   0.011  0.00  0.00    +0.150 C 
ENDROOT
BRANCH   1  10
ATOM      2  C   UNL     1      -1.330   2.112   0.020  0.00  0.00    +0.046 C 
ATOM      3  C   UNL     1      -0.017   1.373   0.010  0.00  0.00    -0.024 A 
ATOM      4  C   UNL     1       0.002  -0.004   0.002  0.00  0.00    +0.005 A 
ATOM      5  C   UNL     1       1.204  -0.699  -0.013  0.00  0.00    +0.001 A 
ATOM      6  C   UNL     1       2.405  -0.023  -0.021  0.00  0.00    +0.015 A 
ATOM      7  C   UNL     1       2.408   1.370  -0.014  0.00  0.00    +0.065 A 
ATOM      8  C   UNL     1       1.187   2.081   0.002  0.00  0.00    +0.081 A 
ATOM      9  N   UNL     1       1.215   3.437   0.009  0.00  0.00    -0.233 NA
ATOM     10  C   UNL     1       2.334   4.095   0.002  0.00  0.00    +0.121 A 
ATOM     11  N   UNL     1       3.553   3.495  -0.012  0.00  0.00    -0.310 N 
ATOM     12  H   UNL     1       4.467   4.107  -0.017  0.00  0.00    +0.170 HD
ATOM     13  C   UNL     1       3.657   2.145  -0.021  0.00  0.00    +0.259 A 
ATOM     14  O   UNL     1       4.743   1.595  -0.035  0.00  0.00    -0.267 OA
ENDBRANCH   1  10
BRANCH   1  15
ATOM     15  S   UNL     1       0.551   6.140   0.029  0.00  0.00    -0.091 S 
BRANCH  15  16
ATOM     16  C   UNL     1       0.776   7.888   0.037  0.00  0.00    +0.135 A 
ATOM     17  N   UNL     1       1.901   8.579   0.036  0.00  0.00    -0.238 NA
ATOM     18  C   UNL     1       1.891   9.899   0.038  0.00  0.00    +0.050 A 
ATOM     19  C   UNL     1       0.696  10.536   0.052  0.00  0.00    +0.022 A 
ATOM     20  S   UNL     1      -0.423   9.143   0.055  0.00  0.00    -0.065 S 
ATOM     21  C   UNL     1       3.180  10.679   0.032  0.00  0.00    +0.066 C 
BRANCH  19  22
ATOM     22  C   UNL     1       0.393  12.012   0.064  0.00  0.00    +0.139 C 
BRANCH  22  23
ATOM     23  C   UNL     1       0.280  12.512  -1.353  0.00  0.00    +0.215 C 
ATOM     24  O   UNL     1       0.430  11.746  -2.281  0.00  0.00    -0.276 OA
ATOM     25  N   UNL     1       0.012  13.812  -1.589  0.00  0.00    -0.329 N 
ATOM     26  H   UNL     1      -0.070  14.177  -2.623  0.00  0.00    +0.145 HD
ATOM     27  H   UNL     1      -0.124  14.507  -0.748  0.00  0.00    +0.145 HD
ENDBRANCH  22  23
ENDBRANCH  19  22
ENDBRANCH  15  16
ENDBRANCH   1  15
TORSDOF 5
