REMARK  Name = ZINC67655090
REMARK  6 active torsions:
REMARK  status: ('A' for Active; 'I' for Inactive)
REMARK    1  A    between atoms: C_4  and  N_7
REMARK    2  A    between atoms: C_10  and  N_13
REMARK    3  A    between atoms: C_14  and  C_16
REMARK    4  A    between atoms: C_16  and  C_17
REMARK    5  A    between atoms: N_24  and  C_25
REMARK    6  A    between atoms: C_25  and  C_26
REMARK                            x       y       z     vdW  Elec       q    Type
REMARK                         _______ _______ _______ _____ _____    ______ ____
ROOT
ATOM      1  C   UNL     1       7.915  -4.190  -3.114  0.00  0.00    +0.089 C 
ENDROOT
BRANCH   1   2
ATOM      2  C   UNL     1       8.640  -5.492  -2.765  0.00  0.00    +0.028 C 
ATOM      3  C   UNL     1       9.336  -5.335  -1.443  0.00  0.00    +0.200 C 
ATOM      4  O   UNL     1       9.916  -4.296  -1.210  0.00  0.00    -0.278 OA
ATOM      5  N   UNL     1       9.343  -6.296  -0.513  0.00  0.00    -0.318 N 
ATOM      6  C   UNL     1       8.649  -7.570  -0.691  0.00  0.00    +0.085 C 
ATOM      7  C   UNL     1       8.335  -7.788  -2.172  0.00  0.00    -0.058 C 
ATOM      8  N   UNL     1       7.665  -6.588  -2.694  0.00  0.00    +0.391 N 
ATOM      9  H   UNL     1       9.827  -6.141   0.314  0.00  0.00    +0.149 HD
ATOM     10  H   UNL     1       6.909  -6.327  -2.079  0.00  0.00    -0.080 HD
BRANCH   8  11
ATOM     11  C   UNL     1       7.138  -6.866  -4.037  0.00  0.00    -0.042 C 
BRANCH  11  12
ATOM     12  C   UNL     1       6.030  -7.882  -3.941  0.00  0.00    -0.064 A 
ATOM     13  C   UNL     1       6.322  -9.231  -4.021  0.00  0.00    +0.004 A 
ATOM     14  C   UNL     1       5.306 -10.165  -3.933  0.00  0.00    +0.038 A 
ATOM     15  C   UNL     1       3.997  -9.748  -3.764  0.00  0.00    +0.123 A 
ATOM     16  C   UNL     1       3.706  -8.397  -3.683  0.00  0.00    +0.038 A 
ATOM     17  C   UNL     1       4.724  -7.466  -3.766  0.00  0.00    +0.004 A 
ATOM     18  F   UNL     1       3.003 -10.660  -3.677  0.00  0.00    -0.205 F 
ENDBRANCH  11  12
ENDBRANCH   8  11
ENDBRANCH   1   2
BRANCH   1  20
ATOM     19  N   UNL     1       6.083  -2.818  -2.177  0.00  0.00    -0.312 N 
ATOM     20  C   UNL     1       6.918  -3.865  -2.031  0.00  0.00    +0.212 C 
ATOM     21  O   UNL     1       6.869  -4.545  -1.028  0.00  0.00    -0.276 OA
ATOM     22  H   UNL     1       6.122  -2.273  -2.979  0.00  0.00    +0.149 HD
BRANCH  19  26
ATOM     23  N   UNL     1       2.612  -1.592  -0.167  0.00  0.00    -0.330 N 
ATOM     24  C   UNL     1       3.763  -0.683  -0.073  0.00  0.00    +0.107 C 
ATOM     25  C   UNL     1       4.749  -1.017  -1.196  0.00  0.00    +0.041 C 
ATOM     26  C   UNL     1       5.114  -2.502  -1.124  0.00  0.00    +0.076 C 
ATOM     27  C   UNL     1       3.854  -3.348  -1.320  0.00  0.00    +0.041 C 
ATOM     28  C   UNL     1       2.857  -3.041  -0.192  0.00  0.00    +0.107 C 
BRANCH  23  32
ATOM     29  C   UNL     1      -1.268  -0.093  -0.343  0.00  0.00    +0.000 A 
ATOM     30  C   UNL     1      -1.046  -1.450  -0.489  0.00  0.00    +0.002 A 
ATOM     31  C   UNL     1       0.240  -1.950  -0.431  0.00  0.00    +0.023 A 
ATOM     32  C   UNL     1       1.311  -1.089  -0.227  0.00  0.00    +0.030 A 
ATOM     33  C   UNL     1       1.084   0.274  -0.080  0.00  0.00    +0.023 A 
ATOM     34  C   UNL     1      -0.205   0.767  -0.139  0.00  0.00    +0.002 A 
ENDBRANCH  23  32
ENDBRANCH  19  26
ENDBRANCH   1  20
TORSDOF 6
