REMARK  Name = ZINC25589298
REMARK  10 active torsions:
REMARK  status: ('A' for Active; 'I' for Inactive)
REMARK    1  A    between atoms: C_1  and  C_2
REMARK    2  A    between atoms: C_2  and  C_3
REMARK    3  A    between atoms: C_4  and  C_26
REMARK    4  A    between atoms: C_5  and  N_25
REMARK    5  A    between atoms: C_7  and  S_9
REMARK    6  A    between atoms: S_9  and  C_10
REMARK    7  A    between atoms: C_10  and  C_12
REMARK    8  A    between atoms: C_10  and  C_13
REMARK    9  A    between atoms: N_15  and  C_16
REMARK   10  A    between atoms: N_15  and  C_17
REMARK                            x       y       z     vdW  Elec       q    Type
REMARK                         _______ _______ _______ _____ _____    ______ ____
ROOT
ATOM      1  C   UNL     1       2.372   1.284  -0.190  0.00  0.00    +0.055 A 
ATOM      2  C   UNL     1       1.206   2.031  -0.032  0.00  0.00    +0.043 A 
ATOM      3  C   UNL     1      -0.007   1.341   0.156  0.00  0.00    +0.129 A 
ATOM      4  N   UNL     1       0.006   0.014   0.175  0.00  0.00    -0.207 NA
ATOM      5  C   UNL     1       1.140  -0.655   0.021  0.00  0.00    +0.191 A 
ATOM      6  N   UNL     1       2.300  -0.037  -0.159  0.00  0.00    -0.226 NA
ENDROOT
BRANCH   2   7
ATOM      7  C   UNL     1       1.242   3.513  -0.062  0.00  0.00    -0.013 A 
ATOM      8  C   UNL     1       1.853   4.218   0.973  0.00  0.00    +0.010 A 
ATOM      9  C   UNL     1       1.888   5.597   0.938  0.00  0.00    +0.020 A 
ATOM     10  C   UNL     1       1.309   6.280  -0.117  0.00  0.00    +0.041 A 
ATOM     11  C   UNL     1       0.696   5.585  -1.145  0.00  0.00    +0.020 A 
ATOM     12  C   UNL     1       0.659   4.205  -1.123  0.00  0.00    +0.010 A 
ATOM     13 CL   UNL     1       1.351   8.015  -0.152  0.00  0.00    -0.084 Cl
ENDBRANCH   2   7
BRANCH   3  14
ATOM     14  N   UNL     1      -1.193   2.035   0.312  0.00  0.00    -0.343 N 
ATOM     15  H   UNL     1      -2.136   1.487   0.459  0.00  0.00    +0.144 HD
ATOM     16  H   UNL     1      -1.194   3.135   0.290  0.00  0.00    +0.144 HD
ENDBRANCH   3  14
BRANCH   1  18
ATOM     17  C   UNL     1       3.976   2.106  -1.893  0.00  0.00    +0.010 C 
ATOM     18  C   UNL     1       3.697   1.972  -0.395  0.00  0.00    +0.053 C 
ENDBRANCH   1  18
BRANCH   5  19
ATOM     19  S   UNL     1       1.106  -2.416   0.054  0.00  0.00    -0.074 S 
BRANCH  19  20
ATOM     20  C   UNL     1      -0.663  -2.691   0.317  0.00  0.00    +0.137 C 
ATOM     21  C   UNL     1      -1.444  -2.187  -0.898  0.00  0.00    +0.029 C 
BRANCH  20  22
ATOM     22  C   UNL     1      -0.921  -4.164   0.503  0.00  0.00    +0.229 C 
ATOM     23  O   UNL     1      -0.107  -4.976   0.115  0.00  0.00    -0.274 OA
ATOM     24  N   UNL     1      -2.055  -4.580   1.102  0.00  0.00    -0.299 N 
ATOM     25  C   UNL     1      -3.037  -3.600   1.571  0.00  0.00    +0.132 C 
BRANCH  24  26
ATOM     26  C   UNL     1      -2.305  -6.012   1.283  0.00  0.00    +0.098 C 
ATOM     27  C   UNL     1      -3.615  -6.404   0.580  0.00  0.00    +0.046 C 
ATOM     28  C   UNL     1      -4.051  -7.820   1.027  0.00  0.00    +0.168 C 
ATOM     29  S   UNL     1      -3.335  -7.948   2.716  0.00  0.00    -0.029 S 
ATOM     30  O   UNL     1      -2.377  -8.998   2.734  0.00  0.00    -0.174 OA
ATOM     31  O   UNL     1      -4.390  -7.948   3.668  0.00  0.00    -0.174 OA
ATOM     32  C   UNL     1      -2.454  -6.332   2.798  0.00  0.00    +0.188 C 
ENDBRANCH  24  26
ENDBRANCH  20  22
ENDBRANCH  19  20
ENDBRANCH   5  19
TORSDOF 7
