REMARK  Name = ZINC59849497
REMARK  10 active torsions:
REMARK  status: ('A' for Active; 'I' for Inactive)
REMARK    1  A    between atoms: C_1  and  N_2
REMARK    2  A    between atoms: N_2  and  C_3
REMARK    3  A    between atoms: N_2  and  C_4
REMARK    4  A    between atoms: C_4  and  C_5
REMARK    5  A    between atoms: C_8  and  C_11
REMARK    6  A    between atoms: C_16  and  C_17
REMARK    7  A    between atoms: C_17  and  N_18
REMARK    8  A    between atoms: N_21  and  C_22
REMARK    9  A    between atoms: C_22  and  C_24
REMARK   10  A    between atoms: C_22  and  C_34
REMARK                            x       y       z     vdW  Elec       q    Type
REMARK                         _______ _______ _______ _____ _____    ______ ____
ROOT
ATOM      1  N   UNL     1      -1.681  -0.749  -6.215  0.00  0.00    -0.295 N 
ATOM      2  C   UNL     1      -0.453  -1.301  -6.150  0.00  0.00    +0.300 C 
ATOM      3  O   UNL     1       0.524  -0.595  -5.988  0.00  0.00    -0.253 OA
ATOM      4  N   UNL     1      -0.308  -2.636  -6.266  0.00  0.00    -0.292 N 
ATOM      5  H   UNL     1      -2.460  -1.312  -6.345  0.00  0.00    +0.151 HD
ATOM      6  H   UNL     1      -1.087  -3.199  -6.396  0.00  0.00    +0.151 HD
ENDROOT
BRANCH   1   7
ATOM      7  C   UNL     1      -1.838   0.703  -6.089  0.00  0.00    +0.141 C 
BRANCH   7  13
ATOM      8  C   UNL     1      -4.075   0.776  -4.945  0.00  0.00    -0.013 A 
ATOM      9  C   UNL     1      -5.429   1.104  -4.936  0.00  0.00    +0.009 A 
ATOM     10  C   UNL     1      -6.002   1.692  -6.045  0.00  0.00    +0.001 A 
ATOM     11  C   UNL     1      -5.234   1.956  -7.165  0.00  0.00    +0.000 A 
ATOM     12  C   UNL     1      -3.889   1.632  -7.180  0.00  0.00    +0.006 A 
ATOM     13  C   UNL     1      -3.305   1.049  -6.074  0.00  0.00    -0.023 A 
BRANCH   8  17
ATOM     14  C   UNL     1      -2.294  -1.034  -1.534  0.00  0.00    -0.064 A 
ATOM     15  C   UNL     1      -3.381  -1.634  -2.144  0.00  0.00    +0.002 A 
ATOM     16  C   UNL     1      -3.963  -1.050  -3.251  0.00  0.00    +0.009 A 
ATOM     17  C   UNL     1      -3.454   0.144  -3.755  0.00  0.00    -0.018 A 
ATOM     18  C   UNL     1      -2.358   0.744  -3.136  0.00  0.00    +0.009 A 
ATOM     19  C   UNL     1      -1.787   0.155  -2.026  0.00  0.00    +0.002 A 
BRANCH  14  20
ATOM     20  C   UNL     1      -1.663  -1.676  -0.326  0.00  0.00    -0.044 C 
BRANCH  20  22
ATOM     21  C   UNL     1      -3.720  -1.614   0.907  0.00  0.00    -0.096 C 
ATOM     22  N   UNL     1      -2.317  -1.177   0.891  0.00  0.00    +0.379 N 
ATOM     23  C   UNL     1      -1.625  -1.710   2.073  0.00  0.00    -0.096 C 
ATOM     24  H   UNL     1      -2.279  -0.169   0.905  0.00  0.00    -0.082 HD
ENDBRANCH  20  22
ENDBRANCH  14  20
ENDBRANCH   8  17
ENDBRANCH   7  13
ENDBRANCH   1   7
BRANCH   4  25
ATOM     25  C   UNL     1       1.027  -3.236  -6.196  0.00  0.00    +0.108 C 
BRANCH  25  26
ATOM     26  C   UNL     1       0.910  -4.668  -5.741  0.00  0.00    -0.023 A 
ATOM     27  C   UNL     1      -0.116  -5.463  -6.218  0.00  0.00    +0.009 A 
ATOM     28  C   UNL     1      -0.228  -6.776  -5.802  0.00  0.00    +0.050 A 
ATOM     29  C   UNL     1       0.691  -7.300  -4.904  0.00  0.00    +0.162 A 
ATOM     30  C   UNL     1       1.724  -6.502  -4.426  0.00  0.00    +0.162 A 
ATOM     31  C   UNL     1       1.832  -5.187  -4.852  0.00  0.00    +0.055 A 
ATOM     32  O   UNL     1       2.640  -6.999  -3.551  0.00  0.00    -0.485 OA
ATOM     33  C   UNL     1       2.288  -8.207  -2.867  0.00  0.00    +0.270 C 
ATOM     34  C   UNL     1       1.717  -9.193  -3.895  0.00  0.00    +0.270 C 
ATOM     35  O   UNL     1       0.566  -8.594  -4.500  0.00  0.00    -0.485 OA
ENDBRANCH  25  26
BRANCH  25  36
ATOM     36  C   UNL     1       1.679  -3.193  -7.580  0.00  0.00    +0.014 C 
ATOM     37  C   UNL     1       3.086  -2.600  -7.679  0.00  0.00    +0.006 C 
ATOM     38  C   UNL     1       1.887  -1.819  -8.220  0.00  0.00    +0.006 C 
ENDBRANCH  25  36
ENDBRANCH   4  25
TORSDOF 8
