REMARK  Name = ZINC33022357
REMARK  9 active torsions:
REMARK  status: ('A' for Active; 'I' for Inactive)
REMARK    1  A    between atoms: C_1  and  C_2
REMARK    2  A    between atoms: C_5  and  C_8
REMARK    3  A    between atoms: C_14  and  S_19
REMARK    4  A    between atoms: N_15  and  C_18
REMARK    5  A    between atoms: S_19  and  C_20
REMARK    6  A    between atoms: C_20  and  C_21
REMARK    7  A    between atoms: N_23  and  C_24
REMARK    8  A    between atoms: C_26  and  C_31
REMARK    9  A    between atoms: C_29  and  C_30
REMARK                            x       y       z     vdW  Elec       q    Type
REMARK                         _______ _______ _______ _____ _____    ______ ____
ROOT
ATOM      1  C   UNL     1       3.200  -1.184   3.031  0.00  0.00    +0.015 A 
ATOM      2  C   UNL     1       3.878  -1.662   4.107  0.00  0.00    +0.056 A 
ATOM      3  S   UNL     1       2.996  -1.055   5.468  0.00  0.00    -0.089 S 
ATOM      4  C   UNL     1       1.723  -0.165   4.617  0.00  0.00    +0.103 A 
ATOM      5  C   UNL     1       2.021  -0.365   3.260  0.00  0.00    +0.094 A 
ATOM      6  N   UNL     1       1.186   0.221   2.358  0.00  0.00    -0.222 NA
ATOM      7  C   UNL     1       0.158   0.934   2.735  0.00  0.00    +0.172 A 
ATOM      8  N   UNL     1      -0.151   1.149   4.048  0.00  0.00    -0.290 N 
ATOM      9  C   UNL     1       0.624   0.598   5.011  0.00  0.00    +0.269 A 
ATOM     10  O   UNL     1       0.372   0.768   6.192  0.00  0.00    -0.266 OA
ATOM     11  C   UNL     1      -1.314   1.964   4.410  0.00  0.00    +0.154 C 
ENDROOT
BRANCH   1  16
ATOM     12  C   UNL     1       4.957  -2.380  -2.321  0.00  0.00    +0.044 C 
ATOM     13  C   UNL     1       4.497  -2.067  -0.920  0.00  0.00    -0.050 A 
ATOM     14  C   UNL     1       5.399  -1.580   0.008  0.00  0.00    +0.004 A 
ATOM     15  C   UNL     1       4.984  -1.292   1.292  0.00  0.00    +0.009 A 
ATOM     16  C   UNL     1       3.652  -1.492   1.653  0.00  0.00    -0.015 A 
ATOM     17  C   UNL     1       2.749  -1.989   0.714  0.00  0.00    +0.009 A 
ATOM     18  C   UNL     1       3.175  -2.269  -0.568  0.00  0.00    +0.004 A 
ENDBRANCH   1  16
BRANCH   7  19
ATOM     19  S   UNL     1      -0.869   1.655   1.497  0.00  0.00    -0.078 S 
BRANCH  19  20
ATOM     20  C   UNL     1      -0.021   1.073   0.008  0.00  0.00    +0.173 C 
BRANCH  20  21
ATOM     21  C   UNL     1      -0.743   1.582  -1.213  0.00  0.00    +0.227 C 
ATOM     22  O   UNL     1      -1.734   2.271  -1.088  0.00  0.00    -0.275 OA
ATOM     23  N   UNL     1      -0.288   1.272  -2.443  0.00  0.00    -0.285 N 
ATOM     24  H   UNL     1       0.659   0.725  -2.558  0.00  0.00    +0.155 HD
BRANCH  23  25
ATOM     25  C   UNL     1      -1.022   1.646  -3.575  0.00  0.00    +0.037 A 
ATOM     26  C   UNL     1      -2.392   1.853  -3.479  0.00  0.00    +0.027 A 
ATOM     27  C   UNL     1      -3.111   2.227  -4.597  0.00  0.00    -0.049 A 
ATOM     28  C   UNL     1      -2.471   2.386  -5.812  0.00  0.00    +0.004 A 
ATOM     29  C   UNL     1      -1.108   2.176  -5.912  0.00  0.00    +0.005 A 
ATOM     30  C   UNL     1      -0.382   1.807  -4.796  0.00  0.00    -0.029 A 
ATOM     31  C   UNL     1       1.104   1.579  -4.906  0.00  0.00    +0.045 C 
ATOM     32  C   UNL     1      -4.597   2.456  -4.493  0.00  0.00    +0.044 C 
ENDBRANCH  23  25
ENDBRANCH  20  21
ENDBRANCH  19  20
ENDBRANCH   7  19
TORSDOF 5
