REMARK  Name = ZINC31543943
REMARK  6 active torsions:
REMARK  status: ('A' for Active; 'I' for Inactive)
REMARK    1  A    between atoms: C_1  and  C_2
REMARK    2  A    between atoms: C_4  and  C_31
REMARK    3  A    between atoms: N_5  and  C_7
REMARK    4  A    between atoms: C_12  and  N_13
REMARK    5  A    between atoms: C_14  and  C_16
REMARK    6  A    between atoms: N_19  and  C_21
REMARK                            x       y       z     vdW  Elec       q    Type
REMARK                         _______ _______ _______ _____ _____    ______ ____
ROOT
ATOM      1  N   UNL     1       0.029   5.344  -0.036  0.00  0.00    -0.278 N 
ATOM      2  C   UNL     1      -1.102   6.072   0.044  0.00  0.00    +0.269 C 
ATOM      3  O   UNL     1      -2.169   5.521   0.234  0.00  0.00    -0.268 OA
ATOM      4  H   UNL     1       1.001   5.848  -0.143  0.00  0.00    +0.155 HD
ENDROOT
BRANCH   2   5
ATOM      5  C   UNL     1      -1.046   7.541  -0.101  0.00  0.00    +0.151 A 
ATOM      6  C   UNL     1      -2.142   8.434  -0.048  0.00  0.00    +0.006 A 
ATOM      7  C   UNL     1      -1.621   9.667  -0.225  0.00  0.00    +0.049 A 
ATOM      8  N   UNL     1      -0.279   9.512  -0.386  0.00  0.00    -0.236 N 
ATOM      9  N   UNL     1       0.034   8.268  -0.311  0.00  0.00    -0.161 NA
ATOM     10  C   UNL     1      -2.716  10.708  -0.178  0.00  0.00    +0.056 C 
ATOM     11  C   UNL     1      -4.029   9.915  -0.387  0.00  0.00    +0.011 C 
ATOM     12  C   UNL     1      -3.639   8.513   0.131  0.00  0.00    +0.040 C 
BRANCH   8  13
ATOM     13  C   UNL     1       0.630  10.556  -0.603  0.00  0.00    +0.066 A 
ATOM     14  C   UNL     1       0.255  11.658  -1.360  0.00  0.00    +0.030 A 
ATOM     15  C   UNL     1       1.151  12.689  -1.569  0.00  0.00    +0.040 A 
ATOM     16  C   UNL     1       2.425  12.619  -1.032  0.00  0.00    +0.124 A 
ATOM     17  C   UNL     1       2.803  11.518  -0.281  0.00  0.00    +0.040 A 
ATOM     18  C   UNL     1       1.909  10.488  -0.066  0.00  0.00    +0.030 A 
ATOM     19  F   UNL     1       3.301  13.626  -1.241  0.00  0.00    -0.205 F 
ENDBRANCH   8  13
ENDBRANCH   2   5
BRANCH   1  25
ATOM     20  C   UNL     1       0.970   3.179  -0.570  0.00  0.00    +0.087 A 
ATOM     21  C   UNL     1       0.902   1.795  -0.513  0.00  0.00    +0.029 A 
ATOM     22  C   UNL     1      -0.158   1.181   0.127  0.00  0.00    +0.002 A 
ATOM     23  C   UNL     1      -1.157   1.943   0.707  0.00  0.00    +0.002 A 
ATOM     24  C   UNL     1      -1.094   3.322   0.659  0.00  0.00    +0.025 A 
ATOM     25  C   UNL     1      -0.034   3.947   0.019  0.00  0.00    +0.059 A 
BRANCH  20  30
ATOM     26  C   UNL     1       3.523   6.196  -3.569  0.00  0.00    +0.067 C 
ATOM     27  C   UNL     1       3.163   5.145  -2.551  0.00  0.00    +0.061 A 
ATOM     28  C   UNL     1       4.068   4.350  -1.838  0.00  0.00    +0.047 A 
ATOM     29  C   UNL     1       3.356   3.534  -1.026  0.00  0.00    +0.042 A 
ATOM     30  N   UNL     1       2.045   3.804  -1.219  0.00  0.00    -0.235 N 
ATOM     31  N   UNL     1       1.951   4.814  -2.184  0.00  0.00    -0.171 NA
ATOM     32  C   UNL     1       3.922   2.510  -0.078  0.00  0.00    +0.066 C 
ENDBRANCH  20  30
ENDBRANCH   1  25
TORSDOF 4
