REMARK  Name = ZINC63926013
REMARK  5 active torsions:
REMARK  status: ('A' for Active; 'I' for Inactive)
REMARK    1  A    between atoms: C_7  and  C_10
REMARK    2  A    between atoms: N_12  and  N_13
REMARK    3  A    between atoms: C_14  and  C_16
REMARK    4  A    between atoms: N_20  and  C_27
REMARK    5  A    between atoms: C_21  and  C_23
REMARK                            x       y       z     vdW  Elec       q    Type
REMARK                         _______ _______ _______ _____ _____    ______ ____
ROOT
ATOM      1  N   UNL     1       0.388  -5.706   0.443  0.00  0.00    -0.230 N 
ATOM      2  C   UNL     1       0.753  -7.001   0.369  0.00  0.00    +0.260 C 
ATOM      3  O   UNL     1       1.932  -7.305   0.406  0.00  0.00    -0.269 OA
ATOM      4  H   UNL     1      -0.545  -5.459   0.353  0.00  0.00    +0.173 HD
ENDROOT
BRANCH   2   5
ATOM      5  C   UNL     1      -0.233  -8.008   0.247  0.00  0.00    +0.061 C 
ATOM      6  H   UNL     1      -1.243 -10.975  -0.167  0.00  0.00    +0.169 HD
ATOM      7  C   UNL     1      -0.017  -9.321   0.045  0.00  0.00    +0.098 C 
ATOM      8  N   UNL     1      -1.182 -10.017  -0.025  0.00  0.00    -0.270 N 
ATOM      9  N   UNL     1      -2.284  -9.167   0.134  0.00  0.00    -0.237 N 
ATOM     10  C   UNL     1      -1.732  -7.815   0.326  0.00  0.00    +0.234 C 
BRANCH   9  11
ATOM     11  C   UNL     1      -3.633  -9.529   0.119  0.00  0.00    +0.050 A 
ATOM     12  C   UNL     1      -4.612  -8.557  -0.044  0.00  0.00    +0.025 A 
ATOM     13  C   UNL     1      -5.945  -8.918  -0.058  0.00  0.00    +0.003 A 
ATOM     14  C   UNL     1      -6.306 -10.244   0.090  0.00  0.00    +0.020 A 
ATOM     15  C   UNL     1      -5.333 -11.215   0.253  0.00  0.00    +0.043 A 
ATOM     16  C   UNL     1      -3.997 -10.861   0.262  0.00  0.00    +0.044 A 
ATOM     17 CL   UNL     1      -5.791 -12.879   0.439  0.00  0.00    -0.083 Cl
ENDBRANCH   9  11
BRANCH  10  18
ATOM     18  C   UNL     1      -2.129  -7.262   1.697  0.00  0.00    +0.414 C 
ATOM     19  F   UNL     1      -1.530  -6.012   1.887  0.00  0.00    -0.168 F 
ATOM     20  F   UNL     1      -3.520  -7.127   1.761  0.00  0.00    -0.168 F 
ATOM     21  F   UNL     1      -1.699  -8.142   2.696  0.00  0.00    -0.168 F 
ENDBRANCH  10  18
ENDBRANCH   2   5
BRANCH   1  24
ATOM     22  C   UNL     1       0.993  -3.421   0.724  0.00  0.00    +0.258 C 
ATOM     23  O   UNL     1      -0.178  -3.111   0.611  0.00  0.00    -0.269 OA
ATOM     24  N   UNL     1       1.358  -4.716   0.650  0.00  0.00    -0.230 N 
ATOM     25  H   UNL     1       2.292  -4.963   0.740  0.00  0.00    +0.173 HD
BRANCH  22  32
ATOM     26  C   UNL     1       0.729   1.121   1.107  0.00  0.00    +0.001 A 
ATOM     27  C   UNL     1       1.954   1.776   1.314  0.00  0.00    +0.002 A 
ATOM     28  C   UNL     1       3.121   1.101   1.393  0.00  0.00    +0.026 A 
ATOM     29  C   UNL     1       3.112  -0.364   1.258  0.00  0.00    +0.043 A 
ATOM     30  N   UNL     1       4.070  -1.247   1.293  0.00  0.00    -0.380 N 
ATOM     31  C   UNL     1       3.499  -2.585   1.102  0.00  0.00    +0.154 C 
ATOM     32  C   UNL     1       2.008  -2.384   0.941  0.00  0.00    +0.044 C 
ATOM     33  C   UNL     1       1.802  -1.026   1.041  0.00  0.00    +0.008 A 
ATOM     34  C   UNL     1       0.637  -0.220   0.974  0.00  0.00    +0.010 A 
ATOM     35  H   UNL     1       5.011  -1.051   1.423  0.00  0.00    +0.160 HD
ENDBRANCH  22  32
ENDBRANCH   1  24
TORSDOF 5
