REMARK  Name = ZINC20682299
REMARK  8 active torsions:
REMARK  status: ('A' for Active; 'I' for Inactive)
REMARK    1  A    between atoms: C_1  and  C_2
REMARK    2  A    between atoms: C_2  and  C_3
REMARK    3  A    between atoms: C_3  and  C_5
REMARK    4  A    between atoms: C_3  and  O_6
REMARK    5  A    between atoms: O_6  and  C_7
REMARK    6  A    between atoms: C_20  and  C_23
REMARK    7  A    between atoms: C_26  and  O_30
REMARK    8  A    between atoms: C_28  and  O_29
REMARK                            x       y       z     vdW  Elec       q    Type
REMARK                         _______ _______ _______ _____ _____    ______ ____
ROOT
ATOM      1  C   UNL     1       3.429  -0.949   0.514  0.00  0.00    +0.121 A 
ATOM      2  C   UNL     1       3.773  -1.127   1.846  0.00  0.00    +0.047 A 
ATOM      3  C   UNL     1       3.192  -0.332   2.813  0.00  0.00    +0.027 A 
ATOM      4  C   UNL     1       2.269   0.641   2.453  0.00  0.00    +0.032 A 
ATOM      5  C   UNL     1       1.922   0.827   1.124  0.00  0.00    -0.016 A 
ATOM      6  C   UNL     1       2.510   0.022   0.156  0.00  0.00    +0.051 A 
ATOM      7  C   UNL     1       0.936   1.865   0.691  0.00  0.00    +0.049 C 
ATOM      8  C   UNL     1      -0.390   1.246   0.319  0.00  0.00    -0.023 C 
ATOM      9  C   UNL     1      -1.374   2.034   0.676  0.00  0.00    -0.030 C 
ATOM     10  C   UNL     1      -0.837   3.287   1.340  0.00  0.00    +0.033 C 
ATOM     11  C   UNL     1       0.588   2.867   1.808  0.00  0.00    +0.029 C 
ATOM     12  C   UNL     1       0.430   2.129   3.141  0.00  0.00    +0.108 C 
ATOM     13  N   UNL     1       1.685   1.435   3.450  0.00  0.00    -0.336 N 
ATOM     14  H   UNL     1       2.144   1.545   4.443  0.00  0.00    +0.147 HD
ENDROOT
BRANCH  12  15
ATOM     15  C   UNL     1      -0.689   1.125   3.033  0.00  0.00    +0.015 A 
ATOM     16  C   UNL     1      -0.449  -0.119   2.483  0.00  0.00    +0.012 A 
ATOM     17  C   UNL     1      -1.473  -1.042   2.384  0.00  0.00    +0.046 A 
ATOM     18  C   UNL     1      -2.745  -0.721   2.837  0.00  0.00    +0.120 A 
ATOM     19  C   UNL     1      -2.988   0.527   3.389  0.00  0.00    +0.091 A 
ATOM     20  C   UNL     1      -1.958   1.450   3.492  0.00  0.00    +0.125 A 
BRANCH  20  21
ATOM     21  O   UNL     1      -2.191   2.672   4.038  0.00  0.00    -0.506 OA
ATOM     22  H   UNL     1      -3.197   2.929   4.402  0.00  0.00    +0.292 HD
ENDBRANCH  20  21
BRANCH  18  23
ATOM     23  O   UNL     1      -3.751  -1.628   2.738  0.00  0.00    -0.507 OA
ATOM     24  H   UNL     1      -4.759  -1.373   3.097  0.00  0.00    +0.292 HD
ENDBRANCH  18  23
ENDBRANCH  12  15
BRANCH   1  25
ATOM     25  O   UNL     1       3.997  -1.730  -0.444  0.00  0.00    -0.489 OA
BRANCH  25  26
ATOM     26  C   UNL     1       5.037  -2.616  -0.025  0.00  0.00    +0.170 C 
ATOM     27  C   UNL     1       4.421  -3.912   0.506  0.00  0.00    +0.052 C 
BRANCH  26  29
ATOM     28  C   UNL     1       6.658  -1.659  -1.668  0.00  0.00    +0.007 C 
ATOM     29  C   UNL     1       5.945  -2.934  -1.215  0.00  0.00    +0.041 C 
ENDBRANCH  26  29
ENDBRANCH  25  26
ENDBRANCH   1  25
TORSDOF 6
