REMARK  Name = ZINC40476354
REMARK  13 active torsions:
REMARK  status: ('A' for Active; 'I' for Inactive)
REMARK    1  A    between atoms: C_1  and  C_2
REMARK    2  A    between atoms: C_2  and  C_3
REMARK    3  A    between atoms: C_3  and  C_4
REMARK    4  A    between atoms: C_4  and  C_5
REMARK    5  A    between atoms: C_5  and  S_6
REMARK    6  A    between atoms: S_6  and  C_7
REMARK    7  A    between atoms: C_18  and  C_20
REMARK    8  A    between atoms: C_24  and  O_28
REMARK    9  A    between atoms: C_25  and  O_26
REMARK   10  A    between atoms: O_26  and  C_27
REMARK   11  A    between atoms: O_28  and  C_29
REMARK   12  A    between atoms: C_33  and  C_35
REMARK   13  A    between atoms: C_33  and  C_36
REMARK                            x       y       z     vdW  Elec       q    Type
REMARK                         _______ _______ _______ _____ _____    ______ ____
ROOT
ATOM      1  C   UNL     1      -4.921  -6.091   1.161  0.00  0.00    +0.171 A 
ATOM      2  N   UNL     1      -5.752  -7.168   1.237  0.00  0.00    -0.302 N 
ATOM      3  H   UNL     1      -5.407  -8.025   1.534  0.00  0.00    +0.171 HD
ATOM      4  C   UNL     1      -7.053  -7.045   0.901  0.00  0.00    +0.258 A 
ATOM      5  O   UNL     1      -7.805  -8.005   0.964  0.00  0.00    -0.267 OA
ATOM      6  C   UNL     1      -7.525  -5.797   0.480  0.00  0.00    +0.069 A 
ATOM      7  C   UNL     1      -6.641  -4.733   0.423  0.00  0.00    +0.135 A 
ATOM      8  N   UNL     1      -5.361  -4.912   0.770  0.00  0.00    -0.208 NA
ATOM      9  N   UNL     1      -7.089  -3.492   0.018  0.00  0.00    -0.302 N 
ATOM     10  C   UNL     1      -8.423  -3.189   0.044  0.00  0.00    +0.017 C 
ATOM     11  C   UNL     1      -9.355  -4.165   0.087  0.00  0.00    +0.024 C 
ATOM     12  C   UNL     1      -8.963  -5.620   0.094  0.00  0.00    +0.096 C 
ATOM     13  C   UNL     1     -10.726  -3.854   0.130  0.00  0.00    +0.162 C 
ATOM     14  O   UNL     1     -11.540  -4.756   0.161  0.00  0.00    -0.292 OA
ATOM     15  C   UNL     1     -11.205  -2.429   0.138  0.00  0.00    +0.086 C 
ATOM     16  C   UNL     1     -10.133  -1.546   0.785  0.00  0.00    -0.023 C 
ATOM     17  C   UNL     1      -8.823  -1.734   0.017  0.00  0.00    +0.058 C 
ATOM     18  C   UNL     1      -9.936  -1.961   2.245  0.00  0.00    +0.011 C 
ATOM     19  C   UNL     1     -10.563  -0.080   0.717  0.00  0.00    +0.011 C 
ATOM     20  H   UNL     1      -6.452  -2.828  -0.289  0.00  0.00    +0.153 HD
ENDROOT
BRANCH  12  21
ATOM     21  C   UNL     1      -9.179  -6.195  -1.282  0.00  0.00    +0.010 A 
ATOM     22  C   UNL     1      -9.864  -7.387  -1.434  0.00  0.00    +0.008 A 
ATOM     23  C   UNL     1     -10.063  -7.917  -2.695  0.00  0.00    +0.004 A 
ATOM     24  C   UNL     1      -9.579  -7.258  -3.810  0.00  0.00    +0.049 A 
ATOM     25  C   UNL     1      -8.892  -6.064  -3.665  0.00  0.00    +0.162 A 
ATOM     26  C   UNL     1      -8.696  -5.527  -2.395  0.00  0.00    +0.166 A 
BRANCH  26  27
ATOM     27  O   UNL     1      -8.028  -4.352  -2.248  0.00  0.00    -0.491 OA
ATOM     28  C   UNL     1      -6.608  -4.389  -2.407  0.00  0.00    +0.277 C 
ENDBRANCH  26  27
BRANCH  25  29
ATOM     29  O   UNL     1      -8.415  -5.414  -4.760  0.00  0.00    -0.491 OA
ATOM     30  C   UNL     1      -8.658  -6.021  -6.031  0.00  0.00    +0.277 C 
ENDBRANCH  25  29
ENDBRANCH  12  21
BRANCH   1  31
ATOM     31  S   UNL     1      -3.225  -6.276   1.601  0.00  0.00    -0.088 S 
BRANCH  31  32
ATOM     32  C   UNL     1      -2.526  -4.620   1.359  0.00  0.00    +0.077 C 
BRANCH  32  33
ATOM     33  C   UNL     1      -1.037  -4.639   1.710  0.00  0.00    +0.011 C 
BRANCH  33  34
ATOM     34  C   UNL     1      -0.447  -3.242   1.505  0.00  0.00    +0.001 C 
BRANCH  34  36
ATOM     35  C   UNL     1       1.633  -1.865   1.652  0.00  0.00    +0.004 C 
ATOM     36  C   UNL     1       1.042  -3.261   1.857  0.00  0.00    -0.003 C 
ENDBRANCH  34  36
ENDBRANCH  33  34
ENDBRANCH  32  33
ENDBRANCH  31  32
ENDBRANCH   1  31
TORSDOF 8
