REMARK  Name = ZINC39583639
REMARK  6 active torsions:
REMARK  status: ('A' for Active; 'I' for Inactive)
REMARK    1  A    between atoms: C_1  and  C_2
REMARK    2  A    between atoms: C_5  and  C_8
REMARK    3  A    between atoms: C_12  and  S_22
REMARK    4  A    between atoms: N_14  and  C_15
REMARK    5  A    between atoms: S_22  and  C_23
REMARK    6  A    between atoms: C_23  and  C_24
REMARK                            x       y       z     vdW  Elec       q    Type
REMARK                         _______ _______ _______ _____ _____    ______ ____
ROOT
ATOM      1  C   UNL     1      -0.089  -4.103   0.001  0.00  0.00    +0.188 C 
ATOM      2  N   UNL     1      -0.864  -4.690  -1.116  0.00  0.00    -0.230 NA
ATOM      3  N   UNL     1      -1.260  -6.020  -0.628  0.00  0.00    -0.226 NA
ATOM      4  C   UNL     1      -1.552  -5.775   0.809  0.00  0.00    +0.218 C 
ATOM      5  N   UNL     1      -0.527  -4.795   1.226  0.00  0.00    -0.284 N 
ATOM      6  H   UNL     1      -1.673  -4.127  -1.329  0.00  0.00    +0.143 HD
ATOM      7  H   UNL     1      -2.080  -6.353  -1.112  0.00  0.00    +0.143 HD
ENDROOT
BRANCH   1  12
ATOM      8  C   UNL     1      -1.190   1.554   0.422  0.00  0.00    +0.044 C 
ATOM      9  C   UNL     1      -0.903   0.079   0.312  0.00  0.00    -0.050 A 
ATOM     10  C   UNL     1      -1.916  -0.840   0.515  0.00  0.00    +0.004 A 
ATOM     11  C   UNL     1      -1.653  -2.193   0.415  0.00  0.00    +0.007 A 
ATOM     12  C   UNL     1      -0.377  -2.628   0.110  0.00  0.00    -0.011 A 
ATOM     13  C   UNL     1       0.636  -1.709  -0.094  0.00  0.00    +0.007 A 
ATOM     14  C   UNL     1       0.372  -0.356   0.003  0.00  0.00    +0.004 A 
ENDBRANCH   1  12
BRANCH   5  15
ATOM     15  C   UNL     1      -0.066  -4.568   2.526  0.00  0.00    +0.033 A 
ATOM     16  C   UNL     1       0.991  -3.693   2.746  0.00  0.00    +0.024 A 
ATOM     17  C   UNL     1       1.444  -3.470   4.031  0.00  0.00    +0.022 A 
ATOM     18  C   UNL     1       0.848  -4.118   5.099  0.00  0.00    +0.041 A 
ATOM     19  C   UNL     1      -0.204  -4.990   4.882  0.00  0.00    +0.022 A 
ATOM     20  C   UNL     1      -0.666  -5.212   3.600  0.00  0.00    +0.024 A 
ATOM     21 CL   UNL     1       1.422  -3.836   6.713  0.00  0.00    -0.084 Cl
ENDBRANCH   5  15
BRANCH   4  22
ATOM     22  S   UNL     1      -1.389  -7.311   1.760  0.00  0.00    -0.114 S 
BRANCH  22  23
ATOM     23  C   UNL     1       0.324  -7.830   1.466  0.00  0.00    +0.146 C 
BRANCH  23  24
ATOM     24  C   UNL     1       0.595  -9.113   2.209  0.00  0.00    +0.118 A 
ATOM     25  N   UNL     1       0.413 -10.307   1.727  0.00  0.00    -0.232 NA
ATOM     26  C   UNL     1       0.754 -11.233   2.659  0.00  0.00    +0.089 A 
ATOM     27  C   UNL     1       0.756 -12.630   2.674  0.00  0.00    +0.030 A 
ATOM     28  C   UNL     1       1.168 -13.298   3.793  0.00  0.00    +0.002 A 
ATOM     29  C   UNL     1       1.586 -12.604   4.919  0.00  0.00    +0.002 A 
ATOM     30  C   UNL     1       1.592 -11.225   4.927  0.00  0.00    +0.028 A 
ATOM     31  C   UNL     1       1.178 -10.529   3.799  0.00  0.00    +0.066 A 
ATOM     32  N   UNL     1       1.071  -9.190   3.482  0.00  0.00    -0.341 N 
ATOM     33  H   UNL     1       1.291  -8.442   4.059  0.00  0.00    +0.167 HD
ENDBRANCH  23  24
ENDBRANCH  22  23
ENDBRANCH   4  22
TORSDOF 5
