REMARK  Name = ZINC39696222
REMARK  9 active torsions:
REMARK  status: ('A' for Active; 'I' for Inactive)
REMARK    1  A    between atoms: C_1  and  C_2
REMARK    2  A    between atoms: C_2  and  C_3
REMARK    3  A    between atoms: C_6  and  C_9
REMARK    4  A    between atoms: C_9  and  C_11
REMARK    5  A    between atoms: C_9  and  N_12
REMARK    6  A    between atoms: C_13  and  C_15
REMARK    7  A    between atoms: C_26  and  C_28
REMARK    8  A    between atoms: C_30  and  C_37
REMARK    9  A    between atoms: C_32  and  C_33
REMARK                            x       y       z     vdW  Elec       q    Type
REMARK                         _______ _______ _______ _____ _____    ______ ____
ROOT
ATOM      1  C   UNL     1      -6.630  -5.015  -2.024  0.00  0.00    +0.100 C 
ATOM      2  C   UNL     1      -7.206  -4.334  -3.285  0.00  0.00    +0.121 C 
ATOM      3  N   UNL     1      -8.125  -5.341  -3.868  0.00  0.00    -0.296 N 
ATOM      4  C   UNL     1      -8.789  -5.956  -2.694  0.00  0.00    +0.115 C 
ATOM      5  C   UNL     1      -7.672  -6.078  -1.638  0.00  0.00    -0.004 C 
ATOM      6  C   UNL     1      -8.229  -5.792  -0.247  0.00  0.00    -0.010 C 
ATOM      7  C   UNL     1      -9.219  -6.895   0.138  0.00  0.00    -0.082 C 
ATOM      8  N   UNL     1      -8.539  -8.195   0.120  0.00  0.00    +0.379 N 
ATOM      9  C   UNL     1      -8.088  -8.505  -1.242  0.00  0.00    -0.082 C 
ATOM     10  C   UNL     1      -7.049  -7.470  -1.686  0.00  0.00    -0.010 C 
ATOM     11  C   UNL     1      -8.313  -5.632  -5.170  0.00  0.00    +0.250 C 
ATOM     12  O   UNL     1      -7.607  -5.118  -6.016  0.00  0.00    -0.270 OA
ATOM     13  H   UNL     1      -7.741  -8.165   0.738  0.00  0.00    -0.086 HD
ATOM     14  H   UNL     1      -9.176  -8.912   0.432  0.00  0.00    -0.086 HD
ENDROOT
BRANCH  11  15
ATOM     15  C   UNL     1      -9.376  -6.572  -5.569  0.00  0.00    +0.087 A 
ATOM     16  C   UNL     1     -10.406  -7.166  -4.706  0.00  0.00    +0.058 A 
ATOM     17  C   UNL     1     -11.146  -7.952  -5.502  0.00  0.00    +0.103 A 
ATOM     18  O   UNL     1     -10.664  -7.889  -6.753  0.00  0.00    -0.455 OA
ATOM     19  C   UNL     1      -9.612  -7.068  -6.818  0.00  0.00    +0.220 A 
ATOM     20  C   UNL     1     -12.330  -8.775  -5.063  0.00  0.00    +0.086 C 
BRANCH  19  21
ATOM     21  C   UNL     1      -8.818  -6.747  -8.058  0.00  0.00    +0.451 C 
ATOM     22  F   UNL     1      -7.769  -7.663  -8.191  0.00  0.00    -0.163 F 
ATOM     23  F   UNL     1      -9.652  -6.828  -9.179  0.00  0.00    -0.163 F 
ATOM     24  F   UNL     1      -8.297  -5.453  -7.957  0.00  0.00    -0.163 F 
ENDBRANCH  19  21
ENDBRANCH  11  15
BRANCH   1  26
ATOM     25  N   UNL     1      -5.625  -4.261   0.107  0.00  0.00    -0.308 N 
ATOM     26  C   UNL     1      -6.470  -4.010  -0.912  0.00  0.00    +0.219 C 
ATOM     27  O   UNL     1      -7.101  -2.974  -0.935  0.00  0.00    -0.275 OA
ATOM     28  H   UNL     1      -5.120  -5.089   0.126  0.00  0.00    +0.149 HD
BRANCH  25  29
ATOM     29  C   UNL     1      -5.470  -3.284   1.188  0.00  0.00    +0.100 C 
ATOM     30  C   UNL     1      -4.433  -2.235   0.781  0.00  0.00    +0.033 C 
BRANCH  29  34
ATOM     31  C   UNL     1      -4.164  -5.279   4.732  0.00  0.00    -0.048 A 
ATOM     32  C   UNL     1      -5.103  -4.268   4.814  0.00  0.00    +0.004 A 
ATOM     33  C   UNL     1      -5.526  -3.622   3.667  0.00  0.00    +0.006 A 
ATOM     34  C   UNL     1      -5.009  -3.987   2.438  0.00  0.00    -0.027 A 
ATOM     35  C   UNL     1      -4.069  -4.998   2.357  0.00  0.00    +0.006 A 
ATOM     36  C   UNL     1      -3.643  -5.641   3.504  0.00  0.00    +0.004 A 
BRANCH  31  38
ATOM     37  C   UNL     1      -2.495  -5.248   6.566  0.00  0.00    +0.009 C 
ATOM     38  C   UNL     1      -3.704  -5.983   5.983  0.00  0.00    +0.032 C 
ENDBRANCH  31  38
ENDBRANCH  29  34
ENDBRANCH  25  29
ENDBRANCH   1  26
TORSDOF 6
