REMARK  Name = ZINC63796309
REMARK  8 active torsions:
REMARK  status: ('A' for Active; 'I' for Inactive)
REMARK    1  A    between atoms: C_4  and  C_7
REMARK    2  A    between atoms: C_7  and  N_8
REMARK    3  A    between atoms: C_9  and  C_11
REMARK    4  A    between atoms: C_11  and  C_13
REMARK    5  A    between atoms: C_11  and  N_23
REMARK    6  A    between atoms: C_13  and  C_14
REMARK    7  A    between atoms: N_23  and  S_24
REMARK    8  A    between atoms: S_24  and  C_27
REMARK                            x       y       z     vdW  Elec       q    Type
REMARK                         _______ _______ _______ _____ _____    ______ ____
ROOT
ATOM      1  C   UNL     1       5.543  -1.718   2.825  0.00  0.00    +0.166 C 
ENDROOT
BRANCH   1   3
ATOM      2  N   UNL     1       3.968  -0.685   1.222  0.00  0.00    -0.310 N 
ATOM      3  C   UNL     1       5.139  -1.321   1.429  0.00  0.00    +0.232 C 
ATOM      4  O   UNL     1       5.866  -1.573   0.492  0.00  0.00    -0.274 OA
ATOM      5  H   UNL     1       3.387  -0.483   1.971  0.00  0.00    +0.149 HD
BRANCH   2   6
ATOM      6  C   UNL     1       3.575  -0.298  -0.135  0.00  0.00    +0.139 C 
BRANCH   6  10
ATOM      7  C   UNL     1      -0.221   1.658  -0.018  0.00  0.00    +0.000 A 
ATOM      8  C   UNL     1       0.942   2.396   0.106  0.00  0.00    +0.000 A 
ATOM      9  C   UNL     1       2.170   1.763   0.068  0.00  0.00    +0.005 A 
ATOM     10  C   UNL     1       2.236   0.392  -0.093  0.00  0.00    -0.030 A 
ATOM     11  C   UNL     1       1.074  -0.347  -0.215  0.00  0.00    +0.005 A 
ATOM     12  C   UNL     1      -0.154   0.287  -0.179  0.00  0.00    +0.000 A 
ENDBRANCH   6  10
ENDBRANCH   2   6
ENDBRANCH   1   3
BRANCH   1  13
ATOM     13  N   UNL     1       6.845  -2.389   2.784  0.00  0.00    -0.178 NA
ATOM     14  H   UNL     1       6.895  -3.339   2.595  0.00  0.00    +0.149 HD
BRANCH  13  15
ATOM     15  S   UNL     1       8.231  -1.525   3.059  0.00  0.00    +0.059 S 
ATOM     16  O   UNL     1       9.307  -2.450   2.990  0.00  0.00    -0.153 OA
ATOM     17  O   UNL     1       8.162  -0.373   2.231  0.00  0.00    -0.153 OA
BRANCH  15  18
ATOM     18  C   UNL     1       8.165  -0.953   4.724  0.00  0.00    +0.105 A 
ATOM     19  C   UNL     1       7.508   0.226   5.025  0.00  0.00    +0.030 A 
ATOM     20  C   UNL     1       7.456   0.675   6.331  0.00  0.00    +0.022 A 
ATOM     21  C   UNL     1       8.063  -0.054   7.338  0.00  0.00    +0.041 A 
ATOM     22  C   UNL     1       8.721  -1.234   7.037  0.00  0.00    +0.022 A 
ATOM     23  C   UNL     1       8.767  -1.685   5.731  0.00  0.00    +0.030 A 
ATOM     24 CL   UNL     1       7.999   0.510   8.978  0.00  0.00    -0.084 Cl
ENDBRANCH  15  18
ENDBRANCH  13  15
ENDBRANCH   1  13
BRANCH   1  25
ATOM     25  C   UNL     1       4.497  -2.670   3.408  0.00  0.00    +0.063 C 
BRANCH  25  26
ATOM     26  C   UNL     1       4.831  -2.964   4.848  0.00  0.00    -0.040 C 
ATOM     27  C   UNL     1       4.348  -2.329   5.940  0.00  0.00    -0.001 A 
ATOM     28  C   UNL     1       3.405  -1.218   6.108  0.00  0.00    +0.010 A 
ATOM     29  C   UNL     1       3.110  -0.791   7.357  0.00  0.00    +0.001 A 
ATOM     30  C   UNL     1       3.682  -1.382   8.492  0.00  0.00    +0.002 A 
ATOM     31  C   UNL     1       4.557  -2.407   8.418  0.00  0.00    +0.026 A 
ATOM     32  C   UNL     1       4.939  -2.936   7.154  0.00  0.00    +0.043 A 
ATOM     33  N   UNL     1       5.755  -3.908   6.826  0.00  0.00    -0.380 N 
ATOM     34  C   UNL     1       5.770  -4.032   5.364  0.00  0.00    +0.144 C 
ATOM     35  H   UNL     1       6.261  -4.457   7.445  0.00  0.00    +0.160 HD
ENDBRANCH  25  26
ENDBRANCH   1  25
TORSDOF 8
