REMARK  Name = ZINC63733823
REMARK  8 active torsions:
REMARK  status: ('A' for Active; 'I' for Inactive)
REMARK    1  A    between atoms: C_1  and  C_2
REMARK    2  A    between atoms: C_5  and  C_26
REMARK    3  A    between atoms: C_8  and  C_25
REMARK    4  A    between atoms: C_9  and  C_11
REMARK    5  A    between atoms: N_13  and  C_14
REMARK    6  A    between atoms: C_14  and  C_15
REMARK    7  A    between atoms: C_15  and  C_16
REMARK    8  A    between atoms: C_15  and  O_24
REMARK                            x       y       z     vdW  Elec       q    Type
REMARK                         _______ _______ _______ _____ _____    ______ ____
ROOT
ATOM      1  C   UNL     1       0.068  -1.578   4.791  0.00  0.00    +0.280 C 
ATOM      2  O   UNL     1       0.061  -0.566   5.466  0.00  0.00    -0.267 OA
ATOM      3  N   UNL     1       0.090  -2.786   5.388  0.00  0.00    -0.306 N 
ATOM      4  H   UNL     1       0.096  -3.593   4.850  0.00  0.00    +0.149 HD
ENDROOT
BRANCH   1  13
ATOM      5  C   UNL     1      -0.018   1.503   0.010  0.00  0.00    +0.044 C 
ATOM      6  C   UNL     1       0.002  -0.004   0.002  0.00  0.00    -0.039 A 
ATOM      7  C   UNL     1       0.006  -0.684  -1.183  0.00  0.00    +0.004 A 
ATOM      8  C   UNL     1       0.025  -2.072  -1.198  0.00  0.00    +0.007 A 
ATOM      9  C   UNL     1       0.041  -2.789  -0.021  0.00  0.00    -0.008 A 
ATOM     10  C   UNL     1       0.037  -2.119   1.197  0.00  0.00    +0.139 A 
ATOM     11  C   UNL     1       0.023  -0.712   1.206  0.00  0.00    +0.027 A 
ATOM     12  C   UNL     1       0.030  -0.325   2.616  0.00  0.00    +0.008 A 
ATOM     13  C   UNL     1       0.053  -1.483   3.324  0.00  0.00    +0.193 A 
ATOM     14  O   UNL     1       0.049  -2.535   2.478  0.00  0.00    -0.450 OA
ATOM     15  C   UNL     1       0.016   1.076   3.171  0.00  0.00    +0.048 C 
ATOM     16  C   UNL     1       0.061  -4.295  -0.055  0.00  0.00    +0.047 C 
ENDBRANCH   1  13
BRANCH   3  17
ATOM     17  C   UNL     1       0.105  -2.880   6.850  0.00  0.00    +0.140 C 
BRANCH  17  18
ATOM     18  C   UNL     1       0.129  -4.353   7.266  0.00  0.00    +0.162 C 
BRANCH  18  19
ATOM     19  C   UNL     1       0.145  -4.450   8.770  0.00  0.00    -0.015 A 
ATOM     20  C   UNL     1      -1.043  -4.412   9.476  0.00  0.00    +0.009 A 
ATOM     21  C   UNL     1      -1.031  -4.501  10.855  0.00  0.00    +0.041 A 
ATOM     22  C   UNL     1       0.171  -4.628  11.531  0.00  0.00    +0.158 A 
ATOM     23  C   UNL     1       1.361  -4.666  10.822  0.00  0.00    +0.159 A 
ATOM     24  C   UNL     1       1.346  -4.582   9.440  0.00  0.00    +0.047 A 
ATOM     25  F   UNL     1       2.536  -4.790  11.479  0.00  0.00    -0.202 F 
ATOM     26  F   UNL     1       0.183  -4.715  12.879  0.00  0.00    -0.202 F 
ENDBRANCH  18  19
BRANCH  18  27
ATOM     27  O   UNL     1      -1.034  -5.010   6.758  0.00  0.00    -0.386 OA
ATOM     28  H   UNL     1      -1.867  -4.637   7.077  0.00  0.00    +0.210 HD
ENDBRANCH  18  27
ENDBRANCH  17  18
ENDBRANCH   3  17
TORSDOF 5
