REMARK  Name = ZINC09461501
REMARK  6 active torsions:
REMARK  status: ('A' for Active; 'I' for Inactive)
REMARK    1  A    between atoms: C_1  and  C_2
REMARK    2  A    between atoms: N_8  and  C_9
REMARK    3  A    between atoms: C_9  and  C_10
REMARK    4  A    between atoms: C_19  and  C_27
REMARK    5  A    between atoms: C_21  and  C_25
REMARK    6  A    between atoms: C_22  and  N_24
REMARK                            x       y       z     vdW  Elec       q    Type
REMARK                         _______ _______ _______ _____ _____    ______ ____
ROOT
ATOM      1  C   UNL     1      -5.502   0.251   1.261  0.00  0.00    +0.064 C 
ATOM      2  C   UNL     1      -4.995   1.441   2.033  0.00  0.00    +0.023 A 
ATOM      3  C   UNL     1      -5.544   1.741   3.230  0.00  0.00    +0.068 A 
ATOM      4  C   UNL     1      -5.078   2.858   3.954  0.00  0.00    +0.141 A 
ATOM      5  C   UNL     1      -4.060   3.621   3.423  0.00  0.00    +0.072 A 
ATOM      6  C   UNL     1      -3.516   3.268   2.181  0.00  0.00    +0.259 A 
ATOM      7  O   UNL     1      -2.614   3.934   1.698  0.00  0.00    -0.267 OA
ATOM      8  N   UNL     1      -3.988   2.195   1.519  0.00  0.00    -0.308 N 
ATOM      9  C   UNL     1      -3.533   4.821   4.161  0.00  0.00    +0.106 C 
ATOM     10  C   UNL     1      -3.965   4.774   5.600  0.00  0.00    +0.098 C 
ATOM     11  C   UNL     1      -4.971   3.964   6.005  0.00  0.00    +0.199 C 
ATOM     12  O   UNL     1      -5.629   3.164   5.148  0.00  0.00    -0.441 OA
ENDROOT
BRANCH   9  13
ATOM     13  C   UNL     1      -4.066   6.076   3.519  0.00  0.00    +0.002 A 
ATOM     14  C   UNL     1      -5.430   6.291   3.450  0.00  0.00    +0.046 A 
ATOM     15  C   UNL     1      -5.919   7.446   2.865  0.00  0.00    +0.020 A 
ATOM     16  C   UNL     1      -5.045   8.380   2.342  0.00  0.00    +0.003 A 
ATOM     17  C   UNL     1      -3.681   8.162   2.406  0.00  0.00    +0.020 A 
ATOM     18  C   UNL     1      -3.191   7.010   2.994  0.00  0.00    +0.046 A 
ATOM     19 CL   UNL     1      -1.478   6.737   3.075  0.00  0.00    -0.083 Cl
ATOM     20 CL   UNL     1      -6.529   5.116   4.102  0.00  0.00    -0.083 Cl
ENDBRANCH   9  13
BRANCH  11  21
ATOM     21  N   UNL     1      -5.330   3.958   7.330  0.00  0.00    -0.328 N 
ATOM     22  H   UNL     1      -6.049   3.383   7.636  0.00  0.00    +0.145 HD
ATOM     23  H   UNL     1      -4.864   4.530   7.961  0.00  0.00    +0.145 HD
ENDBRANCH  11  21
BRANCH  10  24
ATOM     24  C   UNL     1      -3.300   5.603   6.560  0.00  0.00    +0.101 C 
ATOM     25  N   UNL     1      -2.773   6.260   7.322  0.00  0.00    -0.191 NA
ENDBRANCH  10  24
BRANCH   8  26
ATOM     26  C   UNL     1      -3.410   1.837   0.221  0.00  0.00    +0.160 C 
BRANCH  26  27
ATOM     27  C   UNL     1      -2.205   0.957   0.433  0.00  0.00    -0.024 A 
ATOM     28  C   UNL     1      -2.355  -0.417   0.485  0.00  0.00    +0.009 A 
ATOM     29  C   UNL     1      -1.253  -1.228   0.680  0.00  0.00    +0.050 A 
ATOM     30  C   UNL     1       0.005  -0.666   0.824  0.00  0.00    +0.166 A 
ATOM     31  C   UNL     1       0.156   0.717   0.770  0.00  0.00    +0.167 A 
ATOM     32  C   UNL     1      -0.952   1.524   0.570  0.00  0.00    +0.055 A 
ATOM     33  O   UNL     1       1.477   1.019   0.936  0.00  0.00    -0.453 OA
ATOM     34  C   UNL     1       2.074  -0.165   1.497  0.00  0.00    +0.466 C 
ATOM     35  O   UNL     1       1.232  -1.232   1.022  0.00  0.00    -0.453 OA
ENDBRANCH  26  27
ENDBRANCH   8  26
TORSDOF 5
