REMARK  Name = ZINC09089258
REMARK  10 active torsions:
REMARK  status: ('A' for Active; 'I' for Inactive)
REMARK    1  A    between atoms: C_1  and  C_2
REMARK    2  A    between atoms: C_7  and  O_8
REMARK    3  A    between atoms: O_8  and  C_9
REMARK    4  A    between atoms: C_9  and  C_10
REMARK    5  A    between atoms: C_10  and  C_12
REMARK    6  A    between atoms: C_10  and  O_38
REMARK    7  A    between atoms: C_12  and  N_13
REMARK    8  A    between atoms: C_21  and  C_24
REMARK    9  A    between atoms: C_24  and  C_25
REMARK   10  A    between atoms: N_31  and  C_37
REMARK                            x       y       z     vdW  Elec       q    Type
REMARK                         _______ _______ _______ _____ _____    ______ ____
ROOT
ATOM      1  N   UNL     1       0.892   3.405   0.012  0.00  0.00    -0.304 N 
ATOM      2  C   UNL     1       1.199   2.052  -0.003  0.00  0.00    +0.153 A 
ATOM      3  C   UNL     1      -0.021   1.374   0.007  0.00  0.00    +0.170 A 
ATOM      4  N   UNL     1      -0.990   2.292   0.021  0.00  0.00    -0.196 NA
ATOM      5  C   UNL     1      -0.465   3.500   0.030  0.00  0.00    +0.201 A 
ATOM      6  N   UNL     1      -1.179   4.676   0.049  0.00  0.00    -0.301 N 
ATOM      7  C   UNL     1      -1.852   4.862   1.340  0.00  0.00    +0.108 C 
ATOM      8  C   UNL     1      -2.513   6.242   1.378  0.00  0.00    +0.023 C 
ATOM      9  C   UNL     1      -3.525   6.348   0.234  0.00  0.00    -0.004 C 
ATOM     10  C   UNL     1      -2.808   6.102  -1.096  0.00  0.00    +0.023 C 
ATOM     11  C   UNL     1      -2.138   4.726  -1.062  0.00  0.00    +0.108 C 
ATOM     12  N   UNL     1      -0.008  -0.004  -0.005  0.00  0.00    -0.280 N 
ATOM     13  C   UNL     1       1.168  -0.660  -0.025  0.00  0.00    +0.331 A 
ATOM     14  O   UNL     1       1.166  -1.880  -0.036  0.00  0.00    -0.246 OA
ATOM     15  N   UNL     1       2.330  -0.014  -0.034  0.00  0.00    -0.273 N 
ATOM     16  C   UNL     1       2.386   1.313  -0.024  0.00  0.00    +0.280 A 
ATOM     17  O   UNL     1       3.582   1.945  -0.033  0.00  0.00    -0.265 OA
ATOM     18  C   UNL     1      -1.268  -0.751   0.005  0.00  0.00    +0.155 C 
ATOM     19  H   UNL     1       3.181  -0.539  -0.049  0.00  0.00    +0.173 HD
ENDROOT
BRANCH   1  20
ATOM     20  C   UNL     1       1.845   4.517   0.009  0.00  0.00    +0.160 C 
BRANCH  20  21
ATOM     21  C   UNL     1       2.259   4.830  -1.430  0.00  0.00    +0.172 C 
BRANCH  21  22
ATOM     22  O   UNL     1       1.125   5.303  -2.160  0.00  0.00    -0.387 OA
ATOM     23  H   UNL     1       0.730   6.106  -1.795  0.00  0.00    +0.210 HD
ENDBRANCH  21  22
BRANCH  21  24
ATOM     24  C   UNL     1       3.347   5.906  -1.425  0.00  0.00    +0.262 C 
BRANCH  24  25
ATOM     25  O   UNL     1       3.816   6.115  -2.759  0.00  0.00    -0.489 OA
BRANCH  25  32
ATOM     26  C   UNL     1       4.757   6.544  -5.388  0.00  0.00    +0.047 C 
ATOM     27  C   UNL     1       5.293   7.300  -4.200  0.00  0.00    -0.009 A 
ATOM     28  C   UNL     1       6.284   8.246  -4.372  0.00  0.00    +0.007 A 
ATOM     29  C   UNL     1       6.776   8.940  -3.283  0.00  0.00    +0.000 A 
ATOM     30  C   UNL     1       6.277   8.689  -2.017  0.00  0.00    +0.004 A 
ATOM     31  C   UNL     1       5.283   7.748  -1.840  0.00  0.00    +0.046 A 
ATOM     32  C   UNL     1       4.791   7.046  -2.932  0.00  0.00    +0.124 A 
ENDBRANCH  25  32
ENDBRANCH  24  25
ENDBRANCH  21  24
ENDBRANCH  20  21
ENDBRANCH   1  20
BRANCH   9  33
ATOM     33  C   UNL     1      -4.147   7.746   0.228  0.00  0.00    +0.038 C 
BRANCH  33  34
ATOM     34  C   UNL     1      -4.955   7.941   1.485  0.00  0.00    -0.047 A 
ATOM     35  C   UNL     1      -6.296   7.603   1.505  0.00  0.00    +0.003 A 
ATOM     36  C   UNL     1      -7.036   7.778   2.659  0.00  0.00    +0.000 A 
ATOM     37  C   UNL     1      -6.438   8.301   3.791  0.00  0.00    +0.000 A 
ATOM     38  C   UNL     1      -5.099   8.643   3.770  0.00  0.00    +0.000 A 
ATOM     39  C   UNL     1      -4.358   8.464   2.617  0.00  0.00    +0.003 A 
ENDBRANCH  33  34
ENDBRANCH   9  33
TORSDOF 8
