REMARK  Name = ZINC38886893
REMARK  8 active torsions:
REMARK  status: ('A' for Active; 'I' for Inactive)
REMARK    1  A    between atoms: C_1  and  C_2
REMARK    2  A    between atoms: C_7  and  C_8
REMARK    3  A    between atoms: C_10  and  C_13
REMARK    4  A    between atoms: C_13  and  N_14
REMARK    5  A    between atoms: C_18  and  C_21
REMARK    6  A    between atoms: N_26  and  C_29
REMARK    7  A    between atoms: C_29  and  C_30
REMARK    8  A    between atoms: C_29  and  C_36
REMARK                            x       y       z     vdW  Elec       q    Type
REMARK                         _______ _______ _______ _____ _____    ______ ____
ROOT
ATOM      1  C   UNL     1       4.107  -0.462   9.395  0.00  0.00    +0.217 C 
ATOM      2  O   UNL     1       3.199  -0.932  10.048  0.00  0.00    -0.275 OA
ATOM      3  N   UNL     1       5.270  -0.138   9.994  0.00  0.00    -0.299 N 
ATOM      4  C   UNL     1       6.417   0.341   9.207  0.00  0.00    +0.123 C 
ATOM      5  C   UNL     1       7.648  -0.489   9.586  0.00  0.00    +0.104 C 
ATOM      6  N   UNL     1       7.834  -0.447  11.042  0.00  0.00    -0.289 NA
ATOM      7  C   UNL     1       6.697  -1.061  11.742  0.00  0.00    +0.104 C 
ATOM      8  C   UNL     1       5.425  -0.249  11.453  0.00  0.00    +0.123 C 
ENDROOT
BRANCH   1  13
ATOM      9  N   UNL     1       2.296   0.279   6.168  0.00  0.00    +0.386 N 
ATOM     10  C   UNL     1       2.630  -0.950   5.439  0.00  0.00    -0.078 C 
ATOM     11  C   UNL     1       4.105  -1.294   5.660  0.00  0.00    -0.018 C 
ATOM     12  C   UNL     1       4.356  -1.502   7.156  0.00  0.00    +0.009 C 
ATOM     13  C   UNL     1       3.935  -0.240   7.915  0.00  0.00    +0.059 C 
ATOM     14  C   UNL     1       2.466   0.065   7.610  0.00  0.00    -0.065 C 
ATOM     15  H   UNL     1       2.906   1.024   5.866  0.00  0.00    -0.081 HD
BRANCH   9  16
ATOM     16  C   UNL     1       0.901   0.647   5.891  0.00  0.00    +0.022 C 
BRANCH  16  19
ATOM     17  C   UNL     1       0.402   0.788   2.299  0.00  0.00    +0.202 A 
ATOM     18  N   UNL     1       0.452   0.148   3.480  0.00  0.00    -0.193 NA
ATOM     19  C   UNL     1       0.752   0.987   4.430  0.00  0.00    +0.211 A 
ATOM     20  O   UNL     1       0.906   2.203   3.890  0.00  0.00    -0.340 OA
ATOM     21  N   UNL     1       0.679   2.054   2.496  0.00  0.00    -0.056 NA
BRANCH  17  28
ATOM     22  C   UNL     1      -1.480   2.068   0.513  0.00  0.00    +0.044 C 
ATOM     23  C   UNL     1      -0.814   0.774   0.122  0.00  0.00    -0.040 A 
ATOM     24  C   UNL     1      -1.095   0.193  -1.098  0.00  0.00    +0.004 A 
ATOM     25  C   UNL     1      -0.486  -0.995  -1.458  0.00  0.00    +0.000 A 
ATOM     26  C   UNL     1       0.409  -1.607  -0.599  0.00  0.00    +0.001 A 
ATOM     27  C   UNL     1       0.698  -1.035   0.623  0.00  0.00    +0.012 A 
ATOM     28  C   UNL     1       0.091   0.165   0.988  0.00  0.00    +0.025 A 
ENDBRANCH  17  28
ENDBRANCH  16  19
ENDBRANCH   9  16
ENDBRANCH   1  13
BRANCH   6  29
ATOM     29  C   UNL     1       9.098  -1.086  11.430  0.00  0.00    +0.117 C 
BRANCH  29  30
ATOM     30  C   UNL     1      10.245  -0.385  10.749  0.00  0.00    -0.026 A 
ATOM     31  C   UNL     1      10.306   0.996  10.742  0.00  0.00    +0.005 A 
ATOM     32  C   UNL     1      11.358   1.639  10.117  0.00  0.00    +0.000 A 
ATOM     33  C   UNL     1      12.349   0.901   9.498  0.00  0.00    +0.000 A 
ATOM     34  C   UNL     1      12.289  -0.480   9.505  0.00  0.00    +0.000 A 
ATOM     35  C   UNL     1      11.239  -1.123  10.134  0.00  0.00    +0.005 A 
ENDBRANCH  29  30
BRANCH  29  36
ATOM     36  C   UNL     1       9.270  -0.994  12.925  0.00  0.00    -0.026 A 
ATOM     37  C   UNL     1       8.936   0.172  13.588  0.00  0.00    +0.005 A 
ATOM     38  C   UNL     1       9.094   0.257  14.959  0.00  0.00    +0.000 A 
ATOM     39  C   UNL     1       9.585  -0.825  15.666  0.00  0.00    +0.000 A 
ATOM     40  C   UNL     1       9.917  -1.991  15.003  0.00  0.00    +0.000 A 
ATOM     41  C   UNL     1       9.756  -2.077  13.633  0.00  0.00    +0.005 A 
ENDBRANCH  29  36
ENDBRANCH   6  29
TORSDOF 7
