REMARK  Name = ZINC02638705
REMARK  7 active torsions:
REMARK  status: ('A' for Active; 'I' for Inactive)
REMARK    1  A    between atoms: C_1  and  C_2
REMARK    2  A    between atoms: C_9  and  N_13
REMARK    3  A    between atoms: C_10  and  C_11
REMARK    4  A    between atoms: C_14  and  C_16
REMARK    5  A    between atoms: C_16  and  N_57
REMARK    6  A    between atoms: N_19  and  S_22
REMARK    7  A    between atoms: S_22  and  C_25
REMARK                            x       y       z     vdW  Elec       q    Type
REMARK                         _______ _______ _______ _____ _____    ______ ____
ROOT
ATOM      1  C   UNL     1       2.976   5.417   0.002  0.00  0.00    +0.019 C 
ENDROOT
BRANCH   1   7
ATOM      2  C   UNL     1       5.048   5.179   1.231  0.00  0.00    -0.061 C 
ATOM      3  C   UNL     1       6.572   5.281   1.106  0.00  0.00    +0.091 C 
ATOM      4  N   UNL     1       6.919   6.659   0.725  0.00  0.00    -0.180 NA
ATOM      5  C   UNL     1       6.232   7.255  -0.430  0.00  0.00    +0.091 C 
ATOM      6  C   UNL     1       4.722   7.076  -0.244  0.00  0.00    -0.061 C 
ATOM      7  N   UNL     1       4.436   5.640  -0.034  0.00  0.00    +0.387 N 
ATOM      8  H   UNL     1       4.837   5.104  -0.812  0.00  0.00    -0.081 HD
BRANCH   4   9
ATOM      9  S   UNL     1       8.054   7.515   1.575  0.00  0.00    +0.061 S 
ATOM     10  O   UNL     1       8.894   6.559   2.208  0.00  0.00    -0.153 OA
ATOM     11  O   UNL     1       8.559   8.507   0.692  0.00  0.00    -0.153 OA
BRANCH   9  12
ATOM     12  C   UNL     1       7.205   8.370   2.861  0.00  0.00    +0.106 A 
ATOM     13  C   UNL     1       6.716   9.644   2.639  0.00  0.00    +0.030 A 
ATOM     14  C   UNL     1       6.046  10.312   3.646  0.00  0.00    +0.022 A 
ATOM     15  C   UNL     1       5.874   9.711   4.880  0.00  0.00    +0.041 A 
ATOM     16  C   UNL     1       6.369   8.438   5.104  0.00  0.00    +0.022 A 
ATOM     17  C   UNL     1       7.034   7.769   4.094  0.00  0.00    +0.030 A 
ATOM     18 CL   UNL     1       5.038  10.553   6.147  0.00  0.00    -0.084 Cl
ENDBRANCH   9  12
ENDBRANCH   4   9
ENDBRANCH   1   7
BRANCH   1  20
ATOM     19  N   UNL     1       1.446   3.473   0.007  0.00  0.00    -0.281 N 
ATOM     20  C   UNL     1       2.712   3.933  -0.003  0.00  0.00    +0.201 C 
ATOM     21  O   UNL     1       3.641   3.152  -0.016  0.00  0.00    -0.278 OA
ATOM     22  H   UNL     1       0.703   4.098   0.017  0.00  0.00    +0.155 HD
BRANCH  19  30
ATOM     23  C   UNL     1       0.500  -4.293  -0.119  0.00  0.00    +0.008 C 
ATOM     24  C   UNL     1       0.290  -2.802  -0.394  0.00  0.00    -0.009 C 
ATOM     25  C   UNL     1      -0.872  -2.282   0.457  0.00  0.00    +0.008 C 
ATOM     26  C   UNL     1      -1.252  -0.869   0.011  0.00  0.00    +0.037 C 
ATOM     27  C   UNL     1       0.002  -0.004   0.002  0.00  0.00    -0.018 A 
ATOM     28  C   UNL     1       1.233  -0.563  -0.013  0.00  0.00    -0.004 A 
ATOM     29  S   UNL     1       2.352   0.809  -0.016  0.00  0.00    -0.077 S 
ATOM     30  C   UNL     1       1.203   2.107   0.002  0.00  0.00    +0.090 A 
ATOM     31  C   UNL     1      -0.018   1.448   0.010  0.00  0.00    +0.084 A 
ATOM     32  C   UNL     1       1.561  -2.023  -0.025  0.00  0.00    +0.046 C 
BRANCH  31  33
ATOM     33  C   UNL     1      -1.252   2.174   0.020  0.00  0.00    +0.102 C 
ATOM     34  N   UNL     1      -2.232   2.749   0.028  0.00  0.00    -0.191 NA
ENDBRANCH  31  33
ENDBRANCH  19  30
ENDBRANCH   1  20
TORSDOF 6
