REMARK  Name = ZINC14273987
REMARK  10 active torsions:
REMARK  status: ('A' for Active; 'I' for Inactive)
REMARK    1  A    between atoms: C_1  and  C_2
REMARK    2  A    between atoms: C_2  and  C_3
REMARK    3  A    between atoms: C_9  and  C_11
REMARK    4  A    between atoms: C_14  and  C_17
REMARK    5  A    between atoms: C_17  and  N_18
REMARK    6  A    between atoms: N_18  and  C_19
REMARK    7  A    between atoms: C_19  and  N_21
REMARK    8  A    between atoms: C_22  and  C_24
REMARK    9  A    between atoms: C_24  and  C_25
REMARK   10  A    between atoms: C_24  and  C_31
REMARK                            x       y       z     vdW  Elec       q    Type
REMARK                         _______ _______ _______ _____ _____    ______ ____
ROOT
ATOM      1  N   UNL     1       0.138  -4.357  -2.033  0.00  0.00    -0.322 N 
ATOM      2  H   UNL     1       0.655  -4.677  -1.277  0.00  0.00    +0.148 HD
ENDROOT
BRANCH   1   3
ATOM      3  C   UNL     1      -0.264  -3.072  -2.079  0.00  0.00    +0.137 C 
ATOM      4  S   UNL     1      -1.177  -2.508  -3.413  0.00  0.00    -0.018 S 
BRANCH   3   5
ATOM      5  N   UNL     1       0.052  -2.231  -1.075  0.00  0.00    -0.267 N 
ATOM      6  C   UNL     1      -0.351  -0.945  -1.121  0.00  0.00    +0.230 C 
ATOM      7  O   UNL     1      -0.997  -0.546  -2.066  0.00  0.00    -0.274 OA
ATOM      8  H   UNL     1       0.569  -2.550  -0.319  0.00  0.00    +0.157 HD
BRANCH   6   9
ATOM      9  C   UNL     1       0.002  -0.004   0.002  0.00  0.00    +0.135 C 
BRANCH   9  10
ATOM     10  C   UNL     1      -0.562   1.362  -0.291  0.00  0.00    -0.031 A 
ATOM     11  C   UNL     1      -1.904   1.505  -0.594  0.00  0.00    +0.005 A 
ATOM     12  C   UNL     1      -2.423   2.759  -0.858  0.00  0.00    +0.000 A 
ATOM     13  C   UNL     1      -1.598   3.868  -0.829  0.00  0.00    +0.000 A 
ATOM     14  C   UNL     1      -0.256   3.724  -0.532  0.00  0.00    +0.000 A 
ATOM     15  C   UNL     1       0.262   2.471  -0.263  0.00  0.00    +0.005 A 
ENDBRANCH   9  10
BRANCH   9  16
ATOM     16  C   UNL     1      -0.579  -0.521   1.293  0.00  0.00    -0.031 A 
ATOM     17  C   UNL     1      -1.917  -0.863   1.360  0.00  0.00    +0.005 A 
ATOM     18  C   UNL     1      -2.449  -1.343   2.542  0.00  0.00    +0.000 A 
ATOM     19  C   UNL     1      -1.646  -1.470   3.660  0.00  0.00    +0.000 A 
ATOM     20  C   UNL     1      -0.309  -1.123   3.594  0.00  0.00    +0.000 A 
ATOM     21  C   UNL     1       0.224  -0.649   2.410  0.00  0.00    +0.005 A 
ENDBRANCH   9  16
ENDBRANCH   6   9
ENDBRANCH   3   5
ENDBRANCH   1   3
BRANCH   1  22
ATOM     22  C   UNL     1      -0.205  -5.272  -3.124  0.00  0.00    +0.138 C 
BRANCH  22  26
ATOM     23  C   UNL     1       1.397  -9.149  -2.293  0.00  0.00    +0.009 A 
ATOM     24  C   UNL     1       0.115  -8.813  -1.858  0.00  0.00    +0.011 A 
ATOM     25  C   UNL     1      -0.396  -7.560  -2.129  0.00  0.00    +0.006 A 
ATOM     26  C   UNL     1       0.360  -6.638  -2.831  0.00  0.00    -0.030 A 
ATOM     27  C   UNL     1       1.630  -6.968  -3.270  0.00  0.00    +0.006 A 
ATOM     28  C   UNL     1       2.154  -8.215  -3.000  0.00  0.00    +0.011 A 
BRANCH  23  35
ATOM     29  C   UNL     1       4.538 -13.150  -2.098  0.00  0.00    +0.155 A 
ATOM     30  N   UNL     1       4.214 -14.268  -1.510  0.00  0.00    -0.132 NA
ATOM     31  N   UNL     1       3.027 -14.179  -1.019  0.00  0.00    -0.120 NA
ATOM     32  C   UNL     1       2.542 -13.002  -1.272  0.00  0.00    +0.218 A 
ATOM     33  N   UNL     1       3.476 -12.278  -1.973  0.00  0.00    -0.190 N 
ATOM     34  N   UNL     1       3.119 -10.984  -2.329  0.00  0.00    -0.156 NA
ATOM     35  C   UNL     1       1.951 -10.491  -2.006  0.00  0.00    +0.132 A 
ATOM     36  S   UNL     1       1.199 -11.850  -1.124  0.00  0.00    -0.026 S 
BRANCH  29  38
ATOM     37  C   UNL     1       6.836 -12.271  -1.787  0.00  0.00    +0.012 C 
ATOM     38  C   UNL     1       5.844 -12.861  -2.792  0.00  0.00    +0.075 C 
ENDBRANCH  29  38
ENDBRANCH  23  35
ENDBRANCH  22  26
ENDBRANCH   1  22
TORSDOF 9
