REMARK  Name = ZINC03616296
REMARK  4 active torsions:
REMARK  status: ('A' for Active; 'I' for Inactive)
REMARK    1  A    between atoms: C_1  and  C_2
REMARK    2  A    between atoms: C_4  and  C_19
REMARK    3  A    between atoms: C_9  and  C_13
REMARK    4  A    between atoms: C_9  and  N_30
REMARK                            x       y       z     vdW  Elec       q    Type
REMARK                         _______ _______ _______ _____ _____    ______ ____
ROOT
ATOM      1  C   UNL     1       0.062   1.503   0.010  0.00  0.00    +0.044 C 
ATOM      2  C   UNL     1       0.040  -0.004   0.002  0.00  0.00    -0.047 A 
ATOM      3  C   UNL     1       0.033  -0.683  -1.207  0.00  0.00    +0.007 A 
ATOM      4  C   UNL     1       0.021  -2.061  -1.227  0.00  0.00    -0.036 A 
ATOM      5  C   UNL     1       0.008  -2.769  -0.024  0.00  0.00    +0.062 A 
ATOM      6  C   UNL     1       0.004  -2.081   1.201  0.00  0.00    +0.130 A 
ATOM      7  C   UNL     1       0.023  -0.693   1.198  0.00  0.00    +0.049 A 
ATOM      8  O   UNL     1      -0.020  -2.755   2.374  0.00  0.00    -0.499 OA
ATOM      9  C   UNL     1       0.438  -4.107   2.399  0.00  0.00    +0.132 C 
ATOM     10  C   UNL     1      -0.294  -4.912   1.314  0.00  0.00    +0.111 C 
ATOM     11  C   UNL     1       0.001  -4.242  -0.016  0.00  0.00    +0.169 C 
ATOM     12  O   UNL     1       0.219  -4.886  -1.020  0.00  0.00    -0.292 OA
ATOM     13  C   UNL     1       0.018  -2.800  -2.541  0.00  0.00    +0.044 C 
ENDROOT
BRANCH   9  14
ATOM     14  C   UNL     1       0.149  -4.719   3.771  0.00  0.00    +0.214 C 
ATOM     15 CL   UNL     1      -1.626  -4.680   4.085  0.00  0.00    -0.081 Cl
ATOM     16 CL   UNL     1       0.728  -6.426   3.801  0.00  0.00    -0.081 Cl
ATOM     17 CL   UNL     1       1.006  -3.772   5.044  0.00  0.00    -0.081 Cl
ENDBRANCH   9  14
BRANCH   9  20
ATOM     18  H   UNL     1       2.387  -3.615   2.841  0.00  0.00    -0.084 HD
ATOM     19  H   UNL     1       2.221  -5.089   2.090  0.00  0.00    -0.084 HD
ATOM     20  N   UNL     1       1.885  -4.128   2.119  0.00  0.00    +0.407 N 
ATOM     21  H   UNL     1       2.059  -3.684   1.209  0.00  0.00    -0.084 HD
ENDBRANCH   9  20
TORSDOF 2
