REMARK  Name = ZINC39676546
REMARK  10 active torsions:
REMARK  status: ('A' for Active; 'I' for Inactive)
REMARK    1  A    between atoms: C_1  and  C_2
REMARK    2  A    between atoms: C_6  and  C_8
REMARK    3  A    between atoms: C_12  and  C_21
REMARK    4  A    between atoms: N_23  and  C_24
REMARK    5  A    between atoms: C_24  and  C_25
REMARK    6  A    between atoms: C_24  and  C_33
REMARK    7  A    between atoms: C_28  and  O_31
REMARK    8  A    between atoms: O_31  and  C_32
REMARK    9  A    between atoms: C_36  and  O_39
REMARK   10  A    between atoms: O_39  and  C_40
REMARK                            x       y       z     vdW  Elec       q    Type
REMARK                         _______ _______ _______ _____ _____    ______ ____
ROOT
ATOM      1  C   UNL     1       0.176  -2.768   2.153  0.00  0.00    +0.247 C 
ATOM      2  O   UNL     1       0.182  -2.114   3.177  0.00  0.00    -0.270 OA
ATOM      3  N   UNL     1       0.011  -4.105   2.207  0.00  0.00    -0.296 N 
ATOM      4  C   UNL     1       0.104  -5.077   1.093  0.00  0.00    +0.121 C 
ATOM      5  C   UNL     1       0.819  -6.304   1.705  0.00  0.00    +0.100 C 
ATOM      6  C   UNL     1       0.544  -6.205   3.215  0.00  0.00    -0.004 C 
ATOM      7  C   UNL     1      -0.299  -4.934   3.396  0.00  0.00    +0.115 C 
ATOM      8  C   UNL     1       1.856  -6.074   3.982  0.00  0.00    -0.010 C 
ATOM      9  C   UNL     1       1.562  -6.034   5.485  0.00  0.00    -0.082 C 
ATOM     10  N   UNL     1       0.861  -7.262   5.880  0.00  0.00    +0.379 N 
ATOM     11  C   UNL     1      -0.442  -7.334   5.207  0.00  0.00    -0.082 C 
ATOM     12  C   UNL     1      -0.232  -7.428   3.693  0.00  0.00    -0.010 C 
ATOM     13  H   UNL     1       1.416  -8.063   5.621  0.00  0.00    -0.086 HD
ATOM     14  H   UNL     1       0.722  -7.261   6.879  0.00  0.00    -0.086 HD
ENDROOT
BRANCH   1  20
ATOM     15  C   UNL     1      -0.378  -2.766  -2.807  0.00  0.00    +0.044 C 
ATOM     16  C   UNL     1       0.085  -2.092  -1.541  0.00  0.00    -0.050 A 
ATOM     17  C   UNL     1       0.675  -0.841  -1.600  0.00  0.00    +0.003 A 
ATOM     18  C   UNL     1       1.102  -0.216  -0.443  0.00  0.00    +0.001 A 
ATOM     19  C   UNL     1       0.943  -0.836   0.780  0.00  0.00    +0.013 A 
ATOM     20  C   UNL     1       0.349  -2.097   0.847  0.00  0.00    +0.037 A 
ATOM     21  C   UNL     1      -0.085  -2.720  -0.325  0.00  0.00    +0.016 A 
ENDBRANCH   1  20
BRANCH   5  22
ATOM     22  C   UNL     1       0.241  -7.579   1.147  0.00  0.00    +0.219 C 
ATOM     23  O   UNL     1      -0.938  -7.641   0.871  0.00  0.00    -0.275 OA
ATOM     24  N   UNL     1       1.036  -8.651   0.955  0.00  0.00    -0.304 N 
ATOM     25  H   UNL     1       1.979  -8.601   1.176  0.00  0.00    +0.150 HD
BRANCH  24  26
ATOM     26  C   UNL     1       0.474  -9.891   0.413  0.00  0.00    +0.134 C 
BRANCH  26  27
ATOM     27  C   UNL     1       1.564 -10.680  -0.267  0.00  0.00    -0.023 A 
ATOM     28  C   UNL     1       2.822 -10.752   0.303  0.00  0.00    +0.009 A 
ATOM     29  C   UNL     1       3.822 -11.475  -0.319  0.00  0.00    +0.046 A 
ATOM     30  C   UNL     1       3.563 -12.129  -1.514  0.00  0.00    +0.120 A 
ATOM     31  C   UNL     1       2.300 -12.056  -2.083  0.00  0.00    +0.046 A 
ATOM     32  C   UNL     1       1.302 -11.336  -1.455  0.00  0.00    +0.009 A 
BRANCH  30  33
ATOM     33  O   UNL     1       4.546 -12.840  -2.127  0.00  0.00    -0.495 OA
ATOM     34  C   UNL     1       4.208 -13.488  -3.356  0.00  0.00    +0.277 C 
ENDBRANCH  30  33
ENDBRANCH  26  27
BRANCH  26  35
ATOM     35  C   UNL     1      -0.114 -10.709   1.534  0.00  0.00    -0.023 A 
ATOM     36  C   UNL     1       0.538 -10.781   2.751  0.00  0.00    +0.009 A 
ATOM     37  C   UNL     1       0.002 -11.530   3.780  0.00  0.00    +0.046 A 
ATOM     38  C   UNL     1      -1.193 -12.210   3.592  0.00  0.00    +0.120 A 
ATOM     39  C   UNL     1      -1.846 -12.135   2.370  0.00  0.00    +0.046 A 
ATOM     40  C   UNL     1      -1.308 -11.380   1.346  0.00  0.00    +0.009 A 
BRANCH  38  41
ATOM     41  O   UNL     1      -1.723 -12.948   4.602  0.00  0.00    -0.495 OA
ATOM     42  C   UNL     1      -2.956 -13.620   4.337  0.00  0.00    +0.277 C 
ENDBRANCH  38  41
ENDBRANCH  26  35
ENDBRANCH  24  26
ENDBRANCH   5  22
TORSDOF 7
