REMARK  Name = ZINC13495830
REMARK  12 active torsions:
REMARK  status: ('A' for Active; 'I' for Inactive)
REMARK    1  A    between atoms: C_1  and  C_2
REMARK    2  A    between atoms: C_2  and  C_3
REMARK    3  A    between atoms: C_3  and  C_5
REMARK    4  A    between atoms: C_3  and  N_70
REMARK    5  A    between atoms: N_9  and  C_10
REMARK    6  A    between atoms: C_10  and  C_11
REMARK    7  A    between atoms: C_17  and  C_18
REMARK    8  A    between atoms: C_17  and  N_70
REMARK    9  A    between atoms: C_18  and  C_19
REMARK   10  A    between atoms: C_25  and  C_26
REMARK   11  A    between atoms: C_25  and  N_70
REMARK   12  A    between atoms: C_30  and  C_38
REMARK                            x       y       z     vdW  Elec       q    Type
REMARK                         _______ _______ _______ _____ _____    ______ ____
ROOT
ATOM      1  N   UNL     1       1.122  -2.358   1.166  0.00  0.00    +0.389 N 
ATOM      2  H   UNL     1       1.773  -1.908   1.821  0.00  0.00    -0.080 HD
ENDROOT
BRANCH   1   3
ATOM      3  C   UNL     1       1.329  -3.821   1.215  0.00  0.00    +0.003 C 
BRANCH   3   4
ATOM      4  C   UNL     1       0.562  -4.500   0.109  0.00  0.00    +0.138 A 
ATOM      5  N   UNL     1       0.545  -4.158  -1.156  0.00  0.00    -0.115 NA
ATOM      6  N   UNL     1      -0.224  -4.981  -1.781  0.00  0.00    -0.023 NA
ATOM      7  N   UNL     1      -0.705  -5.835  -0.945  0.00  0.00    -0.044 NA
ATOM      8  N   UNL     1      -0.244  -5.571   0.231  0.00  0.00    -0.228 N 
BRANCH   8   9
ATOM      9  C   UNL     1      -0.542  -6.301   1.466  0.00  0.00    +0.178 C 
BRANCH   9  10
ATOM     10  C   UNL     1      -1.864  -5.798   2.049  0.00  0.00    +0.140 C 
ATOM     11  C   UNL     1      -2.136  -6.489   3.402  0.00  0.00    +0.035 C 
ATOM     12  C   UNL     1      -3.667  -6.739   3.344  0.00  0.00    +0.031 C 
ATOM     13  C   UNL     1      -3.862  -7.015   1.831  0.00  0.00    +0.160 C 
ATOM     14  O   UNL     1      -2.942  -6.134   1.168  0.00  0.00    -0.375 OA
ENDBRANCH   9  10
ENDBRANCH   8   9
ENDBRANCH   3   4
BRANCH   3  16
ATOM     15  C   UNL     1       3.590  -3.511   2.232  0.00  0.00    +0.002 C 
ATOM     16  C   UNL     1       2.822  -4.114   1.054  0.00  0.00    -0.011 C 
ENDBRANCH   3  16
ENDBRANCH   1   3
BRANCH   1  17
ATOM     17  C   UNL     1      -0.263  -2.030   1.563  0.00  0.00    -0.073 C 
BRANCH  17  18
ATOM     18  C   UNL     1      -0.427  -2.312   3.058  0.00  0.00    +0.016 C 
BRANCH  18  19
ATOM     19  C   UNL     1      -1.774  -1.818   3.518  0.00  0.00    -0.049 A 
ATOM     20  C   UNL     1      -1.945  -0.490   3.859  0.00  0.00    +0.003 A 
ATOM     21  C   UNL     1      -3.182  -0.036   4.276  0.00  0.00    +0.000 A 
ATOM     22  C   UNL     1      -4.247  -0.913   4.361  0.00  0.00    +0.000 A 
ATOM     23  C   UNL     1      -4.075  -2.243   4.025  0.00  0.00    +0.000 A 
ATOM     24  C   UNL     1      -2.839  -2.696   3.604  0.00  0.00    +0.003 A 
ENDBRANCH  18  19
ENDBRANCH  17  18
ENDBRANCH   1  17
BRANCH   1  25
ATOM     25  C   UNL     1       1.389  -1.856  -0.198  0.00  0.00    -0.037 C 
BRANCH  25  26
ATOM     26  C   UNL     1       1.647  -0.373  -0.124  0.00  0.00    +0.001 A 
ATOM     27  C   UNL     1       2.919   0.087  -0.029  0.00  0.00    +0.017 A 
ATOM     28  C   UNL     1       3.136   1.534   0.041  0.00  0.00    -0.001 A 
ATOM     29  C   UNL     1       4.425   2.068   0.139  0.00  0.00    +0.013 A 
ATOM     30  C   UNL     1       4.594   3.422   0.201  0.00  0.00    -0.050 A 
ATOM     31  C   UNL     1       3.497   4.273   0.169  0.00  0.00    +0.005 A 
ATOM     32  C   UNL     1       2.219   3.769   0.073  0.00  0.00    +0.026 A 
ATOM     33  C   UNL     1       2.022   2.393   0.007  0.00  0.00    +0.049 A 
ATOM     34  N   UNL     1       0.754   1.861  -0.089  0.00  0.00    -0.322 N 
ATOM     35  H   UNL     1      -0.013   2.455  -0.116  0.00  0.00    +0.169 HD
ATOM     36  C   UNL     1       0.564   0.532  -0.153  0.00  0.00    +0.251 A 
ATOM     37  O   UNL     1      -0.571   0.097  -0.238  0.00  0.00    -0.268 OA
ATOM     38  C   UNL     1       5.983   3.998   0.306  0.00  0.00    +0.044 C 
ENDBRANCH  25  26
ENDBRANCH   1  25
TORSDOF 10
