REMARK  Name = ZINC39533895
REMARK  10 active torsions:
REMARK  status: ('A' for Active; 'I' for Inactive)
REMARK    1  A    between atoms: C_1  and  O_2
REMARK    2  A    between atoms: O_2  and  N_3
REMARK    3  A    between atoms: N_3  and  C_4
REMARK    4  A    between atoms: C_4  and  C_5
REMARK    5  A    between atoms: C_5  and  C_7
REMARK    6  A    between atoms: C_5  and  N_19
REMARK    7  A    between atoms: C_10  and  C_13
REMARK    8  A    between atoms: C_23  and  S_26
REMARK    9  A    between atoms: S_26  and  O_29
REMARK   10  A    between atoms: O_29  and  C_30
REMARK                            x       y       z     vdW  Elec       q    Type
REMARK                         _______ _______ _______ _____ _____    ______ ____
ROOT
ATOM      1  C   UNL     1       1.352  -2.620  -2.340  0.00  0.00    +0.103 C 
ENDROOT
BRANCH   1   2
ATOM      2  N   UNL     1       0.224  -2.168  -3.166  0.00  0.00    -0.296 NA
ATOM      3  C   UNL     1       0.604  -1.011  -3.989  0.00  0.00    +0.066 C 
ATOM      4  C   UNL     1      -0.577  -0.609  -4.875  0.00  0.00    -0.064 C 
ATOM      5  N   UNL     1      -1.730  -0.273  -4.030  0.00  0.00    +0.398 N 
ATOM      6  C   UNL     1      -2.114  -1.445  -3.232  0.00  0.00    +0.130 C 
ATOM      7  C   UNL     1      -0.945  -1.854  -2.333  0.00  0.00    +0.095 C 
ATOM      8  H   UNL     1      -1.486   0.488  -3.414  0.00  0.00    -0.083 HD
ATOM      9  H   UNL     1      -2.505   0.004  -4.614  0.00  0.00    -0.083 HD
BRANCH   6  10
ATOM     10  S   UNL     1      -3.552  -1.034  -2.206  0.00  0.00    +0.109 S 
ATOM     11  O   UNL     1      -4.045  -2.202  -1.564  0.00  0.00    -0.138 OA
ATOM     12  O   UNL     1      -3.300   0.150  -1.462  0.00  0.00    -0.138 OA
BRANCH  10  13
ATOM     13  O   UNL     1      -4.641  -0.647  -3.196  0.00  0.00    -0.347 OA
BRANCH  13  14
ATOM     14  C   UNL     1      -5.196  -1.702  -3.849  0.00  0.00    +0.156 A 
ATOM     15  C   UNL     1      -4.651  -2.142  -5.046  0.00  0.00    +0.048 A 
ATOM     16  C   UNL     1      -5.216  -3.216  -5.708  0.00  0.00    +0.004 A 
ATOM     17  C   UNL     1      -6.324  -3.850  -5.177  0.00  0.00    +0.000 A 
ATOM     18  C   UNL     1      -6.869  -3.413  -3.984  0.00  0.00    +0.004 A 
ATOM     19  C   UNL     1      -6.304  -2.344  -3.316  0.00  0.00    +0.048 A 
ENDBRANCH  13  14
ENDBRANCH  10  13
ENDBRANCH   6  10
ENDBRANCH   1   2
BRANCH   1  20
ATOM     20  C   UNL     1       1.147  -4.062  -1.956  0.00  0.00    -0.029 A 
ATOM     21  C   UNL     1      -0.078  -4.667  -2.177  0.00  0.00    +0.006 A 
ATOM     22  C   UNL     1      -0.272  -5.987  -1.826  0.00  0.00    +0.009 A 
ATOM     23  C   UNL     1       0.769  -6.712  -1.249  0.00  0.00    -0.018 A 
ATOM     24  C   UNL     1       2.000  -6.098  -1.028  0.00  0.00    +0.009 A 
ATOM     25  C   UNL     1       2.185  -4.779  -1.388  0.00  0.00    +0.006 A 
BRANCH  23  26
ATOM     26  C   UNL     1       0.566  -8.133  -0.869  0.00  0.00    -0.018 A 
ATOM     27  C   UNL     1      -0.663  -8.748  -1.095  0.00  0.00    +0.008 A 
ATOM     28  C   UNL     1      -0.846 -10.069  -0.740  0.00  0.00    +0.001 A 
ATOM     29  C   UNL     1       0.188 -10.782  -0.162  0.00  0.00    +0.000 A 
ATOM     30  C   UNL     1       1.411 -10.176   0.065  0.00  0.00    +0.001 A 
ATOM     31  C   UNL     1       1.607  -8.857  -0.292  0.00  0.00    +0.008 A 
ENDBRANCH  23  26
ENDBRANCH   1  20
BRANCH   1  32
ATOM     32  C   UNL     1       1.436  -1.762  -1.076  0.00  0.00    +0.134 C 
BRANCH  32  33
ATOM     33  N   UNL     1       1.586  -0.350  -1.452  0.00  0.00    -0.200 NA
ATOM     34  H   UNL     1       2.388  -0.218  -2.050  0.00  0.00    +0.154 HD
BRANCH  33  36
ATOM     35  C   UNL     1       1.816   1.893  -0.559  0.00  0.00    +0.221 C 
ATOM     36  O   UNL     1       1.669   0.503  -0.266  0.00  0.00    -0.303 OA
ENDBRANCH  33  36
ENDBRANCH  32  33
ENDBRANCH   1  32
TORSDOF 9
