REMARK  Name = ZINC13500397
REMARK  12 active torsions:
REMARK  status: ('A' for Active; 'I' for Inactive)
REMARK    1  A    between atoms: C_1  and  C_2
REMARK    2  A    between atoms: C_9  and  C_14
REMARK    3  A    between atoms: C_14  and  N_15
REMARK    4  A    between atoms: N_15  and  C_16
REMARK    5  A    between atoms: N_15  and  C_23
REMARK    6  A    between atoms: C_16  and  C_17
REMARK    7  A    between atoms: C_23  and  C_25
REMARK    8  A    between atoms: C_23  and  C_37
REMARK    9  A    between atoms: N_29  and  C_30
REMARK   10  A    between atoms: C_30  and  C_31
REMARK   11  A    between atoms: C_37  and  C_38
REMARK   12  A    between atoms: C_37  and  C_39
REMARK                            x       y       z     vdW  Elec       q    Type
REMARK                         _______ _______ _______ _____ _____    ______ ____
ROOT
ATOM      1  N   UNL     1      -1.721  -5.236   4.255  0.00  0.00    -0.286 NA
ENDROOT
BRANCH   1   2
ATOM      2  C   UNL     1      -0.587  -4.334   4.016  0.00  0.00    +0.125 C 
BRANCH   2  11
ATOM      3  C   UNL     1      -3.134   2.536   2.624  0.00  0.00    +0.044 C 
ATOM      4  C   UNL     1      -2.649   1.192   2.145  0.00  0.00    -0.050 A 
ATOM      5  C   UNL     1      -2.579   0.931   0.783  0.00  0.00    +0.005 A 
ATOM      6  C   UNL     1      -2.139  -0.291   0.323  0.00  0.00    +0.026 A 
ATOM      7  C   UNL     1      -1.761  -1.275   1.230  0.00  0.00    +0.049 A 
ATOM      8  C   UNL     1      -1.833  -1.007   2.610  0.00  0.00    -0.001 A 
ATOM      9  C   UNL     1      -2.279   0.242   3.054  0.00  0.00    +0.013 A 
ATOM     10  C   UNL     1      -1.433  -2.049   3.557  0.00  0.00    +0.020 A 
ATOM     11  C   UNL     1      -1.006  -3.240   3.068  0.00  0.00    +0.031 A 
ATOM     12  C   UNL     1      -0.952  -3.457   1.675  0.00  0.00    +0.254 A 
ATOM     13  O   UNL     1      -0.564  -4.535   1.257  0.00  0.00    -0.268 OA
ATOM     14  N   UNL     1      -1.317  -2.506   0.797  0.00  0.00    -0.322 N 
ATOM     15  H   UNL     1      -1.268  -2.690  -0.154  0.00  0.00    +0.169 HD
ENDBRANCH   2  11
ENDBRANCH   1   2
BRANCH   1  16
ATOM     16  C   UNL     1      -1.975  -6.084   3.082  0.00  0.00    +0.117 C 
BRANCH  16  17
ATOM     17  C   UNL     1      -3.300  -6.826   3.266  0.00  0.00    +0.132 C 
ATOM     18  C   UNL     1      -3.581  -7.711   2.033  0.00  0.00    +0.035 C 
ATOM     19  C   UNL     1      -5.112  -7.536   1.843  0.00  0.00    +0.031 C 
ATOM     20  C   UNL     1      -5.298  -6.064   2.292  0.00  0.00    +0.160 C 
ATOM     21  O   UNL     1      -4.373  -5.883   3.378  0.00  0.00    -0.375 OA
ENDBRANCH  16  17
ENDBRANCH   1  16
BRANCH   1  22
ATOM     22  C   UNL     1      -1.501  -6.052   5.457  0.00  0.00    +0.129 C 
BRANCH  22  23
ATOM     23  C   UNL     1      -1.887  -5.259   6.679  0.00  0.00    +0.169 A 
ATOM     24  N   UNL     1      -1.436  -4.077   7.019  0.00  0.00    -0.112 NA
ATOM     25  N   UNL     1      -2.004  -3.737   8.125  0.00  0.00    -0.023 NA
ATOM     26  N   UNL     1      -2.806  -4.673   8.498  0.00  0.00    -0.044 NA
ATOM     27  N   UNL     1      -2.766  -5.626   7.630  0.00  0.00    -0.225 N 
BRANCH  27  28
ATOM     28  C   UNL     1      -3.531  -6.875   7.673  0.00  0.00    +0.179 C 
BRANCH  28  29
ATOM     29  C   UNL     1      -2.769  -7.911   8.502  0.00  0.00    +0.140 C 
ATOM     30  C   UNL     1      -3.510  -9.265   8.457  0.00  0.00    +0.035 C 
ATOM     31  C   UNL     1      -3.345  -9.779   9.914  0.00  0.00    +0.031 C 
ATOM     32  C   UNL     1      -3.393  -8.446  10.703  0.00  0.00    +0.160 C 
ATOM     33  O   UNL     1      -2.712  -7.492   9.870  0.00  0.00    -0.375 OA
ENDBRANCH  28  29
ENDBRANCH  27  28
ENDBRANCH  22  23
BRANCH  22  34
ATOM     34  C   UNL     1      -0.024  -6.440   5.546  0.00  0.00    +0.008 C 
ATOM     35  C   UNL     1       0.219  -7.228   6.835  0.00  0.00    +0.009 C 
ATOM     36  C   UNL     1       0.349  -7.306   4.341  0.00  0.00    +0.009 C 
ENDBRANCH  22  34
ENDBRANCH   1  22
TORSDOF 9
