REMARK  Name = ZINC60200804
REMARK  13 active torsions:
REMARK  status: ('A' for Active; 'I' for Inactive)
REMARK    1  A    between atoms: C_1  and  C_2
REMARK    2  A    between atoms: C_2  and  N_3
REMARK    3  A    between atoms: N_3  and  C_4
REMARK    4  A    between atoms: N_3  and  C_6
REMARK    5  A    between atoms: C_4  and  C_5
REMARK    6  A    between atoms: C_6  and  C_8
REMARK    7  A    between atoms: C_6  and  C_29
REMARK    8  A    between atoms: C_8  and  N_9
REMARK    9  A    between atoms: C_10  and  C_12
REMARK   10  A    between atoms: C_12  and  C_13
REMARK   11  A    between atoms: C_13  and  C_14
REMARK   12  A    between atoms: C_15  and  C_28
REMARK   13  A    between atoms: C_17  and  C_22
REMARK                            x       y       z     vdW  Elec       q    Type
REMARK                         _______ _______ _______ _____ _____    ______ ____
ROOT
ATOM      1  N   UNL     1      -0.839   1.210  -2.871  0.00  0.00    -0.317 N 
ATOM      2  C   UNL     1      -1.221   2.320  -3.532  0.00  0.00    +0.213 C 
ATOM      3  O   UNL     1      -0.832   2.516  -4.664  0.00  0.00    -0.276 OA
ATOM      4  H   UNL     1      -1.206   1.017  -1.994  0.00  0.00    +0.149 HD
ENDROOT
BRANCH   1   5
ATOM      5  C   UNL     1       0.131   0.294  -3.476  0.00  0.00    +0.093 C 
BRANCH   5   6
ATOM      6  C   UNL     1       0.296  -0.937  -2.583  0.00  0.00    -0.019 C 
BRANCH   6   7
ATOM      7  C   UNL     1       1.305  -1.873  -3.198  0.00  0.00    -0.041 A 
ATOM      8  C   UNL     1       2.613  -1.868  -2.753  0.00  0.00    +0.003 A 
ATOM      9  C   UNL     1       3.538  -2.726  -3.317  0.00  0.00    +0.000 A 
ATOM     10  C   UNL     1       3.156  -3.589  -4.327  0.00  0.00    +0.001 A 
ATOM     11  C   UNL     1       1.848  -3.595  -4.773  0.00  0.00    +0.020 A 
ATOM     12  C   UNL     1       0.920  -2.740  -4.205  0.00  0.00    +0.043 A 
ATOM     13 CL   UNL     1      -0.725  -2.750  -4.760  0.00  0.00    -0.083 Cl
ENDBRANCH   6   7
BRANCH   6  14
ATOM     14  N   UNL     1       0.763  -0.519  -1.254  0.00  0.00    +0.385 N 
ATOM     15  H   UNL     1       0.037   0.009  -0.794  0.00  0.00    -0.081 HD
BRANCH  14  17
ATOM     16  C   UNL     1      -0.194  -2.498  -0.173  0.00  0.00    -0.017 C 
ATOM     17  C   UNL     1       1.086  -1.707  -0.453  0.00  0.00    -0.081 C 
ENDBRANCH  14  17
BRANCH  14  18
ATOM     18  C   UNL     1       1.962   0.317  -1.397  0.00  0.00    -0.081 C 
ATOM     19  C   UNL     1       1.597   1.781  -1.144  0.00  0.00    -0.017 C 
ENDBRANCH  14  18
ENDBRANCH   6  14
ENDBRANCH   5   6
ENDBRANCH   1   5
BRANCH   2  20
ATOM     20  C   UNL     1      -2.131   3.319  -2.865  0.00  0.00    +0.100 C 
BRANCH  20  21
ATOM     21  C   UNL     1      -2.511   4.412  -3.867  0.00  0.00    +0.051 C 
BRANCH  21  22
ATOM     22  C   UNL     1      -3.421   5.410  -3.200  0.00  0.00    +0.038 A 
ATOM     23  C   UNL     1      -2.915   6.553  -2.654  0.00  0.00    +0.049 A 
ATOM     24  N   UNL     1      -3.727   7.430  -2.067  0.00  0.00    -0.234 NA
ATOM     25  C   UNL     1      -5.025   7.223  -1.996  0.00  0.00    +0.142 A 
ATOM     26  N   UNL     1      -5.589   6.100  -2.523  0.00  0.00    -0.307 N 
ATOM     27  H   UNL     1      -6.548   5.962  -2.462  0.00  0.00    +0.170 HD
ATOM     28  C   UNL     1      -4.810   5.182  -3.135  0.00  0.00    +0.255 A 
ATOM     29  O   UNL     1      -5.298   4.173  -3.617  0.00  0.00    -0.268 OA
ATOM     30  C   UNL     1      -1.434   6.824  -2.716  0.00  0.00    +0.066 C 
BRANCH  25  31
ATOM     31  C   UNL     1      -5.885   8.224  -1.333  0.00  0.00    +0.035 A 
ATOM     32  C   UNL     1      -5.331   9.389  -0.788  0.00  0.00    +0.014 A 
ATOM     33  C   UNL     1      -6.180  10.296  -0.178  0.00  0.00    +0.020 A 
ATOM     34  C   UNL     1      -7.536  10.025  -0.126  0.00  0.00    +0.111 A 
ATOM     35  N   UNL     1      -8.030   8.919  -0.649  0.00  0.00    -0.263 NA
ATOM     36  C   UNL     1      -7.264   8.029  -1.245  0.00  0.00    +0.122 A 
ENDBRANCH  25  31
ENDBRANCH  21  22
ENDBRANCH  20  21
ENDBRANCH   2  20
TORSDOF 10
