REMARK  Name = ZINC14475788
REMARK  4 active torsions:
REMARK  status: ('A' for Active; 'I' for Inactive)
REMARK    1  A    between atoms: C_1  and  C_2
REMARK    2  A    between atoms: C_9  and  C_18
REMARK    3  A    between atoms: C_20  and  N_25
REMARK    4  A    between atoms: C_23  and  O_24
REMARK                            x       y       z     vdW  Elec       q    Type
REMARK                         _______ _______ _______ _____ _____    ______ ____
ROOT
ATOM      1  C   UNL     1      -0.018   1.503   0.010  0.00  0.00    +0.047 C 
ATOM      2  C   UNL     1       0.002  -0.004   0.002  0.00  0.00    -0.011 A 
ATOM      3  C   UNL     1       0.006  -0.685  -1.200  0.00  0.00    +0.046 A 
ATOM      4  C   UNL     1       0.023  -2.068  -1.214  0.00  0.00    +0.020 A 
ATOM      5  C   UNL     1       0.028  -2.772  -0.024  0.00  0.00    +0.007 A 
ATOM      6  C   UNL     1       0.021  -2.102   1.180  0.00  0.00    -0.019 A 
ATOM      7  C   UNL     1       0.023  -0.702   1.203  0.00  0.00    +0.036 A 
ATOM      8  N   UNL     1       0.063   0.010   2.408  0.00  0.00    -0.336 N 
ATOM      9  C   UNL     1       0.072  -0.689   3.712  0.00  0.00    +0.108 C 
ATOM     10  C   UNL     1       0.860  -1.967   3.486  0.00  0.00    +0.029 C 
ATOM     11  C   UNL     1       0.004  -2.805   2.481  0.00  0.00    +0.049 C 
ATOM     12  C   UNL     1       0.548  -4.178   2.640  0.00  0.00    -0.023 C 
ATOM     13  C   UNL     1       1.022  -4.305   3.874  0.00  0.00    -0.030 C 
ATOM     14  C   UNL     1       0.901  -2.976   4.642  0.00  0.00    +0.033 C 
ATOM     15 CL   UNL     1      -0.012   0.197  -2.695  0.00  0.00    -0.083 Cl
ATOM     16  H   UNL     1       0.086   0.979   2.388  0.00  0.00    +0.147 HD
ENDROOT
BRANCH   9  17
ATOM     17  C   UNL     1      -1.337  -1.012   4.139  0.00  0.00    +0.017 A 
ATOM     18  C   UNL     1      -2.332  -1.149   3.191  0.00  0.00    +0.041 A 
ATOM     19  C   UNL     1      -3.625  -1.445   3.582  0.00  0.00    +0.127 A 
ATOM     20  C   UNL     1      -3.925  -1.604   4.923  0.00  0.00    +0.036 A 
ATOM     21  C   UNL     1      -2.933  -1.467   5.875  0.00  0.00    +0.048 A 
ATOM     22  C   UNL     1      -1.634  -1.176   5.484  0.00  0.00    +0.122 A 
BRANCH  19  23
ATOM     23  N   UNL     1      -4.690  -1.592   2.565  0.00  0.00    +0.056 N 
ATOM     24  O   UNL     1      -4.429  -1.453   1.393  0.00  0.00    -0.126 OA
ATOM     25  O   UNL     1      -5.820  -1.851   2.906  0.00  0.00    -0.126 OA
ENDBRANCH  19  23
BRANCH  22  26
ATOM     26  O   UNL     1      -0.655  -1.046   6.418  0.00  0.00    -0.506 OA
ATOM     27  H   UNL     1      -0.550  -0.145   6.754  0.00  0.00    +0.292 HD
ENDBRANCH  22  26
ENDBRANCH   9  17
TORSDOF 3
