REMARK  Name = ZINC39462216
REMARK  9 active torsions:
REMARK  status: ('A' for Active; 'I' for Inactive)
REMARK    1  A    between atoms: C_1  and  C_2
REMARK    2  A    between atoms: C_5  and  C_8
REMARK    3  A    between atoms: C_8  and  C_9
REMARK    4  A    between atoms: C_9  and  C_10
REMARK    5  A    between atoms: N_13  and  C_16
REMARK    6  A    between atoms: C_16  and  C_17
REMARK    7  A    between atoms: N_19  and  C_20
REMARK    8  A    between atoms: C_25  and  C_30
REMARK    9  A    between atoms: C_31  and  C_34
REMARK                            x       y       z     vdW  Elec       q    Type
REMARK                         _______ _______ _______ _____ _____    ______ ____
ROOT
ATOM      1  C   UNL     1       2.522 -10.206  -1.415  0.00  0.00    +0.019 C 
ENDROOT
BRANCH   1   5
ATOM      2  C   UNL     1       1.528  -6.296  -0.041  0.00  0.00    -0.014 C 
ATOM      3  C   UNL     1       0.927  -6.809  -1.352  0.00  0.00    -0.015 C 
ATOM      4  C   UNL     1       1.022  -8.336  -1.388  0.00  0.00    -0.078 C 
ATOM      5  N   UNL     1       2.429  -8.744  -1.301  0.00  0.00    +0.385 N 
ATOM      6  C   UNL     1       2.993  -8.318  -0.015  0.00  0.00    -0.078 C 
ATOM      7  C   UNL     1       2.973  -6.791   0.074  0.00  0.00    -0.015 C 
ATOM      8  H   UNL     1       2.949  -8.317  -2.053  0.00  0.00    -0.081 HD
BRANCH   2   9
ATOM      9  C   UNL     1       1.508  -4.767  -0.032  0.00  0.00    +0.008 C 
BRANCH   9  10
ATOM     10  C   UNL     1       0.059  -4.275  -0.021  0.00  0.00    +0.035 C 
BRANCH  10  15
ATOM     11  C   UNL     1      -0.018   1.503   0.010  0.00  0.00    +0.044 C 
ATOM     12  C   UNL     1       0.002  -0.004   0.002  0.00  0.00    -0.050 A 
ATOM     13  C   UNL     1       0.006  -0.689  -1.199  0.00  0.00    +0.003 A 
ATOM     14  C   UNL     1       0.025  -2.071  -1.206  0.00  0.00    +0.004 A 
ATOM     15  C   UNL     1       0.040  -2.768  -0.013  0.00  0.00    -0.047 A 
ATOM     16  C   UNL     1       0.037  -2.084   1.188  0.00  0.00    +0.004 A 
ATOM     17  C   UNL     1       0.023  -0.702   1.195  0.00  0.00    +0.003 A 
ENDBRANCH  10  15
ENDBRANCH   9  10
ENDBRANCH   2   9
ENDBRANCH   1   5
BRANCH   1  18
ATOM     18  C   UNL     1       3.971 -10.617  -1.449  0.00  0.00    +0.199 C 
ATOM     19  O   UNL     1       4.842  -9.774  -1.385  0.00  0.00    -0.278 OA
ATOM     20  N   UNL     1       4.300 -11.919  -1.550  0.00  0.00    -0.288 N 
ATOM     21  H   UNL     1       3.604 -12.593  -1.601  0.00  0.00    +0.151 HD
BRANCH  20  22
ATOM     22  C   UNL     1       5.709 -12.319  -1.583  0.00  0.00    +0.243 C 
ATOM     23  C   UNL     1       5.907 -13.446  -2.563  0.00  0.00    +0.072 A 
ATOM     24  H   UNL     1       6.251 -14.779  -5.508  0.00  0.00    +0.192 HD
ATOM     25  C   UNL     1       6.003 -14.607  -1.848  0.00  0.00    +0.016 A 
ATOM     26  C   UNL     1       6.191 -15.807  -2.544  0.00  0.00    +0.065 A 
ATOM     27  N   UNL     1       6.271 -15.801  -3.848  0.00  0.00    -0.176 NA
ATOM     28  N   UNL     1       6.184 -14.725  -4.542  0.00  0.00    -0.243 N 
ATOM     29  C   UNL     1       6.003 -13.519  -3.963  0.00  0.00    +0.272 A 
ATOM     30  O   UNL     1       5.923 -12.509  -4.644  0.00  0.00    -0.266 OA
ATOM     31  C   UNL     1       6.302 -17.106  -1.788  0.00  0.00    +0.068 C 
ATOM     32  C   UNL     1       5.870 -14.255  -0.388  0.00  0.00    +0.150 C 
ATOM     33  O   UNL     1       6.109 -12.835  -0.299  0.00  0.00    -0.347 OA
ATOM     34  C   UNL     1       4.460 -14.585   0.107  0.00  0.00    +0.043 C 
ENDBRANCH  20  22
ENDBRANCH   1  18
TORSDOF 6
