REMARK  Name = ZINC38490686
REMARK  10 active torsions:
REMARK  status: ('A' for Active; 'I' for Inactive)
REMARK    1  A    between atoms: C_1  and  C_2
REMARK    2  A    between atoms: C_2  and  C_3
REMARK    3  A    between atoms: C_3  and  C_4
REMARK    4  A    between atoms: C_4  and  C_5
REMARK    5  A    between atoms: C_8  and  N_11
REMARK    6  A    between atoms: C_12  and  C_14
REMARK    7  A    between atoms: C_15  and  C_27
REMARK    8  A    between atoms: N_16  and  C_19
REMARK    9  A    between atoms: C_27  and  S_28
REMARK   10  A    between atoms: S_28  and  C_29
REMARK                            x       y       z     vdW  Elec       q    Type
REMARK                         _______ _______ _______ _____ _____    ______ ____
ROOT
ATOM      1  C   UNL     1       3.580  -4.454   8.214  0.00  0.00    +0.172 A 
ATOM      2  C   UNL     1       3.031  -4.642   9.450  0.00  0.00    +0.087 A 
ATOM      3  N   UNL     1       4.042  -4.981  10.279  0.00  0.00    -0.215 N 
ATOM      4  N   UNL     1       5.212  -4.992   9.507  0.00  0.00    -0.060 NA
ATOM      5  N   UNL     1       4.902  -4.682   8.296  0.00  0.00    -0.124 NA
ENDROOT
BRANCH   3   6
ATOM      6  C   UNL     1       3.941  -5.268  11.648  0.00  0.00    +0.070 A 
ATOM      7  C   UNL     1       3.019  -4.591  12.434  0.00  0.00    +0.048 A 
ATOM      8  C   UNL     1       2.922  -4.875  13.784  0.00  0.00    +0.044 A 
ATOM      9  C   UNL     1       3.742  -5.835  14.351  0.00  0.00    +0.040 A 
ATOM     10  C   UNL     1       4.662  -6.511  13.569  0.00  0.00    +0.044 A 
ATOM     11  C   UNL     1       4.759  -6.234  12.218  0.00  0.00    +0.048 A 
ATOM     12 CL   UNL     1       5.689  -7.715  14.284  0.00  0.00    -0.083 Cl
ATOM     13 CL   UNL     1       1.770  -4.027  14.768  0.00  0.00    -0.083 Cl
ENDBRANCH   3   6
BRANCH   1  15
ATOM     14  N   UNL     1       3.506  -3.921   5.828  0.00  0.00    -0.280 N 
ATOM     15  C   UNL     1       2.845  -4.071   6.994  0.00  0.00    +0.270 C 
ATOM     16  O   UNL     1       1.644  -3.889   7.039  0.00  0.00    -0.268 OA
ATOM     17  H   UNL     1       4.450  -4.139   5.774  0.00  0.00    +0.155 HD
BRANCH  14  21
ATOM     18  C   UNL     1       1.497  -2.521   2.459  0.00  0.00    -0.047 A 
ATOM     19  C   UNL     1       1.136  -2.069   3.715  0.00  0.00    +0.005 A 
ATOM     20  C   UNL     1       1.800  -2.531   4.834  0.00  0.00    +0.023 A 
ATOM     21  C   UNL     1       2.831  -3.451   4.697  0.00  0.00    +0.034 A 
ATOM     22  C   UNL     1       3.191  -3.904   3.434  0.00  0.00    +0.023 A 
ATOM     23  C   UNL     1       2.519  -3.442   2.319  0.00  0.00    +0.005 A 
BRANCH  18  24
ATOM     24  C   UNL     1       0.770  -2.014   1.240  0.00  0.00    +0.035 C 
BRANCH  24  25
ATOM     25  C   UNL     1      -0.428  -2.919   0.947  0.00  0.00    +0.004 C 
BRANCH  25  27
ATOM     26  C   UNL     1      -2.365  -3.310  -0.583  0.00  0.00    +0.004 C 
ATOM     27  C   UNL     1      -1.166  -2.405  -0.290  0.00  0.00    -0.003 C 
ENDBRANCH  25  27
ENDBRANCH  24  25
ENDBRANCH  18  24
ENDBRANCH  14  21
ENDBRANCH   1  15
BRANCH   2  28
ATOM     28  C   UNL     1       1.577  -4.498   9.819  0.00  0.00    +0.135 C 
BRANCH  28  29
ATOM     29  S   UNL     1       1.249  -2.789  10.332  0.00  0.00    -0.080 S 
BRANCH  29  30
ATOM     30  C   UNL     1      -0.469  -2.784  10.725  0.00  0.00    +0.189 A 
ATOM     31  N   UNL     1      -1.164  -3.906  10.602  0.00  0.00    -0.230 NA
ATOM     32  C   UNL     1      -2.455  -3.936  10.890  0.00  0.00    +0.115 A 
ATOM     33  C   UNL     1      -3.078  -2.776  11.324  0.00  0.00    +0.039 A 
ATOM     34  C   UNL     1      -2.322  -1.621  11.441  0.00  0.00    +0.115 A 
ATOM     35  N   UNL     1      -1.034  -1.660  11.142  0.00  0.00    -0.230 NA
ENDBRANCH  29  30
ENDBRANCH  28  29
ENDBRANCH   2  28
TORSDOF 9
