REMARK  Name = ZINC49464304
REMARK  8 active torsions:
REMARK  status: ('A' for Active; 'I' for Inactive)
REMARK    1  A    between atoms: C_1  and  C_2
REMARK    2  A    between atoms: C_4  and  C_22
REMARK    3  A    between atoms: C_5  and  S_18
REMARK    4  A    between atoms: C_7  and  C_8
REMARK    5  A    between atoms: N_10  and  C_11
REMARK    6  A    between atoms: C_11  and  C_12
REMARK    7  A    between atoms: C_15  and  C_17
REMARK    8  A    between atoms: S_18  and  N_21
REMARK                            x       y       z     vdW  Elec       q    Type
REMARK                         _______ _______ _______ _____ _____    ______ ____
ROOT
ATOM      1  C   UNL     1      -0.501   1.454   0.081  0.00  0.00    +0.044 C 
ATOM      2  C   UNL     1      -0.229  -0.027   0.036  0.00  0.00    -0.038 A 
ATOM      3  C   UNL     1      -0.329  -0.712  -1.158  0.00  0.00    +0.009 A 
ATOM      4  C   UNL     1      -0.080  -2.073  -1.201  0.00  0.00    -0.024 A 
ATOM      5  C   UNL     1       0.270  -2.755  -0.049  0.00  0.00    +0.109 A 
ATOM      6  C   UNL     1       0.373  -2.082   1.151  0.00  0.00    +0.042 A 
ATOM      7  C   UNL     1       0.128  -0.708   1.200  0.00  0.00    +0.041 A 
ATOM      8  C   UNL     1      -0.190  -2.814  -2.508  0.00  0.00    +0.046 C 
ENDROOT
BRANCH   7   9
ATOM      9  C   UNL     1       0.242   0.021   2.481  0.00  0.00    +0.244 C 
ATOM     10  O   UNL     1       0.140   1.232   2.503  0.00  0.00    -0.270 OA
ATOM     11  N   UNL     1       0.460  -0.658   3.626  0.00  0.00    -0.311 N 
ATOM     12  H   UNL     1       0.542  -1.624   3.608  0.00  0.00    +0.149 HD
BRANCH  11  13
ATOM     13  C   UNL     1       0.573   0.065   4.895  0.00  0.00    +0.108 C 
BRANCH  13  14
ATOM     14  C   UNL     1       0.817  -0.933   6.029  0.00  0.00    +0.009 C 
ATOM     15  C   UNL     1      -0.256  -1.046   7.114  0.00  0.00    +0.009 C 
ATOM     16  C   UNL     1       1.079  -0.364   7.426  0.00  0.00    -0.009 C 
ATOM     17  C   UNL     1       1.077   1.158   7.581  0.00  0.00    +0.008 C 
ENDBRANCH  13  14
ENDBRANCH  11  13
ENDBRANCH   7   9
BRANCH   5  18
ATOM     18  S   UNL     1       0.583  -4.488  -0.114  0.00  0.00    +0.056 S 
ATOM     19  O   UNL     1       1.477  -4.698  -1.199  0.00  0.00    -0.153 OA
ATOM     20  O   UNL     1       0.887  -4.896   1.213  0.00  0.00    -0.153 OA
BRANCH  18  21
ATOM     21  N   UNL     1      -0.841  -5.228  -0.523  0.00  0.00    -0.204 NA
ATOM     22  H   UNL     1      -0.829  -6.059  -1.022  0.00  0.00    +0.144 HD
ATOM     23  H   UNL     1      -1.686  -4.830  -0.264  0.00  0.00    +0.144 HD
ENDBRANCH  18  21
ENDBRANCH   5  18
TORSDOF 5
