REMARK  Name = ZINC64789114
REMARK  8 active torsions:
REMARK  status: ('A' for Active; 'I' for Inactive)
REMARK    1  A    between atoms: C_1  and  C_2
REMARK    2  A    between atoms: C_2  and  N_3
REMARK    3  A    between atoms: N_3  and  C_4
REMARK    4  A    between atoms: N_3  and  C_6
REMARK    5  A    between atoms: C_4  and  C_5
REMARK    6  A    between atoms: C_9  and  C_12
REMARK    7  A    between atoms: C_18  and  C_20
REMARK    8  A    between atoms: N_26  and  C_29
REMARK                            x       y       z     vdW  Elec       q    Type
REMARK                         _______ _______ _______ _____ _____    ______ ____
ROOT
ATOM      1  C   UNL     1       0.993  -8.224  -0.653  0.00  0.00    +0.132 C 
ATOM      2  C   UNL     1       1.817  -7.970  -1.929  0.00  0.00    +0.082 C 
ATOM      3  C   UNL     1       1.011  -8.623  -3.029  0.00  0.00    +0.041 C 
ATOM      4  N   UNL     1      -0.092  -9.166  -2.494  0.00  0.00    -0.264 N 
ATOM      5  N   UNL     1      -0.180  -8.980  -1.113  0.00  0.00    -0.215 N 
ATOM      6  C   UNL     1      -1.180  -9.422  -0.326  0.00  0.00    +0.229 C 
ATOM      7  O   UNL     1      -1.156  -9.204   0.866  0.00  0.00    -0.274 OA
ATOM      8  C   UNL     1      -2.330 -10.189  -0.928  0.00  0.00    +0.111 C 
ATOM      9  C   UNL     1       1.355  -8.655  -4.368  0.00  0.00    +0.118 C 
ATOM     10  C   UNL     1       2.598  -8.031  -4.858  0.00  0.00    +0.258 C 
ATOM     11  N   UNL     1       2.869  -8.101  -6.177  0.00  0.00    -0.235 N 
ATOM     12  C   UNL     1       2.041  -8.718  -7.031  0.00  0.00    +0.320 C 
ATOM     13  O   UNL     1       2.343  -8.746  -8.208  0.00  0.00    -0.251 OA
ATOM     14  N   UNL     1       0.896  -9.306  -6.656  0.00  0.00    -0.190 N 
ATOM     15  C   UNL     1       0.499  -9.319  -5.367  0.00  0.00    +0.265 C 
ATOM     16  O   UNL     1      -0.540  -9.860  -5.038  0.00  0.00    -0.269 OA
ATOM     17  O   UNL     1       3.357  -7.467  -4.093  0.00  0.00    -0.270 OA
ATOM     18  H   UNL     1       3.683  -7.696  -6.516  0.00  0.00    +0.159 HD
ATOM     19  H   UNL     1      -0.761  -9.639  -3.013  0.00  0.00    +0.170 HD
ENDROOT
BRANCH  14  20
ATOM     20  C   UNL     1       0.095  -9.926  -7.625  0.00  0.00    +0.047 A 
ATOM     21  C   UNL     1      -0.890  -9.200  -8.281  0.00  0.00    +0.024 A 
ATOM     22  C   UNL     1      -1.678  -9.814  -9.236  0.00  0.00    +0.003 A 
ATOM     23  C   UNL     1      -1.486 -11.150  -9.538  0.00  0.00    +0.020 A 
ATOM     24  C   UNL     1      -0.506 -11.876  -8.885  0.00  0.00    +0.043 A 
ATOM     25  C   UNL     1       0.289 -11.265  -7.934  0.00  0.00    +0.044 A 
ATOM     26 CL   UNL     1      -0.270 -13.553  -9.267  0.00  0.00    -0.083 Cl
ENDBRANCH  14  20
BRANCH   1  30
ATOM     27  C   UNL     1      -0.212  -4.522   1.104  0.00  0.00    +0.013 A 
ATOM     28  C   UNL     1       0.852  -5.225   1.636  0.00  0.00    +0.022 A 
ATOM     29  C   UNL     1       1.242  -6.423   1.067  0.00  0.00    +0.007 A 
ATOM     30  C   UNL     1       0.567  -6.919  -0.033  0.00  0.00    -0.025 A 
ATOM     31  C   UNL     1      -0.498  -6.216  -0.564  0.00  0.00    +0.007 A 
ATOM     32  C   UNL     1      -0.891  -5.020   0.007  0.00  0.00    +0.022 A 
BRANCH  27  33
ATOM     33  N   UNL     1      -0.607  -3.310   1.679  0.00  0.00    -0.394 NA
ATOM     34  H   UNL     1      -1.396  -2.938   1.171  0.00  0.00    +0.126 HD
BRANCH  33  36
ATOM     35  C   UNL     1      -1.537  -2.234   3.672  0.00  0.00    +0.022 C 
ATOM     36  C   UNL     1      -0.987  -3.534   3.080  0.00  0.00    +0.081 C 
ENDBRANCH  33  36
BRANCH  33  37
ATOM     37  C   UNL     1       0.507  -2.355   1.620  0.00  0.00    +0.081 C 
ATOM     38  C   UNL     1       0.822  -2.026   0.159  0.00  0.00    +0.022 C 
ENDBRANCH  33  37
ENDBRANCH  27  33
ENDBRANCH   1  30
TORSDOF 5
