REMARK  Name = ZINC63764150
REMARK  8 active torsions:
REMARK  status: ('A' for Active; 'I' for Inactive)
REMARK    1  A    between atoms: C_1  and  C_2
REMARK    2  A    between atoms: C_2  and  C_3
REMARK    3  A    between atoms: C_3  and  N_4
REMARK    4  A    between atoms: N_4  and  C_5
REMARK    5  A    between atoms: N_4  and  S_10
REMARK    6  A    between atoms: C_5  and  C_6
REMARK    7  A    between atoms: S_10  and  C_13
REMARK    8  A    between atoms: C_15  and  C_20
REMARK                            x       y       z     vdW  Elec       q    Type
REMARK                         _______ _______ _______ _____ _____    ______ ____
ROOT
ATOM      1  S   UNL     1      -0.599  -2.701   2.090  0.00  0.00    +0.064 S 
ATOM      2  O   UNL     1       0.097  -3.512   3.027  0.00  0.00    -0.153 OA
ATOM      3  O   UNL     1      -1.590  -1.763   2.483  0.00  0.00    -0.153 OA
ENDROOT
BRANCH   1   4
ATOM      4  C   UNL     1      -1.369  -3.800   0.947  0.00  0.00    +0.141 A 
ATOM      5  C   UNL     1      -1.258  -5.166   1.120  0.00  0.00    +0.034 A 
ATOM      6  C   UNL     1      -1.863  -6.028   0.224  0.00  0.00    -0.048 A 
ATOM      7  C   UNL     1      -2.578  -5.524  -0.846  0.00  0.00    +0.006 A 
ATOM      8  C   UNL     1      -2.690  -4.158  -1.021  0.00  0.00    +0.040 A 
ATOM      9  C   UNL     1      -2.090  -3.294  -0.121  0.00  0.00    +0.150 A 
ATOM     10  F   UNL     1      -2.203  -1.958  -0.288  0.00  0.00    -0.203 F 
ATOM     11  C   UNL     1      -1.741  -7.518   0.414  0.00  0.00    +0.044 C 
ENDBRANCH   1   4
BRANCH   1  12
ATOM     12  N   UNL     1       0.551  -1.852   1.253  0.00  0.00    -0.168 NA
BRANCH  12  13
ATOM     13  C   UNL     1       0.185  -0.620   0.551  0.00  0.00    +0.109 C 
BRANCH  13  15
ATOM     14  C   UNL     1      -0.174   0.409  -1.698  0.00  0.00    +0.005 C 
ATOM     15  C   UNL     1       0.336  -0.829  -0.958  0.00  0.00    +0.014 C 
ENDBRANCH  13  15
ENDBRANCH  12  13
BRANCH  12  16
ATOM     16  C   UNL     1       1.935  -2.333   1.216  0.00  0.00    +0.222 C 
BRANCH  16  17
ATOM     17  C   UNL     1       2.745  -1.641   2.313  0.00  0.00    +0.404 C 
ATOM     18  F   UNL     1       2.184  -1.931   3.562  0.00  0.00    -0.169 F 
ATOM     19  F   UNL     1       4.066  -2.100   2.278  0.00  0.00    -0.169 F 
ATOM     20  F   UNL     1       2.727  -0.258   2.104  0.00  0.00    -0.169 F 
ENDBRANCH  16  17
ENDBRANCH  12  16
ENDBRANCH   1  12
TORSDOF 6
