REMARK  Name = ZINC11855711
REMARK  5 active torsions:
REMARK  status: ('A' for Active; 'I' for Inactive)
REMARK    1  A    between atoms: C_3  and  C_6
REMARK    2  A    between atoms: C_8  and  N_22
REMARK    3  A    between atoms: C_23  and  C_25
REMARK    4  A    between atoms: C_25  and  C_26
REMARK    5  A    between atoms: C_26  and  C_27
REMARK                            x       y       z     vdW  Elec       q    Type
REMARK                         _______ _______ _______ _____ _____    ______ ____
ROOT
ATOM      1  C   UNL     1       7.665   2.708   1.548  0.00  0.00    +0.102 A 
ATOM      2  C   UNL     1       6.317   2.485   1.196  0.00  0.00    +0.074 A 
ATOM      3  C   UNL     1       5.793   1.613   2.093  0.00  0.00    +0.132 A 
ATOM      4  N   UNL     1       6.775   1.298   2.989  0.00  0.00    -0.185 N 
ATOM      5  N   UNL     1       7.934   1.992   2.621  0.00  0.00    -0.162 NA
ATOM      6  C   UNL     1       6.647   0.443   4.066  0.00  0.00    +0.234 A 
ATOM      7  N   UNL     1       7.720   0.221   4.872  0.00  0.00    -0.291 N 
ATOM      8  H   UNL     1       8.566   0.660   4.690  0.00  0.00    +0.172 HD
ATOM      9  C   UNL     1       7.600  -0.609   5.930  0.00  0.00    +0.256 A 
ATOM     10  O   UNL     1       8.549  -0.817   6.667  0.00  0.00    -0.267 OA
ATOM     11  C   UNL     1       6.360  -1.234   6.163  0.00  0.00    +0.038 A 
ATOM     12  C   UNL     1       5.321  -0.978   5.319  0.00  0.00    +0.053 A 
ATOM     13  N   UNL     1       5.494  -0.144   4.291  0.00  0.00    -0.217 NA
ATOM     14  C   UNL     1       4.096  -1.752   5.758  0.00  0.00    +0.056 C 
ATOM     15  C   UNL     1       4.629  -2.843   6.712  0.00  0.00    +0.011 C 
ATOM     16  C   UNL     1       5.930  -2.201   7.243  0.00  0.00    +0.043 C 
ENDROOT
BRANCH   1  19
ATOM     17  C   UNL     1      10.617   4.726   0.305  0.00  0.00    +0.008 A 
ATOM     18  C   UNL     1       9.926   3.856   1.120  0.00  0.00    +0.018 A 
ATOM     19  C   UNL     1       8.612   3.593   0.837  0.00  0.00    +0.039 A 
ATOM     20  S   UNL     1       8.343   4.589  -0.620  0.00  0.00    -0.095 S 
ATOM     21  C   UNL     1       9.978   5.293  -0.750  0.00  0.00    +0.046 A 
ENDBRANCH   1  19
BRANCH   3  22
ATOM     22  N   UNL     1       4.486   1.131   2.103  0.00  0.00    -0.270 N 
ATOM     23  C   UNL     1       3.613   1.531   1.157  0.00  0.00    +0.218 C 
ATOM     24  O   UNL     1       3.965   2.311   0.298  0.00  0.00    -0.275 OA
ATOM     25  H   UNL     1       4.204   0.507   2.791  0.00  0.00    +0.156 HD
BRANCH  23  26
ATOM     26  C   UNL     1       2.199   1.009   1.168  0.00  0.00    +0.096 C 
BRANCH  26  27
ATOM     27  C   UNL     1       1.423   1.615  -0.003  0.00  0.00    +0.013 C 
BRANCH  27  28
ATOM     28  C   UNL     1      -0.013   1.086   0.008  0.00  0.00    -0.011 C 
ATOM     29  C   UNL     1      -0.729   1.579   1.267  0.00  0.00    +0.003 C 
ATOM     30  C   UNL     1      -2.164   1.050   1.278  0.00  0.00    +0.000 C 
ATOM     31  C   UNL     1      -2.904   1.556   0.038  0.00  0.00    +0.000 C 
ATOM     32  C   UNL     1      -2.188   1.063  -1.221  0.00  0.00    +0.000 C 
ATOM     33  C   UNL     1      -0.753   1.593  -1.232  0.00  0.00    +0.003 C 
ENDBRANCH  27  28
ENDBRANCH  26  27
ENDBRANCH  23  26
ENDBRANCH   3  22
TORSDOF 5
