REMARK  Name = ZINC15319046
REMARK  4 active torsions:
REMARK  status: ('A' for Active; 'I' for Inactive)
REMARK    1  A    between atoms: C_6  and  C_7
REMARK    2  A    between atoms: C_10  and  C_36
REMARK    3  A    between atoms: C_14  and  C_17
REMARK    4  A    between atoms: N_22  and  C_25
REMARK                            x       y       z     vdW  Elec       q    Type
REMARK                         _______ _______ _______ _____ _____    ______ ____
ROOT
ATOM      1  C   UNL     1      -2.949  -2.501   0.578  0.00  0.00    +0.104 C 
ATOM      2  C   UNL     1      -2.601  -3.094   1.948  0.00  0.00    +0.063 C 
ATOM      3  C   UNL     1      -1.093  -2.974   2.197  0.00  0.00    +0.215 C 
ATOM      4  N   UNL     1      -0.376  -3.487   1.025  0.00  0.00    -0.238 N 
ATOM      5  C   UNL     1      -0.941  -3.624  -0.198  0.00  0.00    +0.130 A 
ATOM      6  C   UNL     1       0.023  -4.134  -1.048  0.00  0.00    +0.096 A 
ATOM      7  C   UNL     1       1.202  -4.297  -0.277  0.00  0.00    +0.149 A 
ATOM      8  N   UNL     1       0.949  -3.910   0.944  0.00  0.00    -0.177 NA
ATOM      9  N   UNL     1      -2.260  -3.287  -0.465  0.00  0.00    -0.322 N 
ATOM     10  H   UNL     1      -2.706  -3.552  -1.285  0.00  0.00    +0.148 HD
ENDROOT
BRANCH   6  11
ATOM     11  C   UNL     1      -0.142  -4.446  -2.473  0.00  0.00    +0.251 C 
ATOM     12  O   UNL     1      -0.827  -3.728  -3.177  0.00  0.00    -0.270 OA
ATOM     13  N   UNL     1       0.466  -5.527  -3.000  0.00  0.00    -0.301 N 
ATOM     14  C   UNL     1       1.198  -6.475  -2.147  0.00  0.00    +0.089 C 
ATOM     15  C   UNL     1       0.713  -7.893  -2.467  0.00  0.00    -0.059 C 
ATOM     16  N   UNL     1       0.850  -8.143  -3.907  0.00  0.00    +0.385 N 
ATOM     17  C   UNL     1      -0.035  -7.243  -4.657  0.00  0.00    -0.059 C 
ATOM     18  C   UNL     1       0.409  -5.796  -4.446  0.00  0.00    +0.089 C 
ATOM     19  H   UNL     1       1.806  -7.981  -4.185  0.00  0.00    -0.081 HD
BRANCH  16  20
ATOM     20  C   UNL     1       0.488  -9.537  -4.197  0.00  0.00    -0.065 C 
ATOM     21  C   UNL     1      -0.960  -9.787  -3.771  0.00  0.00    -0.009 C 
ATOM     22  C   UNL     1      -1.336 -11.239  -4.072  0.00  0.00    -0.012 C 
ATOM     23  C   UNL     1      -1.194 -11.502  -5.573  0.00  0.00    +0.007 C 
ATOM     24  C   UNL     1       0.254 -11.251  -5.999  0.00  0.00    -0.012 C 
ATOM     25  C   UNL     1       0.631  -9.799  -5.697  0.00  0.00    -0.009 C 
ATOM     26  C   UNL     1       1.183 -12.190  -5.226  0.00  0.00    +0.007 C 
ATOM     27  C   UNL     1       1.040 -11.928  -3.726  0.00  0.00    -0.012 C 
ATOM     28  C   UNL     1      -0.408 -12.178  -3.300  0.00  0.00    +0.007 C 
ATOM     29  C   UNL     1       1.417 -10.476  -3.424  0.00  0.00    -0.009 C 
ENDBRANCH  16  20
ENDBRANCH   6  11
BRANCH   1  35
ATOM     30  C   UNL     1      -3.402  -0.043   0.702  0.00  0.00    +0.008 A 
ATOM     31  C   UNL     1      -2.984   1.273   0.645  0.00  0.00    +0.038 A 
ATOM     32  C   UNL     1      -1.653   1.567   0.402  0.00  0.00    +0.123 A 
ATOM     33  C   UNL     1      -0.743   0.540   0.215  0.00  0.00    +0.038 A 
ATOM     34  C   UNL     1      -1.163  -0.775   0.272  0.00  0.00    +0.008 A 
ATOM     35  C   UNL     1      -2.492  -1.066   0.516  0.00  0.00    -0.027 A 
ATOM     36  F   UNL     1      -1.244   2.853   0.345  0.00  0.00    -0.205 F 
ENDBRANCH   1  35
BRANCH   3  37
ATOM     37  C   UNL     1      -0.711  -3.792   3.433  0.00  0.00    +0.412 C 
ATOM     38  F   UNL     1      -1.043  -5.135   3.224  0.00  0.00    -0.168 F 
ATOM     39  F   UNL     1       0.665  -3.681   3.659  0.00  0.00    -0.168 F 
ATOM     40  F   UNL     1      -1.407  -3.307   4.546  0.00  0.00    -0.168 F 
ENDBRANCH   3  37
TORSDOF 4
