REMARK  Name = ZINC13498469
REMARK  16 active torsions:
REMARK  status: ('A' for Active; 'I' for Inactive)
REMARK    1  A    between atoms: C_1  and  C_2
REMARK    2  A    between atoms: C_2  and  C_3
REMARK    3  A    between atoms: C_10  and  C_15
REMARK    4  A    between atoms: C_15  and  N_72
REMARK    5  A    between atoms: C_16  and  C_17
REMARK    6  A    between atoms: C_16  and  N_72
REMARK    7  A    between atoms: C_17  and  C_18
REMARK    8  A    between atoms: C_18  and  O_19
REMARK    9  A    between atoms: C_20  and  C_22
REMARK   10  A    between atoms: C_20  and  C_35
REMARK   11  A    between atoms: C_20  and  N_72
REMARK   12  A    between atoms: N_26  and  C_27
REMARK   13  A    between atoms: C_27  and  C_28
REMARK   14  A    between atoms: C_28  and  C_29
REMARK   15  A    between atoms: C_35  and  C_36
REMARK   16  A    between atoms: C_35  and  C_37
REMARK                            x       y       z     vdW  Elec       q    Type
REMARK                         _______ _______ _______ _____ _____    ______ ____
ROOT
ATOM      1  N   UNL     1      -2.828   4.136   1.740  0.00  0.00    +0.389 N 
ATOM      2  H   UNL     1      -1.863   4.487   1.725  0.00  0.00    -0.080 HD
ENDROOT
BRANCH   1   3
ATOM      3  C   UNL     1      -3.118   3.472   0.452  0.00  0.00    -0.037 C 
BRANCH   3  11
ATOM      4  C   UNL     1       1.834   4.071  -3.211  0.00  0.00    -0.047 A 
ATOM      5  C   UNL     1       1.405   5.218  -3.865  0.00  0.00    +0.005 A 
ATOM      6  C   UNL     1       0.193   5.794  -3.554  0.00  0.00    +0.026 A 
ATOM      7  C   UNL     1      -0.612   5.222  -2.574  0.00  0.00    +0.049 A 
ATOM      8  C   UNL     1      -0.174   4.059  -1.912  0.00  0.00    -0.001 A 
ATOM      9  C   UNL     1       1.060   3.492  -2.245  0.00  0.00    +0.013 A 
ATOM     10  C   UNL     1      -1.025   3.469  -0.878  0.00  0.00    +0.017 A 
ATOM     11  C   UNL     1      -2.215   4.059  -0.603  0.00  0.00    +0.001 A 
ATOM     12  C   UNL     1      -2.607   5.224  -1.296  0.00  0.00    +0.251 A 
ATOM     13  O   UNL     1      -3.678   5.742  -1.029  0.00  0.00    -0.268 OA
ATOM     14  N   UNL     1      -1.830   5.777  -2.243  0.00  0.00    -0.322 N 
ATOM     15  H   UNL     1      -2.130   6.578  -2.700  0.00  0.00    +0.169 HD
BRANCH   4  17
ATOM     16  C   UNL     1       2.970   2.439  -4.692  0.00  0.00    +0.009 C 
ATOM     17  C   UNL     1       3.164   3.459  -3.568  0.00  0.00    +0.032 C 
ENDBRANCH   4  17
ENDBRANCH   3  11
ENDBRANCH   1   3
BRANCH   1  18
ATOM     18  C   UNL     1      -2.970   3.169   2.849  0.00  0.00    -0.075 C 
BRANCH  18  19
ATOM     19  C   UNL     1      -1.721   2.287   2.893  0.00  0.00    +0.009 C 
BRANCH  19  20
ATOM     20  C   UNL     1      -1.876   1.238   3.995  0.00  0.00    +0.154 C 
BRANCH  20  21
ATOM     21  O   UNL     1      -0.709   0.413   4.036  0.00  0.00    -0.395 OA
ATOM     22  H   UNL     1      -0.738  -0.276   4.714  0.00  0.00    +0.209 HD
ENDBRANCH  20  21
ENDBRANCH  19  20
ENDBRANCH  18  19
ENDBRANCH   1  18
BRANCH   1  23
ATOM     23  C   UNL     1      -3.750   5.274   1.940  0.00  0.00    +0.006 C 
BRANCH  23  24
ATOM     24  C   UNL     1      -5.139   4.779   2.252  0.00  0.00    +0.138 A 
ATOM     25  N   UNL     1      -5.466   3.872   3.139  0.00  0.00    -0.115 NA
ATOM     26  N   UNL     1      -6.746   3.728   3.108  0.00  0.00    -0.023 NA
ATOM     27  N   UNL     1      -7.243   4.514   2.218  0.00  0.00    -0.044 NA
ATOM     28  N   UNL     1      -6.284   5.179   1.668  0.00  0.00    -0.231 N 
BRANCH  28  29
ATOM     29  C   UNL     1      -6.416   6.181   0.607  0.00  0.00    +0.152 C 
BRANCH  29  30
ATOM     30  C   UNL     1      -6.582   5.477  -0.742  0.00  0.00    +0.058 C 
BRANCH  30  31
ATOM     31  C   UNL     1      -6.874   6.500  -1.809  0.00  0.00    -0.046 A 
ATOM     32  C   UNL     1      -8.173   6.920  -2.026  0.00  0.00    +0.004 A 
ATOM     33  C   UNL     1      -8.441   7.862  -3.002  0.00  0.00    +0.000 A 
ATOM     34  C   UNL     1      -7.411   8.376  -3.768  0.00  0.00    +0.000 A 
ATOM     35  C   UNL     1      -6.113   7.951  -3.554  0.00  0.00    +0.000 A 
ATOM     36  C   UNL     1      -5.845   7.013  -2.575  0.00  0.00    +0.004 A 
ENDBRANCH  30  31
ENDBRANCH  29  30
ENDBRANCH  28  29
ENDBRANCH  23  24
BRANCH  23  37
ATOM     37  C   UNL     1      -3.238   6.122   3.106  0.00  0.00    -0.024 C 
ATOM     38  C   UNL     1      -1.845   6.660   2.772  0.00  0.00    +0.006 C 
ATOM     39  C   UNL     1      -4.193   7.294   3.342  0.00  0.00    +0.006 C 
ENDBRANCH  23  37
ENDBRANCH   1  23
TORSDOF 13
