REMARK  Name = ZINC09829642
REMARK  6 active torsions:
REMARK  status: ('A' for Active; 'I' for Inactive)
REMARK    1  A    between atoms: C_5  and  N_7
REMARK    2  A    between atoms: N_10  and  C_13
REMARK    3  A    between atoms: C_13  and  C_15
REMARK    4  A    between atoms: C_13  and  C_28
REMARK    5  A    between atoms: C_15  and  N_16
REMARK    6  A    between atoms: C_17  and  C_19
REMARK                            x       y       z     vdW  Elec       q    Type
REMARK                         _______ _______ _______ _____ _____    ______ ____
ROOT
ATOM      1  C   UNL     1       3.249  -5.743  -0.053  0.00  0.00    +0.017 C 
ENDROOT
BRANCH   1   5
ATOM      2  N   UNL     1       0.382  -3.137  -1.634  0.00  0.00    -0.331 N 
ATOM      3  C   UNL     1       1.792  -2.739  -1.767  0.00  0.00    +0.086 C 
ATOM      4  C   UNL     1       2.668  -3.981  -1.572  0.00  0.00    -0.059 C 
ATOM      5  N   UNL     1       2.335  -4.617  -0.291  0.00  0.00    +0.389 N 
ATOM      6  C   UNL     1       0.952  -5.110  -0.321  0.00  0.00    -0.059 C 
ATOM      7  C   UNL     1      -0.009  -3.918  -0.451  0.00  0.00    +0.086 C 
ATOM      8  H   UNL     1       2.435  -3.944   0.454  0.00  0.00    -0.081 HD
BRANCH   2  13
ATOM      9  C   UNL     1      -2.186  -1.229  -3.446  0.00  0.00    +0.002 A 
ATOM     10  C   UNL     1      -2.427  -2.066  -4.520  0.00  0.00    +0.003 A 
ATOM     11  C   UNL     1      -1.737  -3.259  -4.639  0.00  0.00    +0.040 A 
ATOM     12  C   UNL     1      -0.804  -3.618  -3.684  0.00  0.00    +0.144 A 
ATOM     13  C   UNL     1      -0.560  -2.777  -2.603  0.00  0.00    +0.065 A 
ATOM     14  C   UNL     1      -1.256  -1.581  -2.487  0.00  0.00    +0.026 A 
ATOM     15  F   UNL     1      -0.130  -4.783  -3.801  0.00  0.00    -0.204 F 
ENDBRANCH   2  13
ENDBRANCH   1   5
BRANCH   1  16
ATOM     16  C   UNL     1       3.176  -6.702  -1.214  0.00  0.00    +0.093 A 
ATOM     17  C   UNL     1       4.229  -7.220  -1.873  0.00  0.00    +0.043 A 
ATOM     18  C   UNL     1       3.706  -8.064  -2.880  0.00  0.00    +0.041 A 
ATOM     19  C   UNL     1       2.366  -8.010  -2.776  0.00  0.00    +0.195 A 
ATOM     20  O   UNL     1       2.051  -7.189  -1.761  0.00  0.00    -0.469 OA
ENDBRANCH   1  16
BRANCH   1  21
ATOM     21  C   UNL     1       2.843  -6.466   1.232  0.00  0.00    +0.097 C 
BRANCH  21  22
ATOM     22  N   UNL     1       2.843  -5.517   2.348  0.00  0.00    -0.312 N 
ATOM     23  C   UNL     1       2.413  -5.906   3.564  0.00  0.00    +0.244 C 
ATOM     24  O   UNL     1       2.026  -7.046   3.736  0.00  0.00    -0.270 OA
ATOM     25  H   UNL     1       3.151  -4.607   2.211  0.00  0.00    +0.149 HD
BRANCH  23  26
ATOM     26  C   UNL     1       2.413  -4.949   4.688  0.00  0.00    +0.040 A 
ATOM     27  C   UNL     1       2.851  -3.638   4.491  0.00  0.00    +0.017 A 
ATOM     28  C   UNL     1       2.849  -2.745   5.541  0.00  0.00    +0.050 A 
ATOM     29  C   UNL     1       2.412  -3.145   6.797  0.00  0.00    +0.166 A 
ATOM     30  C   UNL     1       1.973  -4.454   7.000  0.00  0.00    +0.167 A 
ATOM     31  C   UNL     1       1.968  -5.351   5.950  0.00  0.00    +0.062 A 
ATOM     32  O   UNL     1       1.601  -4.590   8.307  0.00  0.00    -0.453 OA
ATOM     33  C   UNL     1       2.199  -3.476   8.995  0.00  0.00    +0.466 C 
ATOM     34  O   UNL     1       2.314  -2.466   7.975  0.00  0.00    -0.453 OA
ENDBRANCH  23  26
ENDBRANCH  21  22
ENDBRANCH   1  21
TORSDOF 6
