REMARK  Name = ZINC67063309
REMARK  6 active torsions:
REMARK  status: ('A' for Active; 'I' for Inactive)
REMARK    1  A    between atoms: C_4  and  N_7
REMARK    2  A    between atoms: C_10  and  C_13
REMARK    3  A    between atoms: C_13  and  N_14
REMARK    4  A    between atoms: N_17  and  N_18
REMARK    5  A    between atoms: C_19  and  C_21
REMARK    6  A    between atoms: C_21  and  C_22
REMARK                            x       y       z     vdW  Elec       q    Type
REMARK                         _______ _______ _______ _____ _____    ______ ____
ROOT
ATOM      1  N   UNL     1       7.114  -3.872   0.626  0.00  0.00    -0.298 N 
ATOM      2  C   UNL     1       7.822  -4.981   0.335  0.00  0.00    +0.316 C 
ATOM      3  O   UNL     1       7.347  -5.831  -0.394  0.00  0.00    -0.251 OA
ATOM      4  N   UNL     1       9.055  -5.148   0.851  0.00  0.00    -0.218 N 
ATOM      5  H   UNL     1       7.492  -3.194   1.208  0.00  0.00    +0.150 HD
ATOM      6  H   UNL     1       9.565  -5.947   0.641  0.00  0.00    +0.174 HD
ENDROOT
BRANCH   4   7
ATOM      7  N   UNL     1       9.602  -4.169   1.691  0.00  0.00    -0.233 N 
ATOM      8  C   UNL     1      10.835  -4.336   2.208  0.00  0.00    +0.229 C 
ATOM      9  O   UNL     1      11.472  -5.335   1.945  0.00  0.00    -0.274 OA
ATOM     10  H   UNL     1       9.092  -3.371   1.901  0.00  0.00    +0.173 HD
BRANCH   8  11
ATOM     11  C   UNL     1      11.423  -3.283   3.111  0.00  0.00    +0.101 C 
BRANCH  11  12
ATOM     12  C   UNL     1      12.822  -3.716   3.556  0.00  0.00    -0.002 C 
ATOM     13  C   UNL     1      12.716  -4.975   4.418  0.00  0.00    +0.004 C 
ATOM     14  C   UNL     1      14.114  -5.407   4.863  0.00  0.00    +0.000 C 
ATOM     15  C   UNL     1      14.761  -4.285   5.677  0.00  0.00    +0.000 C 
ATOM     16  C   UNL     1      14.866  -3.025   4.815  0.00  0.00    +0.000 C 
ATOM     17  C   UNL     1      13.468  -2.593   4.370  0.00  0.00    +0.004 C 
ENDBRANCH  11  12
ENDBRANCH   8  11
ENDBRANCH   4   7
BRANCH   1  18
ATOM     18  C   UNL     1       5.773  -3.690   0.065  0.00  0.00    +0.111 C 
BRANCH  18  22
ATOM     19  N   UNL     1       3.620  -0.649  -0.036  0.00  0.00    -0.330 N 
ATOM     20  C   UNL     1       4.950  -0.023  -0.040  0.00  0.00    +0.105 C 
ATOM     21  C   UNL     1       5.992  -1.161  -0.031  0.00  0.00    +0.025 C 
ATOM     22  C   UNL     1       5.194  -2.359   0.549  0.00  0.00    +0.025 C 
ATOM     23  C   UNL     1       3.787  -2.114  -0.046  0.00  0.00    +0.110 C 
BRANCH  19  27
ATOM     24  C   UNL     1      -0.017   1.379   0.010  0.00  0.00    +0.000 A 
ATOM     25  C   UNL     1       1.169   2.089   0.002  0.00  0.00    +0.002 A 
ATOM     26  C   UNL     1       2.377   1.420  -0.013  0.00  0.00    +0.023 A 
ATOM     27  C   UNL     1       2.400   0.031  -0.021  0.00  0.00    +0.030 A 
ATOM     28  C   UNL     1       1.206  -0.680  -0.013  0.00  0.00    +0.023 A 
ATOM     29  C   UNL     1       0.002  -0.004   0.002  0.00  0.00    +0.002 A 
ENDBRANCH  19  27
ENDBRANCH  18  22
ENDBRANCH   1  18
TORSDOF 6
