REMARK  Name = ZINC25459617
REMARK  11 active torsions:
REMARK  status: ('A' for Active; 'I' for Inactive)
REMARK    1  A    between atoms: C_1  and  C_2
REMARK    2  A    between atoms: C_3  and  C_15
REMARK    3  A    between atoms: C_4  and  S_13
REMARK    4  A    between atoms: C_6  and  C_8
REMARK    5  A    between atoms: S_13  and  C_14
REMARK    6  A    between atoms: C_15  and  O_17
REMARK    7  A    between atoms: O_17  and  C_18
REMARK    8  A    between atoms: C_18  and  C_19
REMARK    9  A    between atoms: N_21  and  C_22
REMARK   10  A    between atoms: C_25  and  S_28
REMARK   11  A    between atoms: S_28  and  C_29
REMARK                            x       y       z     vdW  Elec       q    Type
REMARK                         _______ _______ _______ _____ _____    ______ ____
ROOT
ATOM      1  C   UNL     1       2.762   8.841   0.055  0.00  0.00    +0.344 C 
ATOM      2  O   UNL     1       2.826   9.445  -0.998  0.00  0.00    -0.245 OA
ENDROOT
BRANCH   1   5
ATOM      3  C   UNL     1       4.881   6.840  -0.118  0.00  0.00    +0.066 C 
ATOM      4  C   UNL     1       3.433   6.436  -0.020  0.00  0.00    +0.057 A 
ATOM      5  C   UNL     1       2.429   7.409   0.062  0.00  0.00    +0.112 A 
ATOM      6  C   UNL     1       1.085   6.978   0.151  0.00  0.00    +0.115 A 
ATOM      7  N   UNL     1       0.830   5.675   0.148  0.00  0.00    -0.220 NA
ATOM      8  C   UNL     1       1.818   4.789   0.073  0.00  0.00    +0.168 A 
ATOM      9  N   UNL     1       3.094   5.162  -0.012  0.00  0.00    -0.231 NA
BRANCH   8  10
ATOM     10  C   UNL     1       1.492   3.353   0.079  0.00  0.00    +0.056 A 
ATOM     11  C   UNL     1       0.255   2.741   0.158  0.00  0.00    +0.019 A 
ATOM     12  C   UNL     1       0.233   1.366   0.136  0.00  0.00    +0.008 A 
ATOM     13  C   UNL     1       1.405   0.687   0.052  0.00  0.00    +0.046 A 
ATOM     14  S   UNL     1       2.590   1.951  -0.015  0.00  0.00    -0.094 S 
ENDBRANCH   8  10
BRANCH   6  15
ATOM     15  S   UNL     1      -0.228   8.148   0.256  0.00  0.00    -0.108 S 
ATOM     16  C   UNL     1      -1.644   7.024   0.342  0.00  0.00    +0.091 C 
ENDBRANCH   6  15
ENDBRANCH   1   5
BRANCH   1  17
ATOM     17  O   UNL     1       2.998   9.483   1.216  0.00  0.00    -0.452 OA
BRANCH  17  18
ATOM     18  C   UNL     1       3.321  10.896   1.134  0.00  0.00    +0.328 C 
BRANCH  18  19
ATOM     19  C   UNL     1       3.550  11.441   2.520  0.00  0.00    +0.255 C 
ATOM     20  O   UNL     1       3.450  10.710   3.483  0.00  0.00    -0.272 OA
ATOM     21  N   UNL     1       3.866  12.740   2.690  0.00  0.00    -0.283 N 
ATOM     22  H   UNL     1       4.042  13.383   1.814  0.00  0.00    +0.155 HD
BRANCH  21  23
ATOM     23  C   UNL     1       3.970  13.273   3.982  0.00  0.00    +0.034 A 
ATOM     24  C   UNL     1       3.149  12.799   4.997  0.00  0.00    +0.024 A 
ATOM     25  C   UNL     1       3.255  13.320   6.271  0.00  0.00    +0.016 A 
ATOM     26  C   UNL     1       4.175  14.326   6.535  0.00  0.00    +0.008 A 
ATOM     27  C   UNL     1       4.993  14.804   5.519  0.00  0.00    +0.016 A 
ATOM     28  C   UNL     1       4.890  14.279   4.246  0.00  0.00    +0.024 A 
BRANCH  26  29
ATOM     29  S   UNL     1       4.307  14.995   8.160  0.00  0.00    -0.129 S 
ATOM     30  C   UNL     1       3.067  14.077   9.114  0.00  0.00    +0.090 C 
ENDBRANCH  26  29
ENDBRANCH  21  23
ENDBRANCH  18  19
ENDBRANCH  17  18
ENDBRANCH   1  17
TORSDOF 8
