REMARK  Name = ZINC04179026
REMARK  5 active torsions:
REMARK  status: ('A' for Active; 'I' for Inactive)
REMARK    1  A    between atoms: C_6  and  O_25
REMARK    2  A    between atoms: C_7  and  C_11
REMARK    3  A    between atoms: C_14  and  C_21
REMARK    4  A    between atoms: C_14  and  O_24
REMARK    5  A    between atoms: C_16  and  C_18
REMARK                            x       y       z     vdW  Elec       q    Type
REMARK                         _______ _______ _______ _____ _____    ______ ____
ROOT
ATOM      1  C   UNL     1      -0.014   1.212   0.009  0.00  0.00    +0.272 C 
ATOM      2  O   UNL     1      -0.056  -0.003  -0.023  0.00  0.00    -0.268 OA
ATOM      3  N   UNL     1       1.175   1.846   0.025  0.00  0.00    -0.151 N 
ATOM      4  C   UNL     1       2.493   1.196   0.119  0.00  0.00    +0.222 C 
ATOM      5  C   UNL     1       3.475   2.384   0.095  0.00  0.00    +0.121 C 
ATOM      6  C   UNL     1       2.576   3.594  -0.013  0.00  0.00    +0.107 C 
ATOM      7  N   UNL     1       1.361   3.225  -0.050  0.00  0.00    -0.178 NA
ENDROOT
BRANCH   1  14
ATOM      8  C   UNL     1      -3.574   6.200  -0.140  0.00  0.00    +0.001 A 
ATOM      9  C   UNL     1      -4.793   5.533  -0.028  0.00  0.00    +0.001 A 
ATOM     10  C   UNL     1      -4.844   4.176   0.067  0.00  0.00    +0.008 A 
ATOM     11  C   UNL     1      -3.652   3.431   0.053  0.00  0.00    -0.014 A 
ATOM     12  C   UNL     1      -3.675   2.030   0.150  0.00  0.00    +0.054 A 
ATOM     13  C   UNL     1      -2.506   1.327   0.135  0.00  0.00    +0.130 A 
ATOM     14  C   UNL     1      -1.266   1.992   0.023  0.00  0.00    +0.081 A 
ATOM     15  C   UNL     1      -1.218   3.374  -0.069  0.00  0.00    +0.025 A 
ATOM     16  C   UNL     1      -2.411   4.109  -0.060  0.00  0.00    -0.017 A 
ATOM     17  C   UNL     1      -2.399   5.513  -0.157  0.00  0.00    +0.008 A 
BRANCH  13  18
ATOM     18  O   UNL     1      -2.536  -0.027   0.229  0.00  0.00    -0.506 OA
ATOM     19  H   UNL     1      -2.497  -0.359   1.137  0.00  0.00    +0.292 HD
ENDBRANCH  13  18
ENDBRANCH   1  14
BRANCH   6  20
ATOM     20  C   UNL     1       3.049   5.024  -0.072  0.00  0.00    +0.387 C 
ATOM     21  F   UNL     1       2.083   5.859   0.500  0.00  0.00    -0.203 F 
ATOM     22  F   UNL     1       4.250   5.147   0.635  0.00  0.00    -0.203 F 
ENDBRANCH   6  20
BRANCH   4  23
ATOM     23  C   UNL     1       2.619   0.418   1.430  0.00  0.00    +0.393 C 
ATOM     24  F   UNL     1       3.890  -0.162   1.509  0.00  0.00    -0.204 F 
ATOM     25  F   UNL     1       2.436   1.289   2.509  0.00  0.00    -0.204 F 
ENDBRANCH   4  23
BRANCH   4  26
ATOM     26  O   UNL     1       2.711   0.334  -1.000  0.00  0.00    -0.365 OA
ATOM     27  H   UNL     1       2.072  -0.389  -1.069  0.00  0.00    +0.212 HD
ENDBRANCH   4  26
TORSDOF 5
