REMARK  Name = ZINC43753938
REMARK  11 active torsions:
REMARK  status: ('A' for Active; 'I' for Inactive)
REMARK    1  A    between atoms: C_1  and  C_2
REMARK    2  A    between atoms: C_2  and  N_3
REMARK    3  A    between atoms: N_3  and  C_4
REMARK    4  A    between atoms: N_3  and  C_16
REMARK    5  A    between atoms: C_4  and  C_5
REMARK    6  A    between atoms: C_16  and  C_17
REMARK    7  A    between atoms: N_19  and  N_20
REMARK    8  A    between atoms: C_23  and  C_27
REMARK    9  A    between atoms: C_23  and  C_28
REMARK   10  A    between atoms: C_28  and  C_29
REMARK   11  A    between atoms: C_29  and  C_30
REMARK                            x       y       z     vdW  Elec       q    Type
REMARK                         _______ _______ _______ _____ _____    ______ ____
ROOT
ATOM      1  C   UNL     1      -1.944   1.486  -1.141  0.00  0.00    +0.213 C 
ATOM      2  O   UNL     1      -1.428   2.100  -0.231  0.00  0.00    -0.276 OA
ATOM      3  N   UNL     1      -2.457   2.149  -2.196  0.00  0.00    -0.225 N 
ATOM      4  H   UNL     1      -2.870   1.658  -2.923  0.00  0.00    +0.173 HD
ENDROOT
BRANCH   3   5
ATOM      5  N   UNL     1      -2.395   3.548  -2.242  0.00  0.00    -0.137 N 
ATOM      6  C   UNL     1      -3.446   4.361  -2.017  0.00  0.00    +0.263 C 
ATOM      7  O   UNL     1      -4.581   4.032  -1.746  0.00  0.00    -0.271 OA
ATOM      8  C   UNL     1      -2.913   5.771  -2.171  0.00  0.00    +0.112 C 
ATOM      9  N   UNL     1      -1.490   5.571  -2.496  0.00  0.00    -0.284 N 
ATOM     10  C   UNL     1      -1.283   4.242  -2.510  0.00  0.00    +0.326 C 
ATOM     11  O   UNL     1      -0.206   3.729  -2.742  0.00  0.00    -0.251 OA
ATOM     12  C   UNL     1      -3.630   6.495  -3.314  0.00  0.00    +0.041 C 
ATOM     13  H   UNL     1      -0.832   6.262  -2.665  0.00  0.00    +0.151 HD
BRANCH   8  14
ATOM     14  C   UNL     1      -3.062   6.549  -0.862  0.00  0.00    +0.040 C 
BRANCH  14  15
ATOM     15  C   UNL     1      -2.518   7.967  -1.047  0.00  0.00    +0.038 C 
BRANCH  15  16
ATOM     16  C   UNL     1      -2.664   8.733   0.242  0.00  0.00    -0.047 A 
ATOM     17  C   UNL     1      -3.819   9.452   0.492  0.00  0.00    +0.003 A 
ATOM     18  C   UNL     1      -3.953  10.155   1.675  0.00  0.00    +0.000 A 
ATOM     19  C   UNL     1      -2.934  10.139   2.608  0.00  0.00    +0.000 A 
ATOM     20  C   UNL     1      -1.780   9.419   2.359  0.00  0.00    +0.000 A 
ATOM     21  C   UNL     1      -1.647   8.713   1.178  0.00  0.00    +0.003 A 
ENDBRANCH  15  16
ENDBRANCH  14  15
ENDBRANCH   8  14
ENDBRANCH   3   5
BRANCH   1  22
ATOM     22  C   UNL     1      -2.011  -0.019  -1.091  0.00  0.00    +0.020 C 
BRANCH  22  23
ATOM     23  N   UNL     1      -1.528  -0.488   0.215  0.00  0.00    +0.388 N 
ATOM     24  H   UNL     1      -0.617  -0.094   0.397  0.00  0.00    -0.081 HD
BRANCH  23  26
ATOM     25  C   UNL     1      -0.364  -2.390  -0.797  0.00  0.00    -0.017 C 
ATOM     26  C   UNL     1      -1.435  -1.954   0.205  0.00  0.00    -0.081 C 
ENDBRANCH  23  26
BRANCH  23  27
ATOM     27  C   UNL     1      -2.464  -0.064   1.264  0.00  0.00    -0.030 C 
BRANCH  27  28
ATOM     28  C   UNL     1      -1.900  -0.443   2.635  0.00  0.00    +0.195 C 
ATOM     29  C   UNL     1      -2.922  -0.102   3.728  0.00  0.00    +0.271 C 
ATOM     30  O   UNL     1      -2.357  -0.456   4.995  0.00  0.00    -0.485 OA
ATOM     31  C   UNL     1      -1.073  -0.066   5.223  0.00  0.00    +0.162 A 
ATOM     32  C   UNL     1      -0.588  -0.045   6.522  0.00  0.00    +0.049 A 
ATOM     33  C   UNL     1       0.715   0.344   6.768  0.00  0.00    +0.004 A 
ATOM     34  C   UNL     1       1.538   0.714   5.721  0.00  0.00    +0.004 A 
ATOM     35  C   UNL     1       1.060   0.697   4.424  0.00  0.00    +0.049 A 
ATOM     36  C   UNL     1      -0.247   0.309   4.170  0.00  0.00    +0.162 A 
ATOM     37  O   UNL     1      -0.705   0.305   2.888  0.00  0.00    -0.484 OA
ENDBRANCH  27  28
ENDBRANCH  23  27
ENDBRANCH  22  23
ENDBRANCH   1  22
TORSDOF 9
