REMARK  Name = ZINC48414296
REMARK  6 active torsions:
REMARK  status: ('A' for Active; 'I' for Inactive)
REMARK    1  A    between atoms: C_6  and  C_10
REMARK    2  A    between atoms: C_10  and  C_11
REMARK    3  A    between atoms: C_11  and  N_12
REMARK    4  A    between atoms: N_15  and  C_16
REMARK    5  A    between atoms: C_16  and  C_17
REMARK    6  A    between atoms: C_17  and  N_22
REMARK                            x       y       z     vdW  Elec       q    Type
REMARK                         _______ _______ _______ _____ _____    ______ ____
ROOT
ATOM      1  N   UNL     1       4.124  -5.460   1.172  0.00  0.00    -0.299 N 
ATOM      2  C   UNL     1       3.817  -6.407   2.080  0.00  0.00    +0.300 C 
ATOM      3  O   UNL     1       2.944  -6.202   2.902  0.00  0.00    -0.253 OA
ATOM      4  N   UNL     1       4.477  -7.582   2.079  0.00  0.00    -0.301 N 
ATOM      5  H   UNL     1       4.820  -5.624   0.517  0.00  0.00    +0.150 HD
ATOM      6  H   UNL     1       5.173  -7.746   1.423  0.00  0.00    +0.150 HD
ENDROOT
BRANCH   1   7
ATOM      7  C   UNL     1       3.406  -4.183   1.174  0.00  0.00    +0.112 C 
BRANCH   7   8
ATOM      8  C   UNL     1       3.943  -3.294   0.051  0.00  0.00    +0.076 C 
BRANCH   8  14
ATOM      9  C   UNL     1       0.364   1.515   0.005  0.00  0.00    +0.005 A 
ATOM     10  C   UNL     1       1.584   2.206   0.099  0.00  0.00    +0.018 A 
ATOM     11  C   UNL     1       2.749   1.526   0.144  0.00  0.00    +0.092 A 
ATOM     12  N   UNL     1       2.760   0.162   0.099  0.00  0.00    -0.306 N 
ATOM     13  C   UNL     1       3.773  -0.757   0.127  0.00  0.00    +0.116 A 
ATOM     14  C   UNL     1       3.205  -1.980   0.053  0.00  0.00    +0.062 A 
ATOM     15  N   UNL     1       1.880  -1.831  -0.019  0.00  0.00    -0.233 NA
ATOM     16  C   UNL     1       1.585  -0.539   0.007  0.00  0.00    +0.138 A 
ATOM     17  C   UNL     1       0.360   0.156  -0.040  0.00  0.00    +0.047 A 
ENDBRANCH   8  14
ENDBRANCH   7   8
ENDBRANCH   1   7
BRANCH   4  18
ATOM     18  C   UNL     1       4.143  -8.611   3.066  0.00  0.00    +0.094 C 
BRANCH  18  19
ATOM     19  C   UNL     1       4.945  -9.880   2.771  0.00  0.00    -0.050 C 
ATOM     20  C   UNL     1       4.575 -10.426   1.376  0.00  0.00    -0.010 C 
ATOM     21  C   UNL     1       4.600 -11.965   1.552  0.00  0.00    -0.001 C 
ATOM     22  C   UNL     1       4.005 -12.157   2.969  0.00  0.00    -0.001 C 
ATOM     23  C   UNL     1       4.582 -10.981   3.784  0.00  0.00    -0.010 C 
BRANCH  19  24
ATOM     24  N   UNL     1       6.384  -9.592   2.834  0.00  0.00    +0.386 N 
ATOM     25  C   UNL     1       7.129 -10.766   2.375  0.00  0.00    -0.067 C 
ATOM     26  C   UNL     1       8.582 -10.377   2.078  0.00  0.00    +0.050 C 
ATOM     27  S   UNL     1       9.344  -9.793   3.624  0.00  0.00    -0.164 S 
ATOM     28  C   UNL     1       8.128  -8.584   4.235  0.00  0.00    +0.050 C 
ATOM     29  C   UNL     1       6.743  -9.242   4.210  0.00  0.00    -0.067 C 
ATOM     30  H   UNL     1       6.592  -8.812   2.229  0.00  0.00    -0.081 HD
ENDBRANCH  19  24
ENDBRANCH  18  19
ENDBRANCH   4  18
TORSDOF 6
