REMARK  Name = ZINC18935304
REMARK  7 active torsions:
REMARK  status: ('A' for Active; 'I' for Inactive)
REMARK    1  A    between atoms: C_1  and  N_61
REMARK    2  A    between atoms: C_2  and  C_3
REMARK    3  A    between atoms: C_2  and  N_61
REMARK    4  A    between atoms: N_5  and  C_6
REMARK    5  A    between atoms: C_11  and  C_12
REMARK    6  A    between atoms: N_14  and  C_15
REMARK    7  A    between atoms: C_24  and  N_61
REMARK                            x       y       z     vdW  Elec       q    Type
REMARK                         _______ _______ _______ _____ _____    ______ ____
ROOT
ATOM      1  C   UNL     1      -0.175   2.645   0.077  0.00  0.00    +0.046 A 
ATOM      2  C   UNL     1      -0.691   3.715   0.796  0.00  0.00    +0.024 A 
ATOM      3  C   UNL     1      -0.024   4.923   0.812  0.00  0.00    +0.002 A 
ATOM      4  C   UNL     1       1.157   5.082   0.105  0.00  0.00    +0.001 A 
ATOM      5  C   UNL     1       1.681   4.032  -0.618  0.00  0.00    +0.015 A 
ATOM      6  C   UNL     1       1.020   2.802  -0.640  0.00  0.00    +0.058 A 
ENDROOT
BRANCH   1   9
ATOM      7  C   UNL     1      -2.180   1.385   0.243  0.00  0.00    +0.201 C 
ATOM      8  O   UNL     1      -2.811   2.417   0.322  0.00  0.00    -0.278 OA
ATOM      9  N   UNL     1      -0.845   1.424   0.063  0.00  0.00    -0.286 N 
ATOM     10  H   UNL     1      -0.350   0.601  -0.077  0.00  0.00    +0.155 HD
BRANCH   7  11
ATOM     11  C   UNL     1      -2.888   0.058   0.347  0.00  0.00    +0.019 C 
BRANCH  11  13
ATOM     12  C   UNL     1      -4.969   0.686  -0.719  0.00  0.00    -0.095 C 
ATOM     13  N   UNL     1      -4.329   0.306   0.558  0.00  0.00    +0.388 N 
ATOM     14  H   UNL     1      -4.441   1.076   1.229  0.00  0.00    -0.081 HD
BRANCH  13  15
ATOM     15  C   UNL     1      -4.975  -0.905   1.106  0.00  0.00    -0.037 C 
ATOM     16  C   UNL     1      -4.954  -2.030   0.074  0.00  0.00    -0.010 C 
ATOM     17  C   UNL     1      -5.820  -3.182   0.597  0.00  0.00    +0.003 C 
ATOM     18  C   UNL     1      -7.282  -2.741   0.560  0.00  0.00    +0.035 C 
ATOM     19  C   UNL     1      -7.451  -1.408   1.241  0.00  0.00    -0.046 A 
ATOM     20  C   UNL     1      -6.392  -0.563   1.488  0.00  0.00    -0.058 A 
ATOM     21  C   UNL     1      -6.617   0.656   2.115  0.00  0.00    +0.002 A 
ATOM     22  C   UNL     1      -7.891   1.025   2.494  0.00  0.00    +0.000 A 
ATOM     23  C   UNL     1      -8.953   0.175   2.248  0.00  0.00    +0.000 A 
ATOM     24  C   UNL     1      -8.732  -1.036   1.625  0.00  0.00    +0.004 A 
ENDBRANCH  13  15
ENDBRANCH  11  13
ENDBRANCH   7  11
ENDBRANCH   1   9
BRANCH   6  25
ATOM     25  C   UNL     1       1.576   1.675  -1.412  0.00  0.00    +0.250 C 
ATOM     26  O   UNL     1       0.947   0.639  -1.515  0.00  0.00    -0.270 OA
ATOM     27  N   UNL     1       2.781   1.792  -2.004  0.00  0.00    -0.281 N 
ATOM     28  H   UNL     1       3.313   2.592  -1.866  0.00  0.00    +0.155 HD
BRANCH  27  29
ATOM     29  C   UNL     1       3.265   0.761  -2.817  0.00  0.00    +0.037 A 
ATOM     30  C   UNL     1       4.005   1.062  -3.953  0.00  0.00    +0.027 A 
ATOM     31  C   UNL     1       4.483   0.045  -4.757  0.00  0.00    +0.051 A 
ATOM     32  C   UNL     1       4.227  -1.278  -4.433  0.00  0.00    +0.166 A 
ATOM     33  C   UNL     1       3.485  -1.583  -3.294  0.00  0.00    +0.168 A 
ATOM     34  C   UNL     1       3.011  -0.563  -2.485  0.00  0.00    +0.072 A 
ATOM     35  O   UNL     1       3.373  -2.939  -3.196  0.00  0.00    -0.453 OA
ATOM     36  C   UNL     1       4.396  -3.473  -4.057  0.00  0.00    +0.466 C 
ATOM     37  O   UNL     1       4.579  -2.445  -5.048  0.00  0.00    -0.453 OA
ENDBRANCH  27  29
ENDBRANCH   6  25
TORSDOF 6
