REMARK  Name = ZINC00783156
REMARK  7 active torsions:
REMARK  status: ('A' for Active; 'I' for Inactive)
REMARK    1  A    between atoms: C_1  and  C_2
REMARK    2  A    between atoms: C_7  and  N_8
REMARK    3  A    between atoms: C_9  and  C_11
REMARK    4  A    between atoms: C_11  and  C_20
REMARK    5  A    between atoms: C_12  and  N_13
REMARK    6  A    between atoms: N_22  and  C_23
REMARK    7  A    between atoms: C_28  and  C_29
REMARK                            x       y       z     vdW  Elec       q    Type
REMARK                         _______ _______ _______ _____ _____    ______ ____
ROOT
ATOM      1  C   UNL     1       1.750   3.983   0.586  0.00  0.00    +0.113 C 
ATOM      2  C   UNL     1       1.372   2.733   1.030  0.00  0.00    +0.091 C 
ENDROOT
BRANCH   2   3
ATOM      3  N   UNL     1       0.073   2.349   0.954  0.00  0.00    -0.305 N 
ATOM      4  C   UNL     1      -0.295   1.057   1.320  0.00  0.00    +0.122 A 
ATOM      5  C   UNL     1       0.675   0.164   1.763  0.00  0.00    +0.044 A 
ATOM      6  C   UNL     1       0.297  -1.117   2.124  0.00  0.00    +0.005 A 
ATOM      7  C   UNL     1      -1.044  -1.462   2.029  0.00  0.00    +0.020 A 
ATOM      8  C   UNL     1      -1.954  -0.525   1.580  0.00  0.00    +0.113 A 
ATOM      9  N   UNL     1      -1.565   0.691   1.248  0.00  0.00    -0.240 NA
ATOM     10  H   UNL     1      -0.600   2.974   0.640  0.00  0.00    +0.153 HD
ENDBRANCH   2   3
BRANCH   1  12
ATOM     11  N   UNL     1       0.019   5.638   1.050  0.00  0.00    -0.281 N 
ATOM     12  C   UNL     1       0.731   4.943   0.142  0.00  0.00    +0.255 C 
ATOM     13  O   UNL     1       0.530   5.111  -1.047  0.00  0.00    -0.270 OA
ATOM     14  H   UNL     1       0.232   5.564   1.994  0.00  0.00    +0.155 HD
BRANCH  11  21
ATOM     15  C   UNL     1      -0.844   7.703   2.808  0.00  0.00    +0.045 C 
ATOM     16  C   UNL     1      -1.481   7.486   1.459  0.00  0.00    -0.029 A 
ATOM     17  C   UNL     1      -2.514   8.303   1.044  0.00  0.00    +0.005 A 
ATOM     18  C   UNL     1      -3.099   8.105  -0.194  0.00  0.00    +0.000 A 
ATOM     19  C   UNL     1      -2.651   7.090  -1.019  0.00  0.00    +0.002 A 
ATOM     20  C   UNL     1      -1.615   6.273  -0.612  0.00  0.00    +0.023 A 
ATOM     21  C   UNL     1      -1.028   6.466   0.633  0.00  0.00    +0.037 A 
ENDBRANCH  11  21
ENDBRANCH   1  12
BRANCH   1  22
ATOM     22  C   UNL     1       3.170   4.354   0.557  0.00  0.00    +0.255 C 
ATOM     23  O   UNL     1       4.006   3.597   1.013  0.00  0.00    -0.270 OA
ATOM     24  N   UNL     1       3.548   5.534   0.026  0.00  0.00    -0.281 N 
ATOM     25  H   UNL     1       2.877   6.174  -0.259  0.00  0.00    +0.155 HD
BRANCH  24  26
ATOM     26  C   UNL     1       4.906   5.835  -0.114  0.00  0.00    +0.037 A 
ATOM     27  C   UNL     1       5.849   4.814  -0.116  0.00  0.00    +0.023 A 
ATOM     28  C   UNL     1       7.189   5.114  -0.258  0.00  0.00    +0.002 A 
ATOM     29  C   UNL     1       7.594   6.430  -0.389  0.00  0.00    +0.000 A 
ATOM     30  C   UNL     1       6.659   7.449  -0.383  0.00  0.00    +0.005 A 
ATOM     31  C   UNL     1       5.317   7.155  -0.245  0.00  0.00    -0.029 A 
ATOM     32  C   UNL     1       4.298   8.266  -0.237  0.00  0.00    +0.045 C 
ENDBRANCH  24  26
ENDBRANCH   1  22
TORSDOF 5
