REMARK  Name = ZINC43665975
REMARK  6 active torsions:
REMARK  status: ('A' for Active; 'I' for Inactive)
REMARK    1  A    between atoms: C_1  and  C_2
REMARK    2  A    between atoms: C_2  and  C_3
REMARK    3  A    between atoms: C_2  and  C_4
REMARK    4  A    between atoms: C_2  and  C_5
REMARK    5  A    between atoms: C_11  and  N_13
REMARK    6  A    between atoms: C_14  and  N_19
REMARK                            x       y       z     vdW  Elec       q    Type
REMARK                         _______ _______ _______ _____ _____    ______ ____
ROOT
ATOM      1  C   UNL     1       0.517  -0.567  -1.380  0.00  0.00    +0.019 C 
ATOM      2  C   UNL     1       0.406  -2.088  -1.499  0.00  0.00    +0.006 C 
ATOM      3  C   UNL     1       0.967  -2.537  -2.850  0.00  0.00    +0.000 C 
ATOM      4  C   UNL     1       2.436  -2.123  -2.955  0.00  0.00    +0.002 C 
ATOM      5  C   UNL     1       2.548  -0.602  -2.836  0.00  0.00    +0.027 C 
ATOM      6  C   UNL     1       1.987  -0.153  -1.485  0.00  0.00    +0.113 C 
ENDROOT
BRANCH   6   7
ATOM      7  N   UNL     1       2.750  -0.785  -0.405  0.00  0.00    -0.247 N 
ATOM      8  C   UNL     1       3.570  -0.150   0.471  0.00  0.00    +0.129 A 
ATOM      9  C   UNL     1       4.082  -1.095   1.309  0.00  0.00    +0.077 A 
ATOM     10  C   UNL     1       3.558  -2.334   0.929  0.00  0.00    +0.151 A 
ATOM     11  N   UNL     1       2.758  -2.150  -0.090  0.00  0.00    -0.177 NA
ATOM     12 BR   UNL     1       5.288  -0.785   2.732  0.00  0.00    -0.045 Br
BRANCH   8  13
ATOM     13  N   UNL     1       3.839   1.216   0.507  0.00  0.00    -0.342 N 
ATOM     14  H   UNL     1       3.423   1.809  -0.137  0.00  0.00    +0.144 HD
ATOM     15  H   UNL     1       4.443   1.573   1.177  0.00  0.00    +0.144 HD
ENDBRANCH   8  13
ENDBRANCH   6   7
BRANCH   1  17
ATOM     16  C   UNL     1       0.236   1.373   0.169  0.00  0.00    +0.011 C 
ATOM     17  C   UNL     1      -0.044  -0.118  -0.029  0.00  0.00    -0.033 C 
ATOM     18  C   UNL     1       0.626  -0.917   1.091  0.00  0.00    +0.011 C 
ATOM     19  C   UNL     1      -1.554  -0.363   0.002  0.00  0.00    +0.011 C 
ENDBRANCH   1  17
TORSDOF 3
