REMARK  Name = ZINC35246688
REMARK  11 active torsions:
REMARK  status: ('A' for Active; 'I' for Inactive)
REMARK    1  A    between atoms: C_1  and  C_2
REMARK    2  A    between atoms: C_5  and  C_8
REMARK    3  A    between atoms: C_8  and  N_9
REMARK    4  A    between atoms: N_9  and  C_10
REMARK    5  A    between atoms: N_9  and  C_17
REMARK    6  A    between atoms: C_10  and  C_11
REMARK    7  A    between atoms: C_17  and  C_18
REMARK    8  A    between atoms: C_21  and  C_23
REMARK    9  A    between atoms: N_28  and  C_31
REMARK   10  A    between atoms: C_31  and  C_32
REMARK   11  A    between atoms: C_33  and  C_34
REMARK                            x       y       z     vdW  Elec       q    Type
REMARK                         _______ _______ _______ _____ _____    ______ ____
ROOT
ATOM      1  C   UNL     1       2.876  -6.394  -0.139  0.00  0.00    +0.090 A 
ATOM      2  C   UNL     1       3.632  -6.570   0.967  0.00  0.00    +0.043 A 
ATOM      3  C   UNL     1       4.939  -6.844   0.534  0.00  0.00    +0.055 A 
ATOM      4  C   UNL     1       4.914  -6.820  -0.831  0.00  0.00    +0.190 A 
ATOM      5  O   UNL     1       3.651  -6.550  -1.220  0.00  0.00    -0.457 OA
ENDROOT
BRANCH   4   6
ATOM      6  C   UNL     1       6.058  -7.052  -1.718  0.00  0.00    +0.282 C 
ATOM      7  O   UNL     1       7.124  -7.414  -1.255  0.00  0.00    -0.267 OA
ATOM      8  N   UNL     1       5.930  -6.864  -3.046  0.00  0.00    -0.293 N 
ATOM      9  C   UNL     1       7.021  -7.218  -3.968  0.00  0.00    +0.123 C 
ATOM     10  C   UNL     1       6.449  -8.099  -5.083  0.00  0.00    +0.103 C 
ATOM     11  N   UNL     1       5.307  -7.416  -5.706  0.00  0.00    -0.296 NA
ATOM     12  C   UNL     1       4.215  -7.217  -4.743  0.00  0.00    +0.103 C 
ATOM     13  C   UNL     1       4.694  -6.305  -3.614  0.00  0.00    +0.123 C 
BRANCH  11  14
ATOM     14  C   UNL     1       4.838  -8.147  -6.890  0.00  0.00    +0.111 C 
BRANCH  14  15
ATOM     15  C   UNL     1       3.839  -7.303  -7.639  0.00  0.00    -0.011 C 
ATOM     16  C   UNL     1       4.028  -7.035  -8.923  0.00  0.00    +0.005 C 
BRANCH  16  17
ATOM     17  C   UNL     1       3.048  -6.206  -9.658  0.00  0.00    -0.025 A 
ATOM     18  C   UNL     1       1.926  -5.700  -9.000  0.00  0.00    +0.008 A 
ATOM     19  C   UNL     1       1.015  -4.928  -9.691  0.00  0.00    +0.001 A 
ATOM     20  C   UNL     1       1.212  -4.655 -11.033  0.00  0.00    +0.000 A 
ATOM     21  C   UNL     1       2.322  -5.154 -11.691  0.00  0.00    +0.001 A 
ATOM     22  C   UNL     1       3.244  -5.922 -11.009  0.00  0.00    +0.008 A 
ENDBRANCH  16  17
ENDBRANCH  14  15
ENDBRANCH  11  14
ENDBRANCH   4   6
BRANCH   1  23
ATOM     23  C   UNL     1       1.402  -6.079  -0.153  0.00  0.00    -0.002 C 
BRANCH  23  24
ATOM     24  N   UNL     1       1.212  -4.622  -0.146  0.00  0.00    +0.390 N 
ATOM     25  H   UNL     1       1.701  -4.223   0.641  0.00  0.00    -0.080 HD
BRANCH  24  26
ATOM     26  C   UNL     1      -0.220  -4.316  -0.039  0.00  0.00    -0.042 C 
BRANCH  26  31
ATOM     27  C   UNL     1      -2.192  -6.075   5.100  0.00  0.00    +0.044 C 
ATOM     28  C   UNL     1      -1.678  -5.616   3.760  0.00  0.00    -0.050 A 
ATOM     29  C   UNL     1      -1.077  -4.378   3.637  0.00  0.00    +0.003 A 
ATOM     30  C   UNL     1      -0.605  -3.957   2.408  0.00  0.00    +0.002 A 
ATOM     31  C   UNL     1      -0.734  -4.775   1.301  0.00  0.00    -0.064 A 
ATOM     32  C   UNL     1      -1.334  -6.014   1.424  0.00  0.00    +0.002 A 
ATOM     33  C   UNL     1      -1.802  -6.437   2.654  0.00  0.00    +0.003 A 
ENDBRANCH  26  31
ENDBRANCH  24  26
BRANCH  24  34
ATOM     34  C   UNL     1       1.744  -4.053  -1.391  0.00  0.00    -0.042 C 
BRANCH  34  35
ATOM     35  C   UNL     1       1.681  -2.549  -1.323  0.00  0.00    -0.064 A 
ATOM     36  C   UNL     1       0.601  -1.877  -1.866  0.00  0.00    +0.002 A 
ATOM     37  C   UNL     1       0.544  -0.497  -1.804  0.00  0.00    +0.000 A 
ATOM     38  C   UNL     1       1.565   0.211  -1.197  0.00  0.00    +0.000 A 
ATOM     39  C   UNL     1       2.643  -0.461  -0.653  0.00  0.00    +0.000 A 
ATOM     40  C   UNL     1       2.699  -1.841  -0.712  0.00  0.00    +0.002 A 
ENDBRANCH  34  35
ENDBRANCH  24  34
ENDBRANCH  23  24
ENDBRANCH   1  23
TORSDOF 10
