REMARK  Name = ZINC27385321
REMARK  6 active torsions:
REMARK  status: ('A' for Active; 'I' for Inactive)
REMARK    1  A    between atoms: C_1  and  C_2
REMARK    2  A    between atoms: C_6  and  N_8
REMARK    3  A    between atoms: N_11  and  C_14
REMARK    4  A    between atoms: C_14  and  C_16
REMARK    5  A    between atoms: C_14  and  C_17
REMARK    6  A    between atoms: C_28  and  C_30
REMARK                            x       y       z     vdW  Elec       q    Type
REMARK                         _______ _______ _______ _____ _____    ______ ____
ROOT
ATOM      1  C   UNL     1      -6.428  -0.988   2.226  0.00  0.00    +0.206 C 
ATOM      2  O   UNL     1      -6.736   0.185   2.262  0.00  0.00    -0.277 OA
ATOM      3  N   UNL     1      -6.826  -1.820   3.209  0.00  0.00    -0.262 N 
ATOM      4  C   UNL     1      -6.576  -3.267   3.125  0.00  0.00    +0.209 C 
ATOM      5  C   UNL     1      -7.796  -4.008   3.596  0.00  0.00    +0.235 C 
ATOM      6  O   UNL     1      -8.036  -5.111   3.151  0.00  0.00    -0.274 OA
ATOM      7  N   UNL     1      -8.629  -3.462   4.503  0.00  0.00    -0.283 N 
ATOM      8  C   UNL     1      -8.403  -2.172   4.995  0.00  0.00    +0.056 A 
ATOM      9  C   UNL     1      -7.497  -1.334   4.341  0.00  0.00    +0.058 A 
ATOM     10  C   UNL     1      -7.274  -0.052   4.809  0.00  0.00    +0.026 A 
ATOM     11  C   UNL     1      -7.948   0.396   5.931  0.00  0.00    +0.014 A 
ATOM     12  C   UNL     1      -8.842  -0.433   6.583  0.00  0.00    +0.057 A 
ATOM     13  C   UNL     1      -9.072  -1.716   6.119  0.00  0.00    +0.037 A 
ATOM     14  H   UNL     1      -9.498  -4.031   4.864  0.00  0.00    +0.155 HD
ENDROOT
BRANCH  12  15
ATOM     15  C   UNL     1      -9.570   0.063   7.806  0.00  0.00    +0.417 C 
ATOM     16  F   UNL     1      -9.178   1.377   8.081  0.00  0.00    -0.166 F 
ATOM     17  F   UNL     1     -10.949   0.027   7.574  0.00  0.00    -0.166 F 
ATOM     18  F   UNL     1      -9.259  -0.755   8.897  0.00  0.00    -0.166 F 
ENDBRANCH  12  15
BRANCH   1  19
ATOM     19  C   UNL     1      -5.601  -1.514   1.082  0.00  0.00    +0.017 C 
ATOM     20  C   UNL     1      -6.526  -2.066  -0.005  0.00  0.00    -0.004 C 
BRANCH  19  24
ATOM     21  N   UNL     1      -3.691   1.171  -1.562  0.00  0.00    -0.333 N 
ATOM     22  C   UNL     1      -4.750   1.698  -0.690  0.00  0.00    +0.086 C 
ATOM     23  C   UNL     1      -5.623   0.543  -0.196  0.00  0.00    -0.059 C 
ATOM     24  N   UNL     1      -4.786  -0.426   0.525  0.00  0.00    +0.389 N 
ATOM     25  C   UNL     1      -3.727  -0.954  -0.346  0.00  0.00    -0.059 C 
ATOM     26  C   UNL     1      -2.854   0.202  -0.841  0.00  0.00    +0.086 C 
ATOM     27  H   UNL     1      -4.306   0.098   1.365  0.00  0.00    -0.081 HD
BRANCH  21  33
ATOM     28  C   UNL     1      -3.403   5.359  -4.117  0.00  0.00    +0.044 C 
ATOM     29  C   UNL     1      -2.750   4.250  -3.334  0.00  0.00    -0.049 A 
ATOM     30  C   UNL     1      -1.380   4.252  -3.143  0.00  0.00    +0.003 A 
ATOM     31  C   UNL     1      -0.776   3.236  -2.426  0.00  0.00    +0.002 A 
ATOM     32  C   UNL     1      -1.540   2.214  -1.897  0.00  0.00    +0.023 A 
ATOM     33  C   UNL     1      -2.916   2.205  -2.091  0.00  0.00    +0.030 A 
ATOM     34  C   UNL     1      -3.520   3.231  -2.807  0.00  0.00    +0.026 A 
ENDBRANCH  21  33
ENDBRANCH  19  24
ENDBRANCH   1  19
TORSDOF 4
