REMARK  Name = ZINC09522285
REMARK  7 active torsions:
REMARK  status: ('A' for Active; 'I' for Inactive)
REMARK    1  A    between atoms: C_1  and  C_2
REMARK    2  A    between atoms: C_7  and  N_8
REMARK    3  A    between atoms: C_13  and  O_27
REMARK    4  A    between atoms: C_15  and  S_17
REMARK    5  A    between atoms: S_17  and  C_18
REMARK    6  A    between atoms: C_18  and  C_19
REMARK    7  A    between atoms: C_19  and  C_21
REMARK                            x       y       z     vdW  Elec       q    Type
REMARK                         _______ _______ _______ _____ _____    ______ ____
ROOT
ATOM      1  N   UNL     1       4.491   7.832  -0.473  0.00  0.00    -0.214 N 
ATOM      2  C   UNL     1       4.008   6.574  -0.696  0.00  0.00    +0.171 A 
ATOM      3  C   UNL     1       5.129   5.745  -0.901  0.00  0.00    +0.100 A 
ATOM      4  C   UNL     1       6.275   6.565  -0.791  0.00  0.00    +0.150 A 
ATOM      5  N   UNL     1       5.889   7.784  -0.540  0.00  0.00    -0.172 NA
ATOM      6  C   UNL     1       4.914   4.378  -1.156  0.00  0.00    +0.227 A 
ATOM      7  N   UNL     1       3.668   3.929  -1.186  0.00  0.00    -0.187 NA
ATOM      8  C   UNL     1       2.637   4.745  -0.992  0.00  0.00    +0.194 A 
ATOM      9  N   UNL     1       2.792   6.036  -0.749  0.00  0.00    -0.202 NA
ENDROOT
BRANCH   1  16
ATOM     10  C   UNL     1       5.841  10.236   0.233  0.00  0.00    +0.046 C 
ATOM     11  C   UNL     1       4.339  10.168   0.127  0.00  0.00    -0.025 A 
ATOM     12  C   UNL     1       3.577  11.294   0.369  0.00  0.00    +0.005 A 
ATOM     13  C   UNL     1       2.199  11.231   0.277  0.00  0.00    +0.000 A 
ATOM     14  C   UNL     1       1.579  10.042  -0.063  0.00  0.00    +0.002 A 
ATOM     15  C   UNL     1       2.336   8.914  -0.312  0.00  0.00    +0.028 A 
ATOM     16  C   UNL     1       3.720   8.975  -0.221  0.00  0.00    +0.071 A 
ENDBRANCH   1  16
BRANCH   6  17
ATOM     17  O   UNL     1       5.957   3.540  -1.360  0.00  0.00    -0.492 OA
ATOM     18  H   UNL     1       6.296   3.130  -0.553  0.00  0.00    +0.294 HD
ENDBRANCH   6  17
BRANCH   8  19
ATOM     19  S   UNL     1       1.006   4.082  -1.052  0.00  0.00    -0.078 S 
BRANCH  19  20
ATOM     20  C   UNL     1       1.384   2.347  -1.402  0.00  0.00    +0.157 C 
BRANCH  20  21
ATOM     21  C   UNL     1       0.101   1.563  -1.499  0.00  0.00    +0.173 C 
ATOM     22  O   UNL     1      -0.964   2.123  -1.352  0.00  0.00    -0.291 OA
BRANCH  21  23
ATOM     23  C   UNL     1       0.141   0.119  -1.779  0.00  0.00    +0.018 A 
ATOM     24  C   UNL     1       1.367  -0.529  -1.961  0.00  0.00    +0.011 A 
ATOM     25  C   UNL     1       1.397  -1.883  -2.217  0.00  0.00    +0.001 A 
ATOM     26  C   UNL     1       0.216  -2.600  -2.306  0.00  0.00    +0.000 A 
ATOM     27  C   UNL     1      -1.002  -1.966  -2.133  0.00  0.00    +0.001 A 
ATOM     28  C   UNL     1      -1.048  -0.613  -1.871  0.00  0.00    +0.011 A 
ENDBRANCH  21  23
ENDBRANCH  20  21
ENDBRANCH  19  20
ENDBRANCH   8  19
TORSDOF 6
