REMARK  Name = ZINC39695386
REMARK  11 active torsions:
REMARK  status: ('A' for Active; 'I' for Inactive)
REMARK    1  A    between atoms: C_1  and  C_2
REMARK    2  A    between atoms: C_2  and  C_3
REMARK    3  A    between atoms: C_3  and  C_5
REMARK    4  A    between atoms: C_3  and  N_11
REMARK    5  A    between atoms: C_12  and  C_14
REMARK    6  A    between atoms: C_25  and  C_27
REMARK    7  A    between atoms: C_27  and  C_29
REMARK    8  A    between atoms: C_27  and  O_32
REMARK    9  A    between atoms: C_29  and  C_30
REMARK   10  A    between atoms: C_29  and  C_31
REMARK   11  A    between atoms: O_32  and  C_33
REMARK                            x       y       z     vdW  Elec       q    Type
REMARK                         _______ _______ _______ _____ _____    ______ ____
ROOT
ATOM      1  C   UNL     1      -3.913   2.395   3.047  0.00  0.00    +0.100 C 
ATOM      2  C   UNL     1      -4.620   1.039   3.269  0.00  0.00    +0.121 C 
ATOM      3  N   UNL     1      -5.998   1.399   3.679  0.00  0.00    -0.297 N 
ATOM      4  C   UNL     1      -6.346   2.560   2.824  0.00  0.00    +0.115 C 
ATOM      5  C   UNL     1      -5.048   3.390   2.755  0.00  0.00    -0.004 C 
ATOM      6  C   UNL     1      -4.880   3.989   1.362  0.00  0.00    -0.010 C 
ATOM      7  C   UNL     1      -5.987   5.019   1.117  0.00  0.00    -0.082 C 
ATOM      8  N   UNL     1      -5.913   6.072   2.137  0.00  0.00    +0.379 N 
ATOM      9  C   UNL     1      -6.168   5.501   3.465  0.00  0.00    -0.082 C 
ATOM     10  C   UNL     1      -5.069   4.492   3.809  0.00  0.00    -0.010 C 
ATOM     11  C   UNL     1      -6.763   0.805   4.616  0.00  0.00    +0.257 C 
ATOM     12  O   UNL     1      -7.912   1.161   4.776  0.00  0.00    -0.272 OA
ATOM     13  H   UNL     1      -4.994   6.488   2.122  0.00  0.00    -0.086 HD
ATOM     14  H   UNL     1      -6.604   6.780   1.938  0.00  0.00    -0.086 HD
ENDROOT
BRANCH   1  16
ATOM     15  N   UNL     1      -1.891   3.111   1.815  0.00  0.00    -0.308 N 
ATOM     16  C   UNL     1      -2.974   2.310   1.872  0.00  0.00    +0.219 C 
ATOM     17  O   UNL     1      -3.192   1.522   0.977  0.00  0.00    -0.275 OA
ATOM     18  H   UNL     1      -1.761   3.799   2.486  0.00  0.00    +0.149 HD
BRANCH  15  19
ATOM     19  C   UNL     1      -0.910   2.941   0.741  0.00  0.00    +0.103 C 
BRANCH  19  20
ATOM     20  C   UNL     1       0.479   2.928   1.326  0.00  0.00    -0.027 A 
ATOM     21  C   UNL     1       0.803   3.792   2.355  0.00  0.00    +0.005 A 
ATOM     22  C   UNL     1       2.077   3.780   2.892  0.00  0.00    +0.000 A 
ATOM     23  C   UNL     1       3.027   2.904   2.400  0.00  0.00    +0.000 A 
ATOM     24  C   UNL     1       2.702   2.040   1.371  0.00  0.00    +0.000 A 
ATOM     25  C   UNL     1       1.427   2.049   0.837  0.00  0.00    +0.005 A 
ENDBRANCH  19  20
BRANCH  19  27
ATOM     26  C   UNL     1      -2.392   4.026  -0.953  0.00  0.00    +0.006 C 
ATOM     27  C   UNL     1      -1.034   4.099  -0.251  0.00  0.00    +0.024 C 
ENDBRANCH  19  27
ENDBRANCH  15  19
ENDBRANCH   1  16
BRANCH  11  28
ATOM     28  C   UNL     1      -6.192  -0.301   5.465  0.00  0.00    +0.261 C 
BRANCH  28  29
ATOM     29  C   UNL     1      -5.518   0.300   6.700  0.00  0.00    +0.033 C 
ATOM     30  C   UNL     1      -5.002  -0.826   7.598  0.00  0.00    +0.011 C 
ATOM     31  C   UNL     1      -4.346   1.182   6.264  0.00  0.00    +0.011 C 
ENDBRANCH  28  29
BRANCH  28  32
ATOM     32  O   UNL     1      -7.243  -1.178   5.875  0.00  0.00    -0.479 OA
BRANCH  32  33
ATOM     33  C   UNL     1      -6.961  -2.507   5.904  0.00  0.00    +0.122 A 
ATOM     34  C   UNL     1      -7.952  -3.421   6.232  0.00  0.00    +0.045 A 
ATOM     35  C   UNL     1      -7.663  -4.771   6.260  0.00  0.00    +0.004 A 
ATOM     36  C   UNL     1      -6.387  -5.213   5.962  0.00  0.00    +0.000 A 
ATOM     37  C   UNL     1      -5.397  -4.305   5.635  0.00  0.00    +0.004 A 
ATOM     38  C   UNL     1      -5.683  -2.954   5.599  0.00  0.00    +0.045 A 
ENDBRANCH  32  33
ENDBRANCH  28  32
ENDBRANCH  11  28
TORSDOF 8
