REMARK  Name = ZINC43218914
REMARK  7 active torsions:
REMARK  status: ('A' for Active; 'I' for Inactive)
REMARK    1  A    between atoms: C_1  and  C_2
REMARK    2  A    between atoms: C_2  and  C_4
REMARK    3  A    between atoms: C_7  and  N_10
REMARK    4  A    between atoms: C_15  and  C_32
REMARK    5  A    between atoms: C_18  and  C_23
REMARK    6  A    between atoms: C_18  and  C_29
REMARK    7  A    between atoms: C_37  and  O_38
REMARK                            x       y       z     vdW  Elec       q    Type
REMARK                         _______ _______ _______ _____ _____    ______ ____
ROOT
ATOM      1  N   UNL     1      -0.267  -2.403  -5.694  0.00  0.00    -0.210 N 
ATOM      2  C   UNL     1      -0.308  -2.095  -7.031  0.00  0.00    +0.229 C 
ATOM      3  O   UNL     1      -0.186  -1.004  -7.544  0.00  0.00    -0.275 OA
ATOM      4  C   UNL     1      -0.529  -3.362  -7.689  0.00  0.00    +0.078 C 
ATOM      5  C   UNL     1      -0.399  -3.981  -9.016  0.00  0.00    -0.023 C 
ATOM      6  N   UNL     1      -0.404  -5.455  -8.739  0.00  0.00    +0.398 N 
ATOM      7  C   UNL     1      -0.411  -5.635  -7.250  0.00  0.00    +0.074 C 
ATOM      8  C   UNL     1       0.293  -4.348  -6.768  0.00  0.00    +0.090 C 
ATOM      9  C   UNL     1      -0.148  -3.744  -5.463  0.00  0.00    +0.229 C 
ATOM     10  O   UNL     1      -0.356  -4.328  -4.421  0.00  0.00    -0.275 OA
ATOM     11  H   UNL     1      -1.229  -5.876  -9.139  0.00  0.00    -0.083 HD
ATOM     12  H   UNL     1       0.423  -5.880  -9.131  0.00  0.00    -0.083 HD
ENDROOT
BRANCH   1  16
ATOM     13  C   UNL     1      -0.469   0.451  -2.662  0.00  0.00    +0.017 A 
ATOM     14  C   UNL     1      -0.524   0.847  -4.004  0.00  0.00    +0.013 A 
ATOM     15  C   UNL     1      -0.456  -0.099  -5.001  0.00  0.00    +0.024 A 
ATOM     16  C   UNL     1      -0.335  -1.446  -4.678  0.00  0.00    +0.044 A 
ATOM     17  C   UNL     1      -0.280  -1.845  -3.345  0.00  0.00    +0.024 A 
ATOM     18  C   UNL     1      -0.341  -0.905  -2.341  0.00  0.00    +0.013 A 
BRANCH  13  20
ATOM     19  C   UNL     1      -0.680   2.917  -1.941  0.00  0.00    +0.091 C 
ATOM     20  C   UNL     1      -0.541   1.457  -1.593  0.00  0.00    +0.160 C 
ATOM     21  O   UNL     1      -0.489   1.113  -0.432  0.00  0.00    -0.292 OA
ENDBRANCH  13  20
ENDBRANCH   1  16
BRANCH   7  22
ATOM     22  C   UNL     1      -1.823  -5.727  -6.731  0.00  0.00    -0.047 A 
ATOM     23  C   UNL     1      -2.884  -5.391  -7.550  0.00  0.00    +0.003 A 
ATOM     24  C   UNL     1      -4.179  -5.476  -7.073  0.00  0.00    +0.000 A 
ATOM     25  C   UNL     1      -4.412  -5.897  -5.777  0.00  0.00    +0.000 A 
ATOM     26  C   UNL     1      -3.351  -6.234  -4.958  0.00  0.00    +0.000 A 
ATOM     27  C   UNL     1      -2.056  -6.153  -5.436  0.00  0.00    +0.003 A 
ENDBRANCH   7  22
BRANCH   5  28
ATOM     28  C   UNL     1       0.896  -3.568  -9.665  0.00  0.00    -0.019 A 
ATOM     29  C   UNL     1       2.031  -4.339  -9.497  0.00  0.00    +0.005 A 
ATOM     30  C   UNL     1       3.220  -3.960 -10.092  0.00  0.00    +0.000 A 
ATOM     31  C   UNL     1       3.277  -2.810 -10.858  0.00  0.00    +0.004 A 
ATOM     32  C   UNL     1       2.146  -2.037 -11.030  0.00  0.00    +0.045 A 
ATOM     33  C   UNL     1       0.950  -2.417 -10.438  0.00  0.00    +0.118 A 
BRANCH  33  34
ATOM     34  O   UNL     1      -0.166  -1.661 -10.610  0.00  0.00    -0.507 OA
ATOM     35  H   UNL     1      -0.280  -0.970  -9.943  0.00  0.00    +0.292 HD
ENDBRANCH  33  34
ENDBRANCH   5  28
BRANCH   7  36
ATOM     36  C   UNL     1       0.386  -6.851  -6.855  0.00  0.00    +0.350 C 
ATOM     37  O   UNL     1       0.903  -7.546  -7.713  0.00  0.00    -0.248 OA
ATOM     38  O   UNL     1       0.513  -7.140  -5.678  0.00  0.00    -0.248 OA
ENDBRANCH   7  36
TORSDOF 6
