REMARK  Name = ZINC37906252
REMARK  5 active torsions:
REMARK  status: ('A' for Active; 'I' for Inactive)
REMARK    1  A    between atoms: C_4  and  C_7
REMARK    2  A    between atoms: C_7  and  C_9
REMARK    3  A    between atoms: C_7  and  O_21
REMARK    4  A    between atoms: C_9  and  N_10
REMARK    5  A    between atoms: C_19  and  N_20
REMARK                            x       y       z     vdW  Elec       q    Type
REMARK                         _______ _______ _______ _____ _____    ______ ____
ROOT
ATOM      1  N   UNL     1       5.233  -1.945  -1.396  0.00  0.00    -0.327 N 
ATOM      2  C   UNL     1       6.584  -1.367  -1.395  0.00  0.00    +0.105 C 
ATOM      3  C   UNL     1       7.439  -2.171  -2.383  0.00  0.00    +0.024 C 
ATOM      4  C   UNL     1       7.543  -3.613  -1.886  0.00  0.00    +0.040 C 
ATOM      5  C   UNL     1       6.176  -4.167  -1.585  0.00  0.00    -0.006 A 
ATOM      6  C   UNL     1       5.092  -3.336  -1.348  0.00  0.00    +0.035 A 
ATOM      7  C   UNL     1       3.844  -3.880  -1.063  0.00  0.00    +0.023 A 
ATOM      8  C   UNL     1       3.678  -5.250  -1.014  0.00  0.00    +0.004 A 
ATOM      9  C   UNL     1       4.754  -6.085  -1.247  0.00  0.00    +0.023 A 
ATOM     10  C   UNL     1       6.003  -5.547  -1.540  0.00  0.00    +0.030 A 
ENDROOT
BRANCH  10  11
ATOM     11  N   UNL     1       7.090  -6.392  -1.775  0.00  0.00    -0.358 N 
ATOM     12  H   UNL     1       7.963  -6.018  -1.970  0.00  0.00    +0.142 HD
ATOM     13  H   UNL     1       6.971  -7.355  -1.744  0.00  0.00    +0.142 HD
ENDBRANCH  10  11
BRANCH   1  14
ATOM     14  C   UNL     1       4.053  -1.078  -1.442  0.00  0.00    +0.141 C 
BRANCH  14  15
ATOM     15  C   UNL     1       3.575  -0.942  -2.889  0.00  0.00    +0.162 C 
BRANCH  15  19
ATOM     16  C   UNL     1      -0.068   1.286  -2.980  0.00  0.00    +0.000 A 
ATOM     17  C   UNL     1      -0.103  -0.095  -2.959  0.00  0.00    +0.000 A 
ATOM     18  C   UNL     1       1.075  -0.817  -2.930  0.00  0.00    +0.006 A 
ATOM     19  C   UNL     1       2.290  -0.156  -2.921  0.00  0.00    -0.018 A 
ATOM     20  C   UNL     1       2.325   1.226  -2.943  0.00  0.00    +0.006 A 
ATOM     21  C   UNL     1       1.146   1.947  -2.971  0.00  0.00    +0.000 A 
ENDBRANCH  15  19
BRANCH  15  22
ATOM     22  O   UNL     1       4.569  -0.262  -3.657  0.00  0.00    -0.386 OA
ATOM     23  H   UNL     1       4.829   0.596  -3.294  0.00  0.00    +0.210 HD
ENDBRANCH  15  22
ENDBRANCH  14  15
ENDBRANCH   1  14
TORSDOF 5
