REMARK  Name = ZINC12320347
REMARK  3 active torsions:
REMARK  status: ('A' for Active; 'I' for Inactive)
REMARK    1  A    between atoms: C_12  and  N_46
REMARK    2  A    between atoms: C_17  and  C_18
REMARK    3  A    between atoms: C_17  and  N_46
REMARK                            x       y       z     vdW  Elec       q    Type
REMARK                         _______ _______ _______ _____ _____    ______ ____
ROOT
ATOM      1  C   UNL     1      -2.792  10.455  -2.475  0.00  0.00    +0.005 A 
ATOM      2  C   UNL     1      -3.359  10.435  -3.742  0.00  0.00    +0.020 A 
ATOM      3  C   UNL     1      -3.614   9.221  -4.349  0.00  0.00    +0.113 A 
ATOM      4  N   UNL     1      -3.326   8.087  -3.741  0.00  0.00    -0.236 NA
ATOM      5  C   UNL     1      -2.784   8.065  -2.534  0.00  0.00    +0.154 A 
ATOM      6  C   UNL     1      -2.506   9.248  -1.861  0.00  0.00    +0.048 A 
ATOM      7  N   UNL     1      -2.495   6.838  -1.928  0.00  0.00    -0.218 N 
ATOM      8  C   UNL     1      -3.100   5.657  -2.188  0.00  0.00    +0.048 A 
ATOM      9  C   UNL     1      -2.530   4.717  -1.392  0.00  0.00    -0.020 A 
ATOM     10  C   UNL     1      -1.550   5.340  -0.622  0.00  0.00    +0.137 A 
ATOM     11  N   UNL     1      -1.525   6.612  -0.940  0.00  0.00    -0.173 NA
ATOM     12  C   UNL     1      -2.929   3.262  -1.385  0.00  0.00    -0.037 C 
ATOM     13  C   UNL     1      -3.731   2.974  -2.659  0.00  0.00    -0.011 C 
ATOM     14  C   UNL     1      -4.837   4.022  -2.816  0.00  0.00    +0.005 C 
ATOM     15  C   UNL     1      -4.211   5.377  -3.168  0.00  0.00    +0.056 C 
ENDROOT
BRANCH  12  16
ATOM     16  N   UNL     1      -1.721   2.416  -1.365  0.00  0.00    +0.387 N 
ATOM     17  H   UNL     1      -0.982   2.867  -1.917  0.00  0.00    -0.084 HD
ATOM     18  H   UNL     1      -1.942   1.500  -1.773  0.00  0.00    -0.084 HD
BRANCH  16  19
ATOM     19  C   UNL     1      -1.249   2.229   0.020  0.00  0.00    -0.027 C 
BRANCH  19  20
ATOM     20  C   UNL     1      -0.017   1.362   0.009  0.00  0.00    +0.009 A 
ATOM     21  C   UNL     1       1.258   1.801  -0.000  0.00  0.00    +0.021 A 
ATOM     22  C   UNL     1       2.096   0.667  -0.014  0.00  0.00    +0.020 A 
ATOM     23  C   UNL     1       1.303  -0.423  -0.013  0.00  0.00    +0.093 A 
ATOM     24  N   UNL     1       0.002  -0.004   0.002  0.00  0.00    -0.301 N 
ATOM     25  C   UNL     1      -1.119  -0.832   0.008  0.00  0.00    +0.177 A 
ATOM     26  N   UNL     1      -1.175  -2.149   0.002  0.00  0.00    -0.231 NA
ATOM     27  C   UNL     1      -2.331  -2.784   0.010  0.00  0.00    +0.121 A 
ATOM     28  C   UNL     1      -3.471  -2.050   0.025  0.00  0.00    +0.068 A 
ATOM     29  S   UNL     1      -2.799  -0.394   0.034  0.00  0.00    -0.058 S 
ENDBRANCH  19  20
ENDBRANCH  16  19
ENDBRANCH  12  16
TORSDOF 3
