REMARK  Name = ZINC51475866
REMARK  11 active torsions:
REMARK  status: ('A' for Active; 'I' for Inactive)
REMARK    1  A    between atoms: C_1  and  C_2
REMARK    2  A    between atoms: C_6  and  N_9
REMARK    3  A    between atoms: C_7  and  C_8
REMARK    4  A    between atoms: N_9  and  C_10
REMARK    5  A    between atoms: C_10  and  N_12
REMARK    6  A    between atoms: N_12  and  N_13
REMARK    7  A    between atoms: C_14  and  C_16
REMARK    8  A    between atoms: C_19  and  C_23
REMARK    9  A    between atoms: C_21  and  O_22
REMARK   10  A    between atoms: C_23  and  C_24
REMARK   11  A    between atoms: C_23  and  C_25
REMARK                            x       y       z     vdW  Elec       q    Type
REMARK                         _______ _______ _______ _____ _____    ______ ____
ROOT
ATOM      1  N   UNL     1      -0.123  -4.123   4.764  0.00  0.00    -0.231 N 
ATOM      2  C   UNL     1      -0.209  -4.799   5.927  0.00  0.00    +0.264 C 
ATOM      3  O   UNL     1      -0.285  -6.013   5.920  0.00  0.00    -0.269 OA
ATOM      4  H   UNL     1      -0.062  -3.155   4.769  0.00  0.00    +0.173 HD
ENDROOT
BRANCH   2   5
ATOM      5  C   UNL     1      -0.213  -4.066   7.207  0.00  0.00    +0.079 A 
ATOM      6  C   UNL     1      -0.133  -2.672   7.219  0.00  0.00    +0.017 A 
ATOM      7  C   UNL     1      -0.137  -1.994   8.419  0.00  0.00    +0.005 A 
ATOM      8  C   UNL     1      -0.221  -2.688   9.614  0.00  0.00    -0.041 A 
ATOM      9  C   UNL     1      -0.300  -4.067   9.617  0.00  0.00    +0.050 A 
ATOM     10  C   UNL     1      -0.303  -4.765   8.419  0.00  0.00    +0.129 A 
BRANCH   8  11
ATOM     11  C   UNL     1      -0.224  -1.935  10.920  0.00  0.00    +0.013 C 
ATOM     12  C   UNL     1       1.070  -1.130  11.047  0.00  0.00    +0.012 C 
ATOM     13  C   UNL     1      -1.422  -0.985  10.957  0.00  0.00    +0.012 C 
ENDBRANCH   8  11
BRANCH  10  14
ATOM     14  O   UNL     1      -0.388  -6.119   8.419  0.00  0.00    -0.506 OA
ATOM     15  H   UNL     1       0.469  -6.567   8.454  0.00  0.00    +0.292 HD
ENDBRANCH  10  14
ENDBRANCH   2   5
BRANCH   1  16
ATOM     16  N   UNL     1      -0.119  -4.819   3.548  0.00  0.00    -0.245 N 
ATOM     17  H   UNL     1      -0.179  -5.787   3.542  0.00  0.00    +0.172 HD
BRANCH  16  18
ATOM     18  C   UNL     1      -0.032  -4.143   2.385  0.00  0.00    +0.151 C 
ATOM     19  S   UNL     1      -0.028  -4.992   0.899  0.00  0.00    -0.017 S 
BRANCH  18  20
ATOM     20  N   UNL     1       0.051  -2.797   2.392  0.00  0.00    -0.296 N 
ATOM     21  H   UNL     1       0.129  -2.321   3.233  0.00  0.00    +0.154 HD
BRANCH  20  27
ATOM     22  C   UNL     1       1.865   0.777  -0.455  0.00  0.00    +0.044 C 
ATOM     23  C   UNL     1       0.894  -0.351  -0.220  0.00  0.00    -0.046 A 
ATOM     24  C   UNL     1      -0.025  -0.686  -1.198  0.00  0.00    +0.004 A 
ATOM     25  C   UNL     1      -0.918  -1.720  -0.987  0.00  0.00    +0.002 A 
ATOM     26  C   UNL     1      -0.895  -2.422   0.202  0.00  0.00    +0.023 A 
ATOM     27  C   UNL     1       0.026  -2.088   1.187  0.00  0.00    +0.036 A 
ATOM     28  C   UNL     1       0.925  -1.053   0.969  0.00  0.00    -0.026 A 
ATOM     29  C   UNL     1       1.931  -0.691   2.031  0.00  0.00    +0.046 C 
ENDBRANCH  20  27
ENDBRANCH  18  20
ENDBRANCH  16  18
ENDBRANCH   1  16
TORSDOF 7
