REMARK  Name = ZINC36249814
REMARK  13 active torsions:
REMARK  status: ('A' for Active; 'I' for Inactive)
REMARK    1  A    between atoms: C_2  and  C_3
REMARK    2  A    between atoms: C_3  and  O_4
REMARK    3  A    between atoms: O_4  and  C_5
REMARK    4  A    between atoms: C_5  and  C_6
REMARK    5  A    between atoms: C_6  and  C_8
REMARK    6  A    between atoms: C_6  and  O_36
REMARK    7  A    between atoms: C_8  and  N_9
REMARK    8  A    between atoms: N_9  and  C_10
REMARK    9  A    between atoms: N_9  and  C_18
REMARK   10  A    between atoms: C_10  and  C_11
REMARK   11  A    between atoms: C_18  and  C_19
REMARK   12  A    between atoms: C_20  and  C_30
REMARK   13  A    between atoms: C_23  and  N_24
REMARK                            x       y       z     vdW  Elec       q    Type
REMARK                         _______ _______ _______ _____ _____    ______ ____
ROOT
ATOM      1  N   UNL     1       3.185  -5.374   1.839  0.00  0.00    +0.387 N 
ATOM      2  H   UNL     1       2.640  -6.211   1.694  0.00  0.00    -0.081 HD
ENDROOT
BRANCH   1   3
ATOM      3  C   UNL     1       3.084  -4.513   0.652  0.00  0.00    -0.044 C 
BRANCH   3   4
ATOM      4  C   UNL     1       1.642  -4.516   0.141  0.00  0.00    +0.124 C 
BRANCH   4   5
ATOM      5  O   UNL     1       0.775  -4.006   1.156  0.00  0.00    -0.391 OA
ATOM      6  H   UNL     1       0.899  -3.066   1.343  0.00  0.00    +0.210 HD
ENDBRANCH   4   5
BRANCH   4   7
ATOM      7  C   UNL     1       1.541  -3.635  -1.106  0.00  0.00    +0.189 C 
BRANCH   7   8
ATOM      8  O   UNL     1       0.223  -3.730  -1.651  0.00  0.00    -0.373 OA
BRANCH   8   9
ATOM      9  C   UNL     1       0.022  -2.940  -2.824  0.00  0.00    +0.186 C 
BRANCH   9  11
ATOM     10  C   UNL     1      -2.096  -2.070  -3.673  0.00  0.00    +0.006 C 
ATOM     11  C   UNL     1      -1.394  -3.115  -3.310  0.00  0.00    -0.007 C 
ENDBRANCH   9  11
ENDBRANCH   8   9
ENDBRANCH   7   8
ENDBRANCH   4   7
ENDBRANCH   3   4
ENDBRANCH   1   3
BRANCH   1  12
ATOM     12  C   UNL     1       2.672  -4.652   3.011  0.00  0.00    -0.042 C 
BRANCH  12  13
ATOM     13  C   UNL     1       3.784  -3.845   3.630  0.00  0.00    -0.064 A 
ATOM     14  C   UNL     1       4.475  -4.342   4.719  0.00  0.00    +0.004 A 
ATOM     15  C   UNL     1       5.495  -3.602   5.287  0.00  0.00    +0.038 A 
ATOM     16  C   UNL     1       5.825  -2.363   4.764  0.00  0.00    +0.123 A 
ATOM     17  C   UNL     1       5.133  -1.867   3.673  0.00  0.00    +0.038 A 
ATOM     18  C   UNL     1       4.117  -2.610   3.104  0.00  0.00    +0.004 A 
ATOM     19  F   UNL     1       6.822  -1.639   5.319  0.00  0.00    -0.205 F 
ENDBRANCH  12  13
ENDBRANCH   1  12
BRANCH   1  20
ATOM     20  C   UNL     1       4.590  -5.736   2.063  0.00  0.00    -0.035 C 
BRANCH  20  21
ATOM     21  C   UNL     1       4.660  -6.971   2.924  0.00  0.00    +0.025 A 
ATOM     22  C   UNL     1       5.480  -7.146   4.058  0.00  0.00    +0.117 A 
ATOM     23  N   UNL     1       5.257  -8.348   4.537  0.00  0.00    -0.076 NA
ATOM     24  O   UNL     1       4.286  -8.973   3.718  0.00  0.00    -0.339 OA
ATOM     25  C   UNL     1       3.939  -8.107   2.750  0.00  0.00    +0.222 A 
BRANCH  25  26
ATOM     26  N   UNL     1       3.012  -8.336   1.749  0.00  0.00    -0.295 N 
ATOM     27  C   UNL     1       3.432  -8.814   0.422  0.00  0.00    +0.136 C 
ATOM     28  C   UNL     1       2.577 -10.032   0.054  0.00  0.00    +0.179 C 
ATOM     29  O   UNL     1       1.195  -9.698   0.200  0.00  0.00    -0.377 OA
ATOM     30  C   UNL     1       0.812  -9.362   1.536  0.00  0.00    +0.179 C 
ATOM     31  C   UNL     1       1.576  -8.115   1.982  0.00  0.00    +0.136 C 
ENDBRANCH  25  26
BRANCH  22  32
ATOM     32  C   UNL     1       6.428  -6.147   4.613  0.00  0.00    +0.004 A 
ATOM     33  C   UNL     1       6.959  -5.156   3.790  0.00  0.00    +0.010 A 
ATOM     34  C   UNL     1       7.840  -4.229   4.311  0.00  0.00    +0.001 A 
ATOM     35  C   UNL     1       8.196  -4.284   5.647  0.00  0.00    +0.000 A 
ATOM     36  C   UNL     1       7.671  -5.266   6.468  0.00  0.00    +0.001 A 
ATOM     37  C   UNL     1       6.786  -6.194   5.958  0.00  0.00    +0.010 A 
ENDBRANCH  22  32
ENDBRANCH  20  21
ENDBRANCH   1  20
TORSDOF 13
