REMARK  Name = ZINC00926303
REMARK  9 active torsions:
REMARK  status: ('A' for Active; 'I' for Inactive)
REMARK    1  A    between atoms: C_1  and  C_2
REMARK    2  A    between atoms: C_12  and  C_14
REMARK    3  A    between atoms: C_14  and  N_15
REMARK    4  A    between atoms: N_15  and  C_16
REMARK    5  A    between atoms: N_15  and  C_24
REMARK    6  A    between atoms: C_16  and  C_17
REMARK    7  A    between atoms: C_17  and  C_18
REMARK    8  A    between atoms: C_24  and  C_25
REMARK    9  A    between atoms: N_29  and  C_30
REMARK                            x       y       z     vdW  Elec       q    Type
REMARK                         _______ _______ _______ _____ _____    ______ ____
ROOT
ATOM      1  N   UNL     1      -2.879   3.913  -1.201  0.00  0.00    -0.290 NA
ENDROOT
BRANCH   1   2
ATOM      2  C   UNL     1      -2.287   3.484   0.073  0.00  0.00    +0.125 C 
BRANCH   2  14
ATOM      3  C   UNL     1       1.785  -1.522  -1.183  0.00  0.00    +0.046 C 
ATOM      4  C   UNL     1       2.050  -0.055  -0.961  0.00  0.00    -0.026 A 
ATOM      5  C   UNL     1       3.339   0.430  -1.008  0.00  0.00    +0.005 A 
ATOM      6  C   UNL     1       3.596   1.779  -0.806  0.00  0.00    +0.001 A 
ATOM      7  C   UNL     1       2.575   2.652  -0.556  0.00  0.00    +0.010 A 
ATOM      8  C   UNL     1       1.259   2.182  -0.503  0.00  0.00    -0.001 A 
ATOM      9  C   UNL     1       0.994   0.815  -0.708  0.00  0.00    +0.052 A 
ATOM     10  N   UNL     1      -0.305   0.357  -0.655  0.00  0.00    -0.322 N 
ATOM     11  H   UNL     1      -0.519  -0.711  -0.810  0.00  0.00    +0.169 HD
ATOM     12  C   UNL     1      -1.326   1.199  -0.416  0.00  0.00    +0.254 A 
ATOM     13  O   UNL     1      -2.462   0.760  -0.382  0.00  0.00    -0.268 OA
ATOM     14  C   UNL     1      -1.114   2.577  -0.198  0.00  0.00    +0.031 A 
ATOM     15  C   UNL     1       0.141   3.090  -0.238  0.00  0.00    +0.020 A 
ENDBRANCH   2  14
ENDBRANCH   1   2
BRANCH   1  16
ATOM     16  C   UNL     1      -3.474   2.776  -1.915  0.00  0.00    +0.090 C 
BRANCH  16  17
ATOM     17  C   UNL     1      -3.912   3.222  -3.311  0.00  0.00    +0.050 C 
BRANCH  17  18
ATOM     18  C   UNL     1      -4.398   2.028  -4.091  0.00  0.00    -0.046 A 
ATOM     19  C   UNL     1      -3.532   1.351  -4.929  0.00  0.00    +0.003 A 
ATOM     20  C   UNL     1      -3.977   0.253  -5.641  0.00  0.00    +0.000 A 
ATOM     21  C   UNL     1      -5.290  -0.163  -5.522  0.00  0.00    +0.000 A 
ATOM     22  C   UNL     1      -6.157   0.518  -4.689  0.00  0.00    +0.000 A 
ATOM     23  C   UNL     1      -5.711   1.613  -3.973  0.00  0.00    +0.003 A 
ENDBRANCH  17  18
ENDBRANCH  16  17
ENDBRANCH   1  16
BRANCH   1  24
ATOM     24  C   UNL     1      -3.868   4.978  -0.989  0.00  0.00    +0.162 C 
BRANCH  24  25
ATOM     25  C   UNL     1      -3.157   6.282  -0.736  0.00  0.00    +0.166 A 
ATOM     26  N   UNL     1      -2.764   6.747   0.424  0.00  0.00    -0.112 NA
ATOM     27  N   UNL     1      -2.195   7.886   0.225  0.00  0.00    -0.023 NA
ATOM     28  N   UNL     1      -2.221   8.162  -1.032  0.00  0.00    -0.044 NA
ATOM     29  N   UNL     1      -2.806   7.198  -1.658  0.00  0.00    -0.225 N 
BRANCH  29  30
ATOM     30  C   UNL     1      -3.044   7.115  -3.102  0.00  0.00    +0.111 C 
ATOM     31  C   UNL     1      -1.700   7.112  -3.859  0.00  0.00    +0.027 C 
ATOM     32  C   UNL     1      -1.982   7.945  -5.135  0.00  0.00    +0.002 C 
ATOM     33  C   UNL     1      -2.916   9.065  -4.613  0.00  0.00    +0.002 C 
ATOM     34  C   UNL     1      -3.817   8.356  -3.581  0.00  0.00    +0.027 C 
ENDBRANCH  29  30
ENDBRANCH  24  25
ENDBRANCH   1  24
TORSDOF 8
