REMARK  Name = ZINC14126101
REMARK  8 active torsions:
REMARK  status: ('A' for Active; 'I' for Inactive)
REMARK    1  A    between atoms: C_1  and  C_2
REMARK    2  A    between atoms: C_9  and  C_11
REMARK    3  A    between atoms: C_14  and  S_16
REMARK    4  A    between atoms: S_16  and  C_17
REMARK    5  A    between atoms: C_17  and  C_18
REMARK    6  A    between atoms: N_20  and  C_21
REMARK    7  A    between atoms: C_21  and  C_22
REMARK    8  A    between atoms: C_22  and  C_23
REMARK                            x       y       z     vdW  Elec       q    Type
REMARK                         _______ _______ _______ _____ _____    ______ ____
ROOT
ATOM      1  C   UNL     1      -0.022   1.806   0.012  0.00  0.00    +0.174 C 
ENDROOT
BRANCH   1   2
ATOM      2  C   UNL     1       1.391   2.327   0.001  0.00  0.00    +0.223 C 
ATOM      3  O   UNL     1       2.324   1.552  -0.012  0.00  0.00    -0.275 OA
ATOM      4  N   UNL     1       1.620   3.656   0.006  0.00  0.00    -0.314 N 
ATOM      5  H   UNL     1       0.874   4.276   0.017  0.00  0.00    +0.149 HD
BRANCH   4   6
ATOM      6  C   UNL     1       2.994   4.163  -0.004  0.00  0.00    +0.109 C 
BRANCH   6   7
ATOM      7  C   UNL     1       2.973   5.693   0.004  0.00  0.00    +0.056 C 
BRANCH   7   8
ATOM      8  C   UNL     1       4.387   6.214  -0.006  0.00  0.00    -0.021 A 
ATOM      9  C   UNL     1       5.112   6.579   1.063  0.00  0.00    +0.087 A 
ATOM     10  N   UNL     1       6.352   6.998   0.665  0.00  0.00    -0.360 N 
ATOM     11  H   UNL     1       7.053   7.309   1.260  0.00  0.00    +0.165 HD
ATOM     12  C   UNL     1       6.455   6.920  -0.706  0.00  0.00    +0.047 A 
ATOM     13  C   UNL     1       5.229   6.426  -1.187  0.00  0.00    +0.003 A 
ATOM     14  C   UNL     1       5.042   6.240  -2.557  0.00  0.00    +0.010 A 
ATOM     15  C   UNL     1       6.053   6.540  -3.426  0.00  0.00    +0.001 A 
ATOM     16  C   UNL     1       7.265   7.029  -2.957  0.00  0.00    +0.002 A 
ATOM     17  C   UNL     1       7.470   7.219  -1.608  0.00  0.00    +0.026 A 
ENDBRANCH   7   8
ENDBRANCH   6   7
ENDBRANCH   4   6
ENDBRANCH   1   2
BRANCH   1  18
ATOM     18  S   UNL     1       0.002  -0.004   0.002  0.00  0.00    -0.056 S 
BRANCH  18  22
ATOM     19  C   UNL     1      -3.643  -1.334   0.029  0.00  0.00    +0.256 A 
ATOM     20  N   UNL     1      -3.830  -0.034   0.038  0.00  0.00    -0.106 NA
ATOM     21  N   UNL     1      -2.689   0.561   0.030  0.00  0.00    -0.101 NA
ATOM     22  C   UNL     1      -1.729  -0.334   0.017  0.00  0.00    +0.278 A 
ATOM     23  O   UNL     1      -2.309  -1.550   0.010  0.00  0.00    -0.410 OA
BRANCH  19  31
ATOM     24  C   UNL     1     -10.488  -4.597  -0.236  0.00  0.00    +0.008 C 
ATOM     25  C   UNL     1      -8.968  -4.599  -0.409  0.00  0.00    -0.009 C 
ATOM     26  C   UNL     1      -8.366  -5.739   0.417  0.00  0.00    +0.009 C 
ATOM     27  C   UNL     1      -6.888  -5.901   0.032  0.00  0.00    +0.043 C 
ATOM     28  C   UNL     1      -6.251  -4.548   0.034  0.00  0.00    -0.006 A 
ATOM     29  C   UNL     1      -6.877  -3.337   0.046  0.00  0.00    -0.036 A 
ATOM     30  C   UNL     1      -6.063  -2.211   0.046  0.00  0.00    +0.024 A 
ATOM     31  C   UNL     1      -4.692  -2.365   0.033  0.00  0.00    +0.076 A 
ATOM     32  S   UNL     1      -4.525  -4.143   0.013  0.00  0.00    -0.088 S 
ATOM     33  C   UNL     1      -8.402  -3.258   0.059  0.00  0.00    +0.039 C 
ENDBRANCH  19  31
ENDBRANCH  18  22
ENDBRANCH   1  18
TORSDOF 7
