REMARK  Name = ZINC25672911
REMARK  9 active torsions:
REMARK  status: ('A' for Active; 'I' for Inactive)
REMARK    1  A    between atoms: C_1  and  C_2
REMARK    2  A    between atoms: C_2  and  C_3
REMARK    3  A    between atoms: C_3  and  C_5
REMARK    4  A    between atoms: C_3  and  C_6
REMARK    5  A    between atoms: C_11  and  N_12
REMARK    6  A    between atoms: C_13  and  C_15
REMARK    7  A    between atoms: C_15  and  C_17
REMARK    8  A    between atoms: C_15  and  N_18
REMARK    9  A    between atoms: N_18  and  C_19
REMARK                            x       y       z     vdW  Elec       q    Type
REMARK                         _______ _______ _______ _____ _____    ______ ____
ROOT
ATOM      1  C   UNL     1       3.638   3.162  -0.003  0.00  0.00    +0.154 C 
ATOM      2  C   UNL     1       4.001   2.802  -1.445  0.00  0.00    +0.038 C 
ENDROOT
BRANCH   1   4
ATOM      3  N   UNL     1       5.981   3.581   0.670  0.00  0.00    -0.284 N 
ATOM      4  C   UNL     1       4.715   4.037   0.583  0.00  0.00    +0.237 C 
ATOM      5  O   UNL     1       4.444   5.152   0.977  0.00  0.00    -0.273 OA
ATOM      6  H   UNL     1       6.213   2.545   0.383  0.00  0.00    +0.155 HD
BRANCH   3  12
ATOM      7  C   UNL     1       8.277   4.326   0.591  0.00  0.00    -0.023 A 
ATOM      8  C   UNL     1       9.280   5.161   1.043  0.00  0.00    +0.006 A 
ATOM      9  C   UNL     1       9.013   6.097   2.025  0.00  0.00    +0.000 A 
ATOM     10  C   UNL     1       7.741   6.199   2.559  0.00  0.00    +0.002 A 
ATOM     11  C   UNL     1       6.732   5.371   2.107  0.00  0.00    +0.023 A 
ATOM     12  C   UNL     1       6.999   4.426   1.125  0.00  0.00    +0.037 A 
BRANCH   7  13
ATOM     13  C   UNL     1       8.569   3.306  -0.479  0.00  0.00    +0.017 C 
ATOM     14  C   UNL     1       9.170   4.007  -1.700  0.00  0.00    +0.012 C 
BRANCH  13  16
ATOM     15  C   UNL     1       9.764   1.171  -0.985  0.00  0.00    +0.004 C 
ATOM     16  C   UNL     1       9.563   2.274   0.057  0.00  0.00    +0.004 C 
ENDBRANCH  13  16
ENDBRANCH   7  13
ENDBRANCH   3  12
ENDBRANCH   1   4
BRANCH   1  17
ATOM     17  N   UNL     1       2.361   3.881   0.015  0.00  0.00    -0.333 N 
ATOM     18  H   UNL     1       2.349   4.980   0.015  0.00  0.00    +0.147 HD
BRANCH  17  19
ATOM     19  C   UNL     1       1.157   3.168   0.031  0.00  0.00    +0.030 A 
ATOM     20  C   UNL     1       1.173   1.779   0.030  0.00  0.00    +0.026 A 
ATOM     21  C   UNL     1      -0.015   1.071   0.046  0.00  0.00    +0.049 A 
ATOM     22  C   UNL     1      -1.222   1.746   0.058  0.00  0.00    +0.142 A 
ATOM     23  C   UNL     1      -1.241   3.140   0.063  0.00  0.00    +0.077 A 
ATOM     24  C   UNL     1      -0.052   3.850   0.047  0.00  0.00    +0.050 A 
ATOM     25  N   UNL     1      -2.473   3.809   0.078  0.00  0.00    -0.280 N 
ATOM     26  C   UNL     1      -3.590   3.121   0.394  0.00  0.00    +0.255 C 
ATOM     27  O   UNL     1      -4.670   3.672   0.379  0.00  0.00    -0.272 OA
ATOM     28  C   UNL     1      -3.487   1.666   0.774  0.00  0.00    +0.325 C 
ATOM     29  O   UNL     1      -2.399   1.061   0.071  0.00  0.00    -0.481 OA
ATOM     30  H   UNL     1      -2.520   4.881  -0.166  0.00  0.00    +0.155 HD
ENDBRANCH  17  19
ENDBRANCH   1  17
TORSDOF 6
