REMARK  Name = ZINC40270390
REMARK  2 active torsions:
REMARK  status: ('A' for Active; 'I' for Inactive)
REMARK    1  A    between atoms: C_6  and  C_7
REMARK    2  A    between atoms: C_7  and  C_9
REMARK                            x       y       z     vdW  Elec       q    Type
REMARK                         _______ _______ _______ _____ _____    ______ ____
ROOT
ATOM      1  C   UNL     1      -0.017   1.380   0.010  0.00  0.00    +0.007 A 
ATOM      2  C   UNL     1       1.167   2.093   0.002  0.00  0.00    +0.028 A 
ATOM      3  C   UNL     1       2.378   1.419  -0.013  0.00  0.00    +0.067 A 
ATOM      4  C   UNL     1       2.397   0.022  -0.021  0.00  0.00    +0.067 A 
ATOM      5  C   UNL     1       1.204  -0.684  -0.014  0.00  0.00    +0.033 A 
ATOM      6  C   UNL     1       0.002  -0.004   0.002  0.00  0.00    -0.020 A 
ATOM      7  N   UNL     1       3.736  -0.362  -0.035  0.00  0.00    -0.306 N 
ATOM      8  H   UNL     1       4.064  -1.275  -0.043  0.00  0.00    +0.170 HD
ATOM      9  C   UNL     1       4.496   0.749  -0.035  0.00  0.00    +0.325 A 
ATOM     10  O   UNL     1       5.713   0.766  -0.047  0.00  0.00    -0.247 OA
ATOM     11  N   UNL     1       3.706   1.839  -0.023  0.00  0.00    -0.306 N 
ATOM     12  H   UNL     1       4.010   2.760  -0.020  0.00  0.00    +0.170 HD
ENDROOT
BRANCH   6  13
ATOM     13  C   UNL     1      -1.294  -0.772   0.011  0.00  0.00    +0.176 C 
ATOM     14 CL   UNL     1      -2.322  -0.232  -1.369  0.00  0.00    -0.108 Cl
BRANCH  13  15
ATOM     15  C   UNL     1      -2.020  -0.518   1.307  0.00  0.00    +0.128 A 
ATOM     16  C   UNL     1      -2.275  -1.435   2.258  0.00  0.00    +0.048 A 
ATOM     17  C   UNL     1      -2.971  -0.769   3.293  0.00  0.00    +0.057 A 
ATOM     18  C   UNL     1      -3.099   0.516   2.912  0.00  0.00    +0.170 A 
ATOM     19  O   UNL     1      -2.516   0.663   1.711  0.00  0.00    -0.451 OA
ATOM     20 BR   UNL     1      -3.949   1.884   3.904  0.00  0.00    -0.008 Br
ENDBRANCH  13  15
ENDBRANCH   6  13
TORSDOF 2
