REMARK  Name = ZINC37656389
REMARK  5 active torsions:
REMARK  status: ('A' for Active; 'I' for Inactive)
REMARK    1  A    between atoms: C_4  and  C_7
REMARK    2  A    between atoms: C_7  and  N_8
REMARK    3  A    between atoms: N_8  and  S_9
REMARK    4  A    between atoms: S_9  and  N_12
REMARK    5  A    between atoms: C_16  and  C_19
REMARK                            x       y       z     vdW  Elec       q    Type
REMARK                         _______ _______ _______ _____ _____    ______ ____
ROOT
ATOM      1  S   UNL     1       3.385  -2.765  -3.847  0.00  0.00    +0.097 S 
ATOM      2  O   UNL     1       3.457  -4.134  -3.473  0.00  0.00    -0.141 OA
ATOM      3  O   UNL     1       2.518  -2.299  -4.872  0.00  0.00    -0.141 OA
ENDROOT
BRANCH   1   4
ATOM      4  N   UNL     1       4.918  -2.312  -4.282  0.00  0.00    -0.166 NA
ATOM      5  C   UNL     1       5.134  -1.172  -5.183  0.00  0.00    +0.110 C 
ATOM      6  C   UNL     1       6.106  -0.194  -4.516  0.00  0.00    +0.018 C 
ATOM      7  C   UNL     1       7.385  -0.938  -4.126  0.00  0.00    +0.017 C 
ATOM      8  C   UNL     1       7.048  -2.043  -3.122  0.00  0.00    +0.118 C 
ATOM      9  C   UNL     1       6.087  -3.039  -3.768  0.00  0.00    +0.125 C 
BRANCH   8  10
ATOM     10  C   UNL     1       8.312  -2.754  -2.713  0.00  0.00    +0.360 C 
ATOM     11  O   UNL     1       9.213  -2.133  -2.175  0.00  0.00    -0.246 OA
ATOM     12  O   UNL     1       8.434  -3.949  -2.919  0.00  0.00    -0.246 OA
ENDBRANCH   8  10
ENDBRANCH   1   4
BRANCH   1  13
ATOM     13  N   UNL     1       2.995  -1.920  -2.477  0.00  0.00    -0.179 NA
ATOM     14  H   UNL     1       2.850  -2.391  -1.641  0.00  0.00    +0.149 HD
BRANCH  13  15
ATOM     15  C   UNL     1       2.870  -0.461  -2.526  0.00  0.00    +0.110 C 
BRANCH  15  19
ATOM     16  C   UNL     1      -0.019   1.526   0.010  0.00  0.00    +0.000 C 
ATOM     17  C   UNL     1       1.417   2.055  -0.000  0.00  0.00    +0.000 C 
ATOM     18  C   UNL     1       2.133   1.562  -1.259  0.00  0.00    +0.005 C 
ATOM     19  C   UNL     1       2.154   0.032  -1.268  0.00  0.00    +0.005 C 
ATOM     20  C   UNL     1       0.718  -0.497  -1.257  0.00  0.00    +0.005 C 
ATOM     21  C   UNL     1       0.002  -0.004   0.002  0.00  0.00    +0.000 C 
ENDBRANCH  15  19
ENDBRANCH  13  15
ENDBRANCH   1  13
TORSDOF 5
