REMARK  Name = ZINC54431246
REMARK  12 active torsions:
REMARK  status: ('A' for Active; 'I' for Inactive)
REMARK    1  A    between atoms: C_1  and  C_2
REMARK    2  A    between atoms: C_5  and  C_30
REMARK    3  A    between atoms: N_8  and  C_10
REMARK    4  A    between atoms: C_10  and  C_11
REMARK    5  A    between atoms: C_10  and  C_12
REMARK    6  A    between atoms: C_10  and  C_13
REMARK    7  A    between atoms: C_13  and  N_14
REMARK    8  A    between atoms: N_17  and  C_18
REMARK    9  A    between atoms: C_21  and  C_24
REMARK   10  A    between atoms: C_24  and  C_25
REMARK   11  A    between atoms: N_27  and  C_28
REMARK   12  A    between atoms: N_27  and  C_29
REMARK                            x       y       z     vdW  Elec       q    Type
REMARK                         _______ _______ _______ _____ _____    ______ ____
ROOT
ATOM      1  N   UNL     1       2.800  -0.370   2.317  0.00  0.00    -0.300 N 
ATOM      2  C   UNL     1       3.886   0.403   2.114  0.00  0.00    +0.304 C 
ATOM      3  O   UNL     1       4.965  -0.111   1.892  0.00  0.00    -0.253 OA
ATOM      4  N   UNL     1       3.775   1.745   2.157  0.00  0.00    -0.269 N 
ATOM      5  H   UNL     1       1.939   0.040   2.495  0.00  0.00    +0.150 HD
ATOM      6  H   UNL     1       2.904   2.156   2.271  0.00  0.00    +0.156 HD
ENDROOT
BRANCH   4   7
ATOM      7  C   UNL     1       4.917   2.546   2.038  0.00  0.00    +0.035 A 
ATOM      8  C   UNL     1       5.022   3.721   2.771  0.00  0.00    +0.023 A 
ATOM      9  C   UNL     1       6.150   4.508   2.651  0.00  0.00    +0.006 A 
ATOM     10  C   UNL     1       7.174   4.128   1.804  0.00  0.00    -0.039 A 
ATOM     11  C   UNL     1       7.072   2.959   1.072  0.00  0.00    +0.006 A 
ATOM     12  C   UNL     1       5.949   2.164   1.191  0.00  0.00    +0.023 A 
BRANCH  10  13
ATOM     13  C   UNL     1       8.404   4.990   1.676  0.00  0.00    +0.131 C 
BRANCH  13  14
ATOM     14  C   UNL     1       9.427   4.560   2.695  0.00  0.00    +0.219 C 
ATOM     15  O   UNL     1       9.182   3.643   3.451  0.00  0.00    -0.275 OA
ATOM     16  N   UNL     1      10.614   5.193   2.767  0.00  0.00    -0.307 N 
ATOM     17  C   UNL     1      11.609   4.775   3.758  0.00  0.00    +0.131 C 
ATOM     18  C   UNL     1      10.911   6.300   1.854  0.00  0.00    +0.131 C 
ENDBRANCH  13  14
ENDBRANCH  10  13
ENDBRANCH   4   7
BRANCH   1  19
ATOM     19  C   UNL     1       2.921  -1.829   2.271  0.00  0.00    +0.093 C 
BRANCH  19  20
ATOM     20  C   UNL     1       1.536  -2.461   2.425  0.00  0.00    -0.055 C 
ATOM     21  C   UNL     1       1.671  -3.984   2.458  0.00  0.00    -0.008 C 
ATOM     22  C   UNL     1       0.654  -2.052   1.244  0.00  0.00    -0.008 C 
BRANCH  20  28
ATOM     23  C   UNL     1       2.087  -2.205   7.283  0.00  0.00    +0.005 C 
ATOM     24  C   UNL     1       1.191  -1.815   6.106  0.00  0.00    -0.031 C 
ATOM     25  C   UNL     1      -0.208  -2.403   6.313  0.00  0.00    +0.003 C 
ATOM     26  C   UNL     1      -1.075  -2.074   5.094  0.00  0.00    -0.031 C 
ATOM     27  C   UNL     1      -0.398  -2.616   3.833  0.00  0.00    -0.075 C 
ATOM     28  N   UNL     1       0.923  -1.996   3.677  0.00  0.00    +0.384 N 
ATOM     29  C   UNL     1       1.784  -2.366   4.808  0.00  0.00    -0.075 C 
ATOM     30  C   UNL     1      -1.236  -0.557   4.976  0.00  0.00    +0.005 C 
ATOM     31  H   UNL     1       0.822  -0.993   3.648  0.00  0.00    -0.081 HD
ENDBRANCH  20  28
ENDBRANCH  19  20
ENDBRANCH   1  19
TORSDOF 6
