REMARK  Name = ZINC39551190
REMARK  7 active torsions:
REMARK  status: ('A' for Active; 'I' for Inactive)
REMARK    1  A    between atoms: C_1  and  C_2
REMARK    2  A    between atoms: C_4  and  O_25
REMARK    3  A    between atoms: C_5  and  C_9
REMARK    4  A    between atoms: C_6  and  O_8
REMARK    5  A    between atoms: C_11  and  C_19
REMARK    6  A    between atoms: C_12  and  C_15
REMARK    7  A    between atoms: C_22  and  C_24
REMARK                            x       y       z     vdW  Elec       q    Type
REMARK                         _______ _______ _______ _____ _____    ______ ____
ROOT
ATOM      1  C   UNL     1       0.035  -4.307  -0.030  0.00  0.00    +0.170 C 
ATOM      2  C   UNL     1       1.419  -4.762   0.402  0.00  0.00    +0.038 C 
ATOM      3  C   UNL     1       1.182  -5.471   1.534  0.00  0.00    +0.171 C 
ATOM      4  N   UNL     1      -0.126  -5.489   1.811  0.00  0.00    -0.173 NA
ATOM      5  N   UNL     1      -0.840  -4.878   1.008  0.00  0.00    -0.296 N 
ATOM      6  H   UNL     1      -1.805  -4.789   1.052  0.00  0.00    +0.183 HD
ENDROOT
BRANCH   1  11
ATOM      7  C   UNL     1      -0.312   1.468  -0.051  0.00  0.00    +0.044 C 
ATOM      8  C   UNL     1      -0.221  -0.036  -0.046  0.00  0.00    -0.044 A 
ATOM      9  C   UNL     1      -0.177  -0.729  -1.241  0.00  0.00    +0.049 A 
ATOM     10  C   UNL     1      -0.094  -2.114  -1.238  0.00  0.00    +0.126 A 
ATOM     11  C   UNL     1      -0.055  -2.803  -0.036  0.00  0.00    +0.063 A 
ATOM     12  C   UNL     1      -0.100  -2.105   1.162  0.00  0.00    +0.126 A 
ATOM     13  C   UNL     1      -0.177  -0.720   1.154  0.00  0.00    +0.049 A 
BRANCH  12  14
ATOM     14  O   UNL     1      -0.062  -2.778   2.342  0.00  0.00    -0.506 OA
ATOM     15  H   UNL     1       0.831  -2.920   2.686  0.00  0.00    +0.292 HD
ENDBRANCH  12  14
BRANCH  10  16
ATOM     16  O   UNL     1      -0.051  -2.795  -2.413  0.00  0.00    -0.506 OA
ATOM     17  H   UNL     1       0.843  -2.939  -2.752  0.00  0.00    +0.292 HD
ENDBRANCH  10  16
ENDBRANCH   1  11
BRANCH   2  18
ATOM     18  C   UNL     1       2.707  -4.497  -0.251  0.00  0.00    +0.079 A 
ATOM     19  C   UNL     1       2.984  -4.943  -1.518  0.00  0.00    +0.075 A 
ATOM     20  S   UNL     1       4.547  -4.378  -1.766  0.00  0.00    -0.080 S 
ATOM     21  C   UNL     1       4.797  -3.613  -0.293  0.00  0.00    +0.076 A 
ATOM     22  N   UNL     1       3.677  -3.802   0.351  0.00  0.00    -0.244 NA
ATOM     23  C   UNL     1       6.025  -2.875   0.174  0.00  0.00    +0.073 C 
ENDBRANCH   2  18
BRANCH   3  24
ATOM     24  C   UNL     1       2.244  -6.146   2.362  0.00  0.00    +0.436 C 
ATOM     25  F   UNL     1       3.504  -5.866   1.822  0.00  0.00    -0.164 F 
ATOM     26  F   UNL     1       2.184  -5.669   3.676  0.00  0.00    -0.164 F 
ATOM     27  F   UNL     1       2.031  -7.528   2.358  0.00  0.00    -0.164 F 
ENDBRANCH   3  24
TORSDOF 5
