REMARK  Name = ZINC39665428
REMARK  9 active torsions:
REMARK  status: ('A' for Active; 'I' for Inactive)
REMARK    1  A    between atoms: C_1  and  C_2
REMARK    2  A    between atoms: C_3  and  C_8
REMARK    3  A    between atoms: C_4  and  C_7
REMARK    4  A    between atoms: C_12  and  C_21
REMARK    5  A    between atoms: N_23  and  C_24
REMARK    6  A    between atoms: C_24  and  C_25
REMARK    7  A    between atoms: C_25  and  C_27
REMARK    8  A    between atoms: C_25  and  O_28
REMARK    9  A    between atoms: O_28  and  C_29
REMARK                            x       y       z     vdW  Elec       q    Type
REMARK                         _______ _______ _______ _____ _____    ______ ____
ROOT
ATOM      1  C   UNL     1      -0.293  -0.943  -0.827  0.00  0.00    +0.252 C 
ATOM      2  O   UNL     1       0.793  -0.983  -1.373  0.00  0.00    -0.270 OA
ATOM      3  N   UNL     1      -1.418  -0.887  -1.567  0.00  0.00    -0.296 N 
ATOM      4  C   UNL     1      -2.818  -0.826  -1.087  0.00  0.00    +0.121 C 
ATOM      5  C   UNL     1      -3.518   0.160  -2.049  0.00  0.00    +0.100 C 
ATOM      6  C   UNL     1      -2.671   0.123  -3.332  0.00  0.00    -0.004 C 
ATOM      7  C   UNL     1      -1.533  -0.866  -3.045  0.00  0.00    +0.115 C 
ATOM      8  C   UNL     1      -2.098   1.506  -3.627  0.00  0.00    -0.010 C 
ATOM      9  C   UNL     1      -1.308   1.457  -4.938  0.00  0.00    -0.082 C 
ATOM     10  N   UNL     1      -2.192   1.029  -6.029  0.00  0.00    +0.379 N 
ATOM     11  C   UNL     1      -2.665  -0.338  -5.782  0.00  0.00    -0.082 C 
ATOM     12  C   UNL     1      -3.513  -0.365  -4.507  0.00  0.00    -0.010 C 
ATOM     13  H   UNL     1      -2.983   1.653  -6.083  0.00  0.00    -0.086 HD
ATOM     14  H   UNL     1      -1.685   1.056  -6.901  0.00  0.00    -0.086 HD
ENDROOT
BRANCH   1  17
ATOM     15  C   UNL     1      -0.290   1.656   1.104  0.00  0.00    +0.070 C 
ATOM     16  C   UNL     1      -0.379   0.213   1.528  0.00  0.00    +0.093 A 
ATOM     17  C   UNL     1      -0.378  -0.954   0.645  0.00  0.00    +0.101 A 
ATOM     18  C   UNL     1      -0.472  -2.056   1.446  0.00  0.00    +0.147 A 
ATOM     19  O   UNL     1      -0.528  -1.642   2.714  0.00  0.00    -0.359 OA
ATOM     20  N   UNL     1      -0.464  -0.230   2.748  0.00  0.00    -0.083 NA
ATOM     21  C   UNL     1      -0.508  -3.489   0.980  0.00  0.00    +0.090 C 
ENDBRANCH   1  17
BRANCH   5  22
ATOM     22  C   UNL     1      -3.527   1.549  -1.463  0.00  0.00    +0.218 C 
ATOM     23  O   UNL     1      -2.682   1.871  -0.655  0.00  0.00    -0.275 OA
ATOM     24  N   UNL     1      -4.474   2.432  -1.837  0.00  0.00    -0.312 N 
ATOM     25  H   UNL     1      -5.149   2.174  -2.483  0.00  0.00    +0.149 HD
BRANCH  24  26
ATOM     26  C   UNL     1      -4.482   3.781  -1.268  0.00  0.00    +0.148 C 
BRANCH  26  27
ATOM     27  C   UNL     1      -5.651   4.576  -1.855  0.00  0.00    +0.187 C 
ATOM     28  C   UNL     1      -5.587   6.021  -1.357  0.00  0.00    +0.053 C 
BRANCH  27  29
ATOM     29  O   UNL     1      -6.884   3.984  -1.443  0.00  0.00    -0.488 OA
BRANCH  29  30
ATOM     30  C   UNL     1      -7.965   4.194  -2.239  0.00  0.00    +0.121 A 
ATOM     31  C   UNL     1      -7.869   5.040  -3.333  0.00  0.00    +0.045 A 
ATOM     32  C   UNL     1      -8.969   5.252  -4.141  0.00  0.00    +0.004 A 
ATOM     33  C   UNL     1     -10.167   4.621  -3.859  0.00  0.00    +0.000 A 
ATOM     34  C   UNL     1     -10.266   3.777  -2.768  0.00  0.00    +0.004 A 
ATOM     35  C   UNL     1      -9.166   3.557  -1.961  0.00  0.00    +0.045 A 
ENDBRANCH  29  30
ENDBRANCH  27  29
ENDBRANCH  26  27
ENDBRANCH  24  26
ENDBRANCH   5  22
TORSDOF 6
