REMARK  Name = ZINC35992247
REMARK  13 active torsions:
REMARK  status: ('A' for Active; 'I' for Inactive)
REMARK    1  A    between atoms: C_1  and  C_2
REMARK    2  A    between atoms: C_2  and  O_3
REMARK    3  A    between atoms: O_3  and  C_4
REMARK    4  A    between atoms: C_4  and  C_6
REMARK    5  A    between atoms: C_7  and  C_25
REMARK    6  A    between atoms: N_8  and  C_24
REMARK    7  A    between atoms: C_12  and  C_14
REMARK    8  A    between atoms: C_17  and  C_20
REMARK    9  A    between atoms: C_25  and  N_26
REMARK   10  A    between atoms: C_30  and  C_33
REMARK   11  A    between atoms: N_36  and  C_37
REMARK   12  A    between atoms: C_37  and  C_38
REMARK   13  A    between atoms: C_37  and  C_39
REMARK                            x       y       z     vdW  Elec       q    Type
REMARK                         _______ _______ _______ _____ _____    ______ ____
ROOT
ATOM      1  C   UNL     1       1.880  -2.379   2.484  0.00  0.00    +0.080 C 
ATOM      2  C   UNL     1       1.939  -3.704   2.739  0.00  0.00    +0.041 C 
ATOM      3  N   UNL     1       2.739  -4.196   3.731  0.00  0.00    -0.260 N 
ATOM      4  C   UNL     1       3.510  -3.429   4.512  0.00  0.00    +0.307 C 
ATOM      5  O   UNL     1       4.189  -3.958   5.370  0.00  0.00    -0.252 OA
ATOM      6  N   UNL     1       3.558  -2.088   4.378  0.00  0.00    -0.288 N 
ATOM      7  C   UNL     1       2.736  -1.459   3.331  0.00  0.00    +0.144 C 
ATOM      8  C   UNL     1       2.754  -5.644   3.953  0.00  0.00    +0.139 C 
ATOM      9  H   UNL     1       4.123  -1.551   4.955  0.00  0.00    +0.151 HD
ENDROOT
BRANCH   7  10
ATOM     10  C   UNL     1       1.824  -0.462   3.999  0.00  0.00    -0.022 A 
ATOM     11  C   UNL     1       1.122  -0.821   5.135  0.00  0.00    +0.006 A 
ATOM     12  C   UNL     1       0.286   0.094   5.748  0.00  0.00    +0.013 A 
ATOM     13  C   UNL     1       0.152   1.367   5.226  0.00  0.00    +0.055 A 
ATOM     14  C   UNL     1       0.855   1.725   4.091  0.00  0.00    +0.013 A 
ATOM     15  C   UNL     1       1.695   0.812   3.480  0.00  0.00    +0.006 A 
BRANCH  13  16
ATOM     16  C   UNL     1      -0.760   2.363   5.894  0.00  0.00    +0.417 C 
ATOM     17  F   UNL     1      -0.040   3.085   6.852  0.00  0.00    -0.166 F 
ATOM     18  F   UNL     1      -1.271   3.243   4.934  0.00  0.00    -0.166 F 
ATOM     19  F   UNL     1      -1.815   1.686   6.515  0.00  0.00    -0.166 F 
ENDBRANCH  13  16
ENDBRANCH   7  10
BRANCH   1  20
ATOM     20  C   UNL     1       1.053  -1.869   1.456  0.00  0.00    +0.339 C 
ATOM     21  O   UNL     1       1.544  -1.497   0.407  0.00  0.00    -0.245 OA
BRANCH  20  22
ATOM     22  O   UNL     1      -0.282  -1.794   1.640  0.00  0.00    -0.462 OA
BRANCH  22  24
ATOM     23  C   UNL     1      -2.536  -1.262   0.950  0.00  0.00    +0.048 C 
ATOM     24  C   UNL     1      -1.057  -1.268   0.560  0.00  0.00    +0.229 C 
ENDBRANCH  22  24
ENDBRANCH  20  22
ENDBRANCH   1  20
BRANCH   2  25
ATOM     25  C   UNL     1       1.109  -4.655   1.917  0.00  0.00    +0.136 C 
BRANCH  25  26
ATOM     26  N   UNL     1       1.994  -5.528   1.134  0.00  0.00    -0.294 NA
ATOM     27  C   UNL     1       2.746  -4.756   0.136  0.00  0.00    +0.104 C 
ATOM     28  C   UNL     1       3.784  -5.664  -0.532  0.00  0.00    +0.125 C 
ATOM     29  N   UNL     1       3.095  -6.854  -1.055  0.00  0.00    -0.280 N 
ATOM     30  C   UNL     1       2.213  -7.603  -0.148  0.00  0.00    +0.088 C 
ATOM     31  C   UNL     1       1.237  -6.618   0.505  0.00  0.00    +0.107 C 
ATOM     32  C   UNL     1       1.435  -8.655  -0.940  0.00  0.00    +0.029 C 
ATOM     33  C   UNL     1       3.269  -7.248  -2.333  0.00  0.00    +0.303 C 
ATOM     34  O   UNL     1       2.627  -8.182  -2.773  0.00  0.00    -0.253 OA
ATOM     35  N   UNL     1       4.154  -6.606  -3.121  0.00  0.00    -0.297 N 
ATOM     36  H   UNL     1       4.717  -5.909  -2.751  0.00  0.00    +0.150 HD
BRANCH  35  37
ATOM     37  C   UNL     1       4.264  -6.962  -4.538  0.00  0.00    +0.068 C 
ATOM     38  C   UNL     1       4.813  -5.769  -5.322  0.00  0.00    +0.027 C 
ATOM     39  C   UNL     1       5.213  -8.153  -4.692  0.00  0.00    +0.027 C 
ENDBRANCH  35  37
ENDBRANCH  25  26
ENDBRANCH   2  25
TORSDOF 8
