REMARK  Name = ZINC49486356
REMARK  8 active torsions:
REMARK  status: ('A' for Active; 'I' for Inactive)
REMARK    1  A    between atoms: C_3  and  N_13
REMARK    2  A    between atoms: C_5  and  N_7
REMARK    3  A    between atoms: C_14  and  C_16
REMARK    4  A    between atoms: N_18  and  C_19
REMARK    5  A    between atoms: C_19  and  C_20
REMARK    6  A    between atoms: C_20  and  C_22
REMARK    7  A    between atoms: C_20  and  N_27
REMARK    8  A    between atoms: N_30  and  C_33
REMARK                            x       y       z     vdW  Elec       q    Type
REMARK                         _______ _______ _______ _____ _____    ______ ____
ROOT
ATOM      1  C   UNL     1       5.743   6.070  -0.485  0.00  0.00    +0.097 C 
ENDROOT
BRANCH   1   4
ATOM      2  C   UNL     1       6.919   4.490   0.950  0.00  0.00    +0.299 C 
ATOM      3  O   UNL     1       6.685   3.621   0.136  0.00  0.00    -0.265 OA
ATOM      4  N   UNL     1       6.491   5.750   0.733  0.00  0.00    -0.309 N 
ATOM      5  H   UNL     1       6.679   6.445   1.383  0.00  0.00    +0.149 HD
BRANCH   2   7
ATOM      6  N   UNL     1       8.110   2.905   2.409  0.00  0.00    -0.278 N 
ATOM      7  C   UNL     1       7.682   4.165   2.192  0.00  0.00    +0.303 C 
ATOM      8  O   UNL     1       7.916   5.034   3.006  0.00  0.00    -0.265 OA
ATOM      9  H   UNL     1       7.988   2.227   1.726  0.00  0.00    +0.155 HD
BRANCH   6  12
ATOM     10  C   UNL     1       9.041   2.968   5.966  0.00  0.00    +0.004 A 
ATOM     11  C   UNL     1       8.430   3.293   4.770  0.00  0.00    +0.023 A 
ATOM     12  C   UNL     1       8.729   2.576   3.618  0.00  0.00    +0.036 A 
ATOM     13  C   UNL     1       9.642   1.532   3.670  0.00  0.00    +0.046 A 
ATOM     14  C   UNL     1      10.254   1.209   4.872  0.00  0.00    +0.038 A 
ATOM     15  C   UNL     1       9.951   1.929   6.020  0.00  0.00    +0.023 A 
BRANCH  14  16
ATOM     16  N   UNL     1      11.175   0.157   4.928  0.00  0.00    -0.271 N 
ATOM     17  C   UNL     1      11.781  -0.348   6.165  0.00  0.00    +0.114 C 
ATOM     18  C   UNL     1      12.357  -1.735   5.806  0.00  0.00    +0.029 C 
ATOM     19  C   UNL     1      12.595  -1.594   4.285  0.00  0.00    +0.098 C 
ATOM     20  C   UNL     1      11.614  -0.525   3.856  0.00  0.00    +0.220 C 
ATOM     21  O   UNL     1      11.275  -0.313   2.711  0.00  0.00    -0.275 OA
ENDBRANCH  14  16
ENDBRANCH   6  12
ENDBRANCH   2   7
ENDBRANCH   1   4
BRANCH   1  22
ATOM     22  C   UNL     1       5.270   7.524  -0.427  0.00  0.00    +0.017 C 
BRANCH  22  23
ATOM     23  N   UNL     1       4.508   7.741   0.810  0.00  0.00    +0.389 N 
ATOM     24  C   UNL     1       3.413   6.765   0.886  0.00  0.00    -0.059 C 
ATOM     25  C   UNL     1       2.688   6.916   2.228  0.00  0.00    +0.086 C 
ATOM     26  N   UNL     1       2.264   8.317   2.373  0.00  0.00    -0.333 N 
ATOM     27  C   UNL     1       3.265   9.371   2.151  0.00  0.00    +0.086 C 
ATOM     28  C   UNL     1       3.963   9.105   0.813  0.00  0.00    -0.059 C 
ATOM     29  H   UNL     1       5.117   7.622   1.605  0.00  0.00    -0.081 HD
BRANCH  26  30
ATOM     30  C   UNL     1       0.946   8.637   2.713  0.00  0.00    +0.030 A 
ATOM     31  C   UNL     1       0.047   7.629   3.038  0.00  0.00    +0.026 A 
ATOM     32  C   UNL     1      -1.254   7.948   3.374  0.00  0.00    +0.040 A 
ATOM     33  C   UNL     1      -1.663   9.271   3.388  0.00  0.00    +0.124 A 
ATOM     34  C   UNL     1      -0.768  10.277   3.064  0.00  0.00    +0.040 A 
ATOM     35  C   UNL     1       0.535   9.963   2.733  0.00  0.00    +0.026 A 
ATOM     36  F   UNL     1      -2.936   9.580   3.717  0.00  0.00    -0.205 F 
ENDBRANCH  26  30
ENDBRANCH  22  23
BRANCH  22  37
ATOM     37  C   UNL     1       6.465   8.442  -0.448  0.00  0.00    +0.093 A 
ATOM     38  C   UNL     1       6.929   9.105  -1.523  0.00  0.00    +0.043 A 
ATOM     39  C   UNL     1       8.056   9.842  -1.094  0.00  0.00    +0.041 A 
ATOM     40  C   UNL     1       8.215   9.585   0.216  0.00  0.00    +0.195 A 
ATOM     41  O   UNL     1       7.245   8.741   0.604  0.00  0.00    -0.469 OA
ENDBRANCH  22  37
ENDBRANCH   1  22
TORSDOF 8
