REMARK  Name = ZINC40881783
REMARK  11 active torsions:
REMARK  status: ('A' for Active; 'I' for Inactive)
REMARK    1  A    between atoms: C_1  and  C_2
REMARK    2  A    between atoms: C_2  and  O_3
REMARK    3  A    between atoms: O_3  and  C_4
REMARK    4  A    between atoms: C_4  and  C_6
REMARK    5  A    between atoms: C_7  and  C_25
REMARK    6  A    between atoms: C_10  and  N_11
REMARK    7  A    between atoms: C_12  and  C_14
REMARK    8  A    between atoms: C_28  and  O_33
REMARK    9  A    between atoms: C_29  and  O_31
REMARK   10  A    between atoms: O_31  and  C_32
REMARK   11  A    between atoms: O_33  and  C_34
REMARK                            x       y       z     vdW  Elec       q    Type
REMARK                         _______ _______ _______ _____ _____    ______ ____
ROOT
ATOM      1  C   UNL     1       1.496  -2.370   2.466  0.00  0.00    +0.095 A 
ATOM      2  C   UNL     1       0.794  -2.684   3.698  0.00  0.00    +0.005 A 
ATOM      3  C   UNL     1       1.563  -3.194   4.694  0.00  0.00    +0.056 A 
ATOM      4  S   UNL     1       3.188  -3.244   3.971  0.00  0.00    -0.080 S 
ATOM      5  C   UNL     1       2.857  -2.631   2.445  0.00  0.00    +0.086 A 
ENDROOT
BRANCH   2   6
ATOM      6  C   UNL     1      -0.663  -2.461   3.857  0.00  0.00    -0.013 A 
ATOM      7  C   UNL     1      -1.224  -1.232   3.513  0.00  0.00    +0.012 A 
ATOM      8  C   UNL     1      -2.580  -1.026   3.663  0.00  0.00    +0.050 A 
ATOM      9  C   UNL     1      -3.388  -2.039   4.155  0.00  0.00    +0.162 A 
ATOM     10  C   UNL     1      -2.834  -3.269   4.500  0.00  0.00    +0.162 A 
ATOM     11  C   UNL     1      -1.476  -3.483   4.347  0.00  0.00    +0.058 A 
BRANCH  10  12
ATOM     12  O   UNL     1      -3.629  -4.261   4.984  0.00  0.00    -0.491 OA
ATOM     13  C   UNL     1      -2.993  -5.497   5.318  0.00  0.00    +0.277 C 
ENDBRANCH  10  12
BRANCH   9  14
ATOM     14  O   UNL     1      -4.724  -1.831   4.302  0.00  0.00    -0.491 OA
ATOM     15  C   UNL     1      -5.226  -0.546   3.929  0.00  0.00    +0.277 C 
ENDBRANCH   9  14
ENDBRANCH   2   6
BRANCH   5  16
ATOM     16  N   UNL     1       3.745  -2.429   1.400  0.00  0.00    -0.276 N 
ATOM     17  C   UNL     1       5.047  -2.740   1.552  0.00  0.00    +0.262 C 
ATOM     18  O   UNL     1       5.442  -3.197   2.604  0.00  0.00    -0.271 OA
ATOM     19  H   UNL     1       3.428  -2.064   0.559  0.00  0.00    +0.155 HD
BRANCH  17  20
ATOM     20  C   UNL     1       6.012  -2.521   0.416  0.00  0.00    +0.296 C 
ATOM     21  C   UNL     1       6.138  -1.019   0.126  0.00  0.00    +0.283 C 
ATOM     22  O   UNL     1       7.070  -0.846  -0.946  0.00  0.00    -0.484 OA
ATOM     23  C   UNL     1       8.233  -1.547  -0.864  0.00  0.00    +0.162 A 
ATOM     24  C   UNL     1       9.313  -1.169  -1.648  0.00  0.00    +0.049 A 
ATOM     25  C   UNL     1      10.500  -1.873  -1.578  0.00  0.00    +0.004 A 
ATOM     26  C   UNL     1      10.615  -2.957  -0.727  0.00  0.00    +0.004 A 
ATOM     27  C   UNL     1       9.543  -3.338   0.058  0.00  0.00    +0.049 A 
ATOM     28  C   UNL     1       8.349  -2.635  -0.007  0.00  0.00    +0.163 A 
ATOM     29  O   UNL     1       7.305  -3.018   0.778  0.00  0.00    -0.473 OA
ENDBRANCH  17  20
ENDBRANCH   5  16
BRANCH   1  30
ATOM     30  C   UNL     1       0.801  -1.814   1.305  0.00  0.00    +0.342 C 
ATOM     31  O   UNL     1       0.321  -2.557   0.470  0.00  0.00    -0.245 OA
BRANCH  30  32
ATOM     32  O   UNL     1       0.693  -0.477   1.160  0.00  0.00    -0.461 OA
BRANCH  32  34
ATOM     33  C   UNL     1      -0.019   1.526   0.010  0.00  0.00    +0.048 C 
ATOM     34  C   UNL     1       0.002  -0.004   0.002  0.00  0.00    +0.229 C 
ENDBRANCH  32  34
ENDBRANCH  30  32
ENDBRANCH   1  30
TORSDOF 8
