REMARK  Name = ZINC35913977
REMARK  6 active torsions:
REMARK  status: ('A' for Active; 'I' for Inactive)
REMARK    1  A    between atoms: N_9  and  C_11
REMARK    2  A    between atoms: C_11  and  C_12
REMARK    3  A    between atoms: C_12  and  C_13
REMARK    4  A    between atoms: C_13  and  C_15
REMARK    5  A    between atoms: C_13  and  O_24
REMARK    6  A    between atoms: O_24  and  C_25
REMARK                            x       y       z     vdW  Elec       q    Type
REMARK                         _______ _______ _______ _____ _____    ______ ____
ROOT
ATOM      1  C   UNL     1       7.062  -3.011   0.874  0.00  0.00    +0.202 C 
ENDROOT
BRANCH   1   2
ATOM      2  C   UNL     1       7.949  -2.704   2.053  0.00  0.00    -0.004 A 
ATOM      3  C   UNL     1       8.710  -1.549   2.062  0.00  0.00    +0.011 A 
ATOM      4  C   UNL     1       9.524  -1.263   3.141  0.00  0.00    +0.050 A 
ATOM      5  C   UNL     1       9.580  -2.132   4.218  0.00  0.00    +0.166 A 
ATOM      6  C   UNL     1       8.813  -3.295   4.210  0.00  0.00    +0.167 A 
ATOM      7  C   UNL     1       7.995  -3.573   3.127  0.00  0.00    +0.056 A 
ATOM      8  O   UNL     1       9.041  -3.977   5.370  0.00  0.00    -0.453 OA
ATOM      9  C   UNL     1      10.259  -3.427   5.905  0.00  0.00    +0.466 C 
ATOM     10  O   UNL     1      10.288  -2.085   5.384  0.00  0.00    -0.453 OA
ENDBRANCH   1   2
BRANCH   1  11
ATOM     11  C   UNL     1       5.771  -2.198   0.981  0.00  0.00    +0.031 C 
BRANCH  11  12
ATOM     12  C   UNL     1       4.819  -2.601  -0.147  0.00  0.00    -0.074 C 
BRANCH  12  21
ATOM     13  C   UNL     1       0.298   1.942  -0.424  0.00  0.00    +0.000 A 
ATOM     14  C   UNL     1       1.525   2.542  -0.206  0.00  0.00    +0.000 A 
ATOM     15  C   UNL     1       2.669   1.771  -0.162  0.00  0.00    +0.002 A 
ATOM     16  C   UNL     1       2.596   0.397  -0.336  0.00  0.00    -0.061 A 
ATOM     17  C   UNL     1       1.372  -0.200  -0.550  0.00  0.00    -0.048 A 
ATOM     18  C   UNL     1       0.223   0.575  -0.596  0.00  0.00    +0.004 A 
ATOM     19  C   UNL     1       1.246  -1.691  -0.736  0.00  0.00    +0.017 C 
ATOM     20  C   UNL     1       2.617  -2.290  -1.053  0.00  0.00    -0.074 C 
ATOM     21  N   UNL     1       3.579  -1.821  -0.044  0.00  0.00    +0.383 N 
ATOM     22  C   UNL     1       3.870  -0.404  -0.285  0.00  0.00    -0.043 C 
ATOM     23  H   UNL     1       3.184  -1.932   0.877  0.00  0.00    -0.081 HD
ENDBRANCH  12  21
ENDBRANCH  11  12
ENDBRANCH   1  11
BRANCH   1  24
ATOM     24  O   UNL     1       7.742  -2.668  -0.336  0.00  0.00    -0.484 OA
BRANCH  24  25
ATOM     25  C   UNL     1       8.588  -3.598  -0.853  0.00  0.00    +0.124 A 
ATOM     26  C   UNL     1       8.841  -4.770  -0.156  0.00  0.00    +0.048 A 
ATOM     27  C   UNL     1       9.701  -5.715  -0.682  0.00  0.00    +0.045 A 
ATOM     28  C   UNL     1      10.310  -5.494  -1.905  0.00  0.00    +0.159 A 
ATOM     29  C   UNL     1      10.059  -4.323  -2.604  0.00  0.00    +0.162 A 
ATOM     30  C   UNL     1       9.193  -3.378  -2.081  0.00  0.00    +0.087 A 
ATOM     31  F   UNL     1      10.654  -4.107  -3.797  0.00  0.00    -0.202 F 
ATOM     32  F   UNL     1      11.151  -6.419  -2.417  0.00  0.00    -0.202 F 
ENDBRANCH  24  25
ENDBRANCH   1  24
TORSDOF 6
