REMARK  Name = ZINC17044133
REMARK  4 active torsions:
REMARK  status: ('A' for Active; 'I' for Inactive)
REMARK    1  A    between atoms: C_1  and  C_2
REMARK    2  A    between atoms: C_2  and  C_4
REMARK    3  A    between atoms: C_4  and  N_5
REMARK    4  A    between atoms: N_15  and  C_18
REMARK                            x       y       z     vdW  Elec       q    Type
REMARK                         _______ _______ _______ _____ _____    ______ ____
ROOT
ATOM      1  N   UNL     1      -1.761  -0.929   1.390  0.00  0.00    -0.305 N 
ATOM      2  C   UNL     1      -1.372  -2.029   2.124  0.00  0.00    +0.112 A 
ATOM      3  C   UNL     1      -1.802  -2.151   3.410  0.00  0.00    +0.069 A 
ATOM      4  C   UNL     1      -2.646  -1.164   3.949  0.00  0.00    +0.258 A 
ATOM      5  O   UNL     1      -3.046  -1.260   5.097  0.00  0.00    -0.267 OA
ATOM      6  N   UNL     1      -3.012  -0.113   3.191  0.00  0.00    -0.302 N 
ATOM      7  H   UNL     1      -3.677   0.659   3.606  0.00  0.00    +0.171 HD
ATOM      8  C   UNL     1      -2.569   0.001   1.926  0.00  0.00    +0.162 A 
ATOM      9  S   UNL     1      -3.042   1.350   0.985  0.00  0.00    -0.013 S 
ATOM     10  C   UNL     1      -1.399  -3.318   4.274  0.00  0.00    +0.130 C 
ATOM     11  N   UNL     1      -0.829  -4.379   3.429  0.00  0.00    -0.280 NA
ATOM     12  C   UNL     1       0.151  -3.794   2.499  0.00  0.00    +0.191 C 
ATOM     13  N   UNL     1      -0.559  -2.955   1.529  0.00  0.00    -0.317 N 
ATOM     14  H   UNL     1      -0.405  -3.111   0.451  0.00  0.00    +0.149 HD
ENDROOT
BRANCH  11  15
ATOM     15  C   UNL     1      -0.214  -5.431   4.249  0.00  0.00    +0.058 C 
ATOM     16  C   UNL     1       0.984  -4.854   5.005  0.00  0.00    +0.019 C 
ATOM     17  C   UNL     1       1.624  -5.950   5.859  0.00  0.00    +0.002 C 
ATOM     18  C   UNL     1       2.094  -7.092   4.956  0.00  0.00    +0.000 C 
ATOM     19  C   UNL     1       0.895  -7.669   4.200  0.00  0.00    +0.002 C 
ATOM     20  C   UNL     1       0.255  -6.573   3.346  0.00  0.00    +0.019 C 
ENDBRANCH  11  15
BRANCH   1  21
ATOM     21  C   UNL     1      -1.293  -0.775   0.010  0.00  0.00    +0.155 C 
BRANCH  21  23
ATOM     22  C   UNL     1      -0.018   1.503   0.010  0.00  0.00    +0.040 C 
ATOM     23  C   UNL     1       0.002  -0.004   0.002  0.00  0.00    -0.060 C 
ATOM     24  C   UNL     1       1.145  -0.644  -0.012  0.00  0.00    +0.009 C 
ENDBRANCH  21  23
ENDBRANCH   1  21
TORSDOF 3
