REMARK  Name = ZINC12204160
REMARK  8 active torsions:
REMARK  status: ('A' for Active; 'I' for Inactive)
REMARK    1  A    between atoms: C_1  and  C_2
REMARK    2  A    between atoms: C_4  and  C_11
REMARK    3  A    between atoms: C_9  and  C_10
REMARK    4  A    between atoms: C_22  and  C_23
REMARK    5  A    between atoms: C_22  and  N_59
REMARK    6  A    between atoms: C_23  and  C_24
REMARK    7  A    between atoms: C_23  and  C_25
REMARK    8  A    between atoms: C_23  and  C_26
REMARK                            x       y       z     vdW  Elec       q    Type
REMARK                         _______ _______ _______ _____ _____    ______ ____
ROOT
ATOM      1  C   UNL     1      -1.243  -3.178  -6.032  0.00  0.00    +0.252 C 
ATOM      2  O   UNL     1      -1.983  -3.749  -6.810  0.00  0.00    -0.270 OA
ATOM      3  N   UNL     1      -1.713  -2.754  -4.842  0.00  0.00    -0.297 N 
ATOM      4  C   UNL     1      -3.081  -2.941  -4.306  0.00  0.00    +0.108 C 
ATOM      5  C   UNL     1      -2.838  -3.233  -2.802  0.00  0.00    +0.025 C 
ATOM      6  C   UNL     1      -1.651  -2.309  -2.464  0.00  0.00    -0.027 C 
ATOM      7  C   UNL     1      -0.969  -2.010  -3.807  0.00  0.00    +0.113 C 
ATOM      8  C   UNL     1      -2.161  -1.019  -1.829  0.00  0.00    +0.005 C 
ATOM      9  C   UNL     1      -2.809  -1.344  -0.479  0.00  0.00    -0.018 C 
ATOM     10  C   UNL     1      -1.791  -2.066   0.407  0.00  0.00    -0.079 C 
ATOM     11  C   UNL     1      -0.685  -3.023  -1.525  0.00  0.00    -0.070 C 
ATOM     12  N   UNL     1      -1.381  -3.323  -0.255  0.00  0.00    +0.380 N 
ATOM     13  H   UNL     1      -2.219  -3.881  -0.457  0.00  0.00    -0.082 HD
ENDROOT
BRANCH   1  17
ATOM     14  C   UNL     1       3.101  -4.797  -7.908  0.00  0.00    +0.045 C 
ATOM     15  C   UNL     1       2.258  -3.712  -7.289  0.00  0.00    -0.031 A 
ATOM     16  C   UNL     1       0.926  -3.966  -6.962  0.00  0.00    +0.023 A 
ATOM     17  C   UNL     1       0.165  -2.949  -6.391  0.00  0.00    +0.101 A 
ATOM     18  C   UNL     1       0.771  -1.685  -6.166  0.00  0.00    +0.261 A 
ATOM     19  O   UNL     1       0.126  -0.777  -5.672  0.00  0.00    -0.267 OA
ATOM     20  N   UNL     1       2.063  -1.495  -6.494  0.00  0.00    -0.326 N 
ATOM     21  H   UNL     1       2.474  -0.631  -6.334  0.00  0.00    +0.169 HD
ATOM     22  C   UNL     1       2.797  -2.489  -7.049  0.00  0.00    +0.019 A 
ATOM     23  C   UNL     1       4.238  -2.233  -7.409  0.00  0.00    +0.063 C 
ENDBRANCH   1  17
BRANCH  12  24
ATOM     24  C   UNL     1      -0.493  -4.096   0.637  0.00  0.00    -0.073 C 
BRANCH  24  25
ATOM     25  C   UNL     1       0.536  -3.177   1.299  0.00  0.00    -0.052 C 
ATOM     26  C   UNL     1      -0.139  -2.373   2.412  0.00  0.00    +0.009 C 
ATOM     27  C   UNL     1       1.666  -4.020   1.892  0.00  0.00    +0.009 C 
ATOM     28  C   UNL     1       1.110  -2.219   0.253  0.00  0.00    +0.009 C 
ENDBRANCH  24  25
ENDBRANCH  12  24
TORSDOF 3
