REMARK  Name = ZINC04552446
REMARK  4 active torsions:
REMARK  status: ('A' for Active; 'I' for Inactive)
REMARK    1  A    between atoms: C_9  and  C_14
REMARK    2  A    between atoms: C_10  and  O_13
REMARK    3  A    between atoms: C_14  and  C_15
REMARK    4  A    between atoms: C_15  and  C_16
REMARK                            x       y       z     vdW  Elec       q    Type
REMARK                         _______ _______ _______ _____ _____    ______ ____
ROOT
ATOM      1  C   UNL     1       1.435   7.842   2.322  0.00  0.00    +0.001 A 
ATOM      2  C   UNL     1       0.336   8.519   1.829  0.00  0.00    +0.001 A 
ATOM      3  C   UNL     1      -0.751   7.820   1.327  0.00  0.00    +0.012 A 
ATOM      4  C   UNL     1      -0.734   6.430   1.320  0.00  0.00    +0.036 A 
ATOM      5  C   UNL     1       0.386   5.742   1.821  0.00  0.00    +0.033 A 
ATOM      6  C   UNL     1       1.467   6.456   2.321  0.00  0.00    +0.012 A 
ATOM      7  C   UNL     1       0.396   4.261   1.810  0.00  0.00    +0.193 C 
ATOM      8  O   UNL     1       1.358   3.656   2.241  0.00  0.00    -0.287 OA
ATOM      9  C   UNL     1      -0.755   3.526   1.278  0.00  0.00    +0.045 C 
ATOM     10  C   UNL     1      -1.830   4.179   0.790  0.00  0.00    +0.171 C 
ATOM     11  C   UNL     1      -1.880   5.660   0.790  0.00  0.00    +0.228 C 
ATOM     12  O   UNL     1      -2.854   6.239   0.353  0.00  0.00    -0.283 OA
ENDROOT
BRANCH  10  13
ATOM     13  O   UNL     1      -2.876   3.474   0.300  0.00  0.00    -0.503 OA
ATOM     14  H   UNL     1      -3.584   4.106  -0.018  0.00  0.00    +0.292 HD
ENDBRANCH  10  13
BRANCH   9  15
ATOM     15  C   UNL     1      -0.735   2.019   1.269  0.00  0.00    +0.043 C 
BRANCH  15  16
ATOM     16  C   UNL     1      -0.019   1.526   0.010  0.00  0.00    +0.008 C 
BRANCH  16  17
ATOM     17  C   UNL     1       0.002  -0.004   0.002  0.00  0.00    -0.010 C 
ATOM     18  C   UNL     1      -1.429  -0.533  -0.113  0.00  0.00    +0.004 C 
ATOM     19  C   UNL     1      -2.058  -0.024  -1.412  0.00  0.00    +0.004 C 
ATOM     20  C   UNL     1      -1.235  -0.517  -2.604  0.00  0.00    -0.008 C 
ATOM     21  C   UNL     1      -1.864  -0.008  -3.902  0.00  0.00    +0.004 C 
ATOM     22  C   UNL     1      -1.041  -0.500  -5.095  0.00  0.00    +0.000 C 
ATOM     23  C   UNL     1       0.390   0.029  -4.980  0.00  0.00    +0.000 C 
ATOM     24  C   UNL     1       1.019  -0.480  -3.681  0.00  0.00    +0.004 C 
ATOM     25  C   UNL     1       0.196   0.012  -2.489  0.00  0.00    -0.008 C 
ATOM     26  C   UNL     1       0.825  -0.496  -1.190  0.00  0.00    +0.007 C 
ENDBRANCH  16  17
ENDBRANCH  15  16
ENDBRANCH   9  15
TORSDOF 4
