REMARK  Name = ZINC47173160
REMARK  5 active torsions:
REMARK  status: ('A' for Active; 'I' for Inactive)
REMARK    1  A    between atoms: C_1  and  C_2
REMARK    2  A    between atoms: C_6  and  C_12
REMARK    3  A    between atoms: C_10  and  C_11
REMARK    4  A    between atoms: C_12  and  C_13
REMARK    5  A    between atoms: N_15  and  C_16
REMARK                            x       y       z     vdW  Elec       q    Type
REMARK                         _______ _______ _______ _____ _____    ______ ____
ROOT
ATOM      1  C   UNL     1       1.494  -5.684  -1.026  0.00  0.00    +0.218 C 
ATOM      2  O   UNL     1       2.411  -5.048  -0.548  0.00  0.00    -0.275 OA
ATOM      3  N   UNL     1       1.744  -6.648  -1.933  0.00  0.00    -0.304 N 
ATOM      4  H   UNL     1       1.010  -7.156  -2.315  0.00  0.00    +0.149 HD
ENDROOT
BRANCH   3   5
ATOM      5  C   UNL     1       3.121  -6.929  -2.344  0.00  0.00    +0.159 C 
ATOM      6  C   UNL     1       3.116  -7.750  -3.636  0.00  0.00    +0.032 C 
ATOM      7  C   UNL     1       1.938  -8.707  -3.660  0.00  0.00    +0.004 C 
ATOM      8  C   UNL     1       2.019  -9.804  -2.615  0.00  0.00    +0.019 C 
ATOM      9  C   UNL     1       1.894  -9.225  -1.205  0.00  0.00    +0.104 C 
ATOM     10  N   UNL     1       3.229  -8.810  -0.746  0.00  0.00    -0.314 N 
ATOM     11  C   UNL     1       3.821  -7.729  -1.265  0.00  0.00    +0.233 C 
ATOM     12  O   UNL     1       4.919  -7.391  -0.878  0.00  0.00    -0.274 OA
ATOM     13  H   UNL     1       3.684  -9.323  -0.059  0.00  0.00    +0.149 HD
ENDBRANCH   3   5
BRANCH   1  14
ATOM     14  C   UNL     1       0.077  -5.394  -0.603  0.00  0.00    +0.134 C 
BRANCH  14  20
ATOM     15  C   UNL     1       0.081   1.421   0.400  0.00  0.00    +0.044 C 
ATOM     16  C   UNL     1       0.080  -0.084   0.316  0.00  0.00    -0.044 A 
ATOM     17  C   UNL     1       0.086  -0.702  -0.926  0.00  0.00    +0.004 A 
ATOM     18  C   UNL     1       0.084  -2.066  -1.020  0.00  0.00    +0.012 A 
ATOM     19  C   UNL     1       0.076  -2.839   0.140  0.00  0.00    +0.024 A 
ATOM     20  C   UNL     1       0.073  -4.281   0.413  0.00  0.00    +0.007 A 
ATOM     21  C   UNL     1       0.066  -4.409   1.747  0.00  0.00    +0.200 A 
ATOM     22  O   UNL     1       0.064  -3.197   2.329  0.00  0.00    -0.462 OA
ATOM     23  C   UNL     1       0.070  -2.219   1.401  0.00  0.00    +0.138 A 
ATOM     24  C   UNL     1       0.077  -0.831   1.474  0.00  0.00    -0.005 A 
ATOM     25  C   UNL     1       0.077  -0.146   2.816  0.00  0.00    +0.048 C 
ENDBRANCH  14  20
ENDBRANCH   1  14
TORSDOF 3
