REMARK  Name = ZINC02791637
REMARK  8 active torsions:
REMARK  status: ('A' for Active; 'I' for Inactive)
REMARK    1  A    between atoms: C_1  and  C_2
REMARK    2  A    between atoms: C_4  and  O_32
REMARK    3  A    between atoms: C_5  and  C_29
REMARK    4  A    between atoms: C_7  and  N_8
REMARK    5  A    between atoms: C_9  and  C_11
REMARK    6  A    between atoms: C_20  and  N_23
REMARK    7  A    between atoms: C_29  and  C_30
REMARK    8  A    between atoms: C_29  and  C_31
REMARK                            x       y       z     vdW  Elec       q    Type
REMARK                         _______ _______ _______ _____ _____    ______ ____
ROOT
ATOM      1  N   UNL     1       0.025  -0.011   2.418  0.00  0.00    -0.285 N 
ATOM      2  C   UNL     1      -0.056  -0.689   3.580  0.00  0.00    +0.223 C 
ATOM      3  O   UNL     1      -0.040  -1.902   3.577  0.00  0.00    -0.275 OA
ATOM      4  H   UNL     1       0.079   0.957   2.424  0.00  0.00    +0.155 HD
ENDROOT
BRANCH   2   5
ATOM      5  C   UNL     1      -0.167   0.059   4.883  0.00  0.00    +0.050 C 
ATOM      6  C   UNL     1       1.061   0.955   5.063  0.00  0.00    +0.020 C 
ATOM      7  C   UNL     1       0.948   1.715   6.386  0.00  0.00    -0.007 C 
ATOM      8  C   UNL     1      -0.315   2.578   6.372  0.00  0.00    +0.007 C 
ATOM      9  C   UNL     1      -1.543   1.683   6.192  0.00  0.00    -0.007 C 
ATOM     10  C   UNL     1      -1.430   0.923   4.869  0.00  0.00    +0.020 C 
ATOM     11  C   UNL     1      -1.620   0.684   7.349  0.00  0.00    +0.034 C 
ATOM     12  C   UNL     1      -0.356  -0.179   7.363  0.00  0.00    +0.067 C 
ATOM     13  C   UNL     1       0.871   0.717   7.543  0.00  0.00    +0.034 C 
ATOM     14  C   UNL     1      -0.244  -0.939   6.040  0.00  0.00    +0.046 C 
BRANCH  12  15
ATOM     15  N   UNL     1      -0.430  -1.135   8.470  0.00  0.00    -0.245 N 
ATOM     16  C   UNL     1      -0.261  -0.868   9.777  0.00  0.00    +0.220 A 
ATOM     17  N   UNL     1      -0.406  -1.986  10.442  0.00  0.00    -0.209 NA
ATOM     18  C   UNL     1      -0.667  -2.983   9.597  0.00  0.00    +0.217 A 
ATOM     19  N   UNL     1      -0.698  -2.510   8.379  0.00  0.00    -0.142 NA
ATOM     20 BR   UNL     1      -0.955  -4.788  10.084  0.00  0.00    -0.005 Br
ENDBRANCH  12  15
ENDBRANCH   2   5
BRANCH   1  27
ATOM     21  C   UNL     1      -1.264   1.184   0.182  0.00  0.00    +0.046 C 
ATOM     22  C   UNL     1      -0.584  -0.158   0.085  0.00  0.00    -0.026 A 
ATOM     23  C   UNL     1      -0.571  -0.840  -1.116  0.00  0.00    +0.050 A 
ATOM     24  C   UNL     1       0.055  -2.074  -1.206  0.00  0.00    +0.121 A 
ATOM     25  C   UNL     1       0.668  -2.625  -0.089  0.00  0.00    -0.002 A 
ATOM     26  C   UNL     1       0.655  -1.944   1.111  0.00  0.00    +0.031 A 
ATOM     27  C   UNL     1       0.034  -0.705   1.201  0.00  0.00    +0.037 A 
BRANCH  25  28
ATOM     28  C   UNL     1       1.347  -3.967  -0.188  0.00  0.00    +0.016 C 
ATOM     29  C   UNL     1       2.827  -3.816   0.167  0.00  0.00    +0.012 C 
ATOM     30  C   UNL     1       0.686  -4.945   0.785  0.00  0.00    +0.012 C 
ENDBRANCH  25  28
BRANCH  24  31
ATOM     31  O   UNL     1       0.067  -2.745  -2.388  0.00  0.00    -0.506 OA
ATOM     32  H   UNL     1       0.828  -2.540  -2.949  0.00  0.00    +0.292 HD
ENDBRANCH  24  31
ENDBRANCH   1  27
TORSDOF 5
