REMARK  Name = ZINC35266758
REMARK  11 active torsions:
REMARK  status: ('A' for Active; 'I' for Inactive)
REMARK    1  A    between atoms: C_1  and  C_2
REMARK    2  A    between atoms: C_2  and  C_3
REMARK    3  A    between atoms: C_3  and  C_5
REMARK    4  A    between atoms: C_3  and  C_6
REMARK    5  A    between atoms: C_6  and  C_8
REMARK    6  A    between atoms: C_6  and  N_23
REMARK    7  A    between atoms: C_14  and  C_16
REMARK    8  A    between atoms: C_24  and  C_26
REMARK    9  A    between atoms: C_26  and  C_27
REMARK   10  A    between atoms: C_26  and  C_28
REMARK   11  A    between atoms: C_26  and  C_29
REMARK                            x       y       z     vdW  Elec       q    Type
REMARK                         _______ _______ _______ _____ _____    ______ ____
ROOT
ATOM      1  C   UNL     1       2.559   1.283   1.271  0.00  0.00    +0.239 C 
ATOM      2  O   UNL     1       3.184   1.735   2.207  0.00  0.00    -0.273 OA
ATOM      3  N   UNL     1       2.050   2.111   0.338  0.00  0.00    -0.262 N 
ATOM      4  C   UNL     1       2.332   3.471   0.388  0.00  0.00    +0.188 A 
ATOM      5  N   UNL     1       3.071   4.157   1.250  0.00  0.00    -0.125 NA
ATOM      6  N   UNL     1       3.225   5.405   1.150  0.00  0.00    -0.140 NA
ATOM      7  C   UNL     1       2.657   6.106   0.176  0.00  0.00    +0.134 A 
ATOM      8  S   UNL     1       1.806   4.795  -0.697  0.00  0.00    -0.030 S 
ATOM      9  H   UNL     1       1.488   1.758  -0.369  0.00  0.00    +0.157 HD
ENDROOT
BRANCH   7  10
ATOM     10  C   UNL     1       2.715   7.555  -0.109  0.00  0.00    +0.009 A 
ATOM     11  C   UNL     1       2.024   8.083  -1.201  0.00  0.00    +0.012 A 
ATOM     12  C   UNL     1       2.082   9.436  -1.462  0.00  0.00    +0.020 A 
ATOM     13  C   UNL     1       2.825  10.271  -0.644  0.00  0.00    +0.041 A 
ATOM     14  C   UNL     1       3.513   9.753   0.440  0.00  0.00    +0.020 A 
ATOM     15  C   UNL     1       3.458   8.402   0.715  0.00  0.00    +0.012 A 
ATOM     16 CL   UNL     1       2.893  11.973  -0.980  0.00  0.00    -0.084 Cl
ENDBRANCH   7  10
BRANCH   1  17
ATOM     17  C   UNL     1       2.350  -0.205   1.153  0.00  0.00    +0.162 C 
BRANCH  17  18
ATOM     18  N   UNL     1       3.326  -0.903   1.993  0.00  0.00    -0.303 N 
ATOM     19  C   UNL     1       3.687  -2.168   1.698  0.00  0.00    +0.219 C 
ATOM     20  O   UNL     1       3.203  -2.728   0.738  0.00  0.00    -0.275 OA
ATOM     21  H   UNL     1       3.713  -0.455   2.762  0.00  0.00    +0.149 HD
BRANCH  19  22
ATOM     22  C   UNL     1       4.691  -2.886   2.563  0.00  0.00    +0.039 C 
ATOM     23  C   UNL     1       4.921  -4.296   2.013  0.00  0.00    +0.020 C 
ATOM     24  C   UNL     1       6.012  -2.115   2.558  0.00  0.00    +0.020 C 
ATOM     25  C   UNL     1       4.158  -2.978   3.994  0.00  0.00    +0.020 C 
ENDBRANCH  19  22
ENDBRANCH  17  18
BRANCH  17  26
ATOM     26  C   UNL     1       0.935  -0.560   1.613  0.00  0.00    +0.015 C 
ATOM     27  C   UNL     1       0.804  -0.294   3.114  0.00  0.00    +0.010 C 
BRANCH  26  29
ATOM     28  C   UNL     1       0.649  -2.277  -0.180  0.00  0.00    +0.004 C 
ATOM     29  C   UNL     1       0.663  -2.039   1.332  0.00  0.00    +0.002 C 
ENDBRANCH  26  29
ENDBRANCH  17  26
ENDBRANCH   1  17
TORSDOF 6
