REMARK  Name = ZINC09466783
REMARK  9 active torsions:
REMARK  status: ('A' for Active; 'I' for Inactive)
REMARK    1  A    between atoms: C_1  and  O_2
REMARK    2  A    between atoms: O_2  and  C_3
REMARK    3  A    between atoms: C_8  and  N_9
REMARK    4  A    between atoms: C_10  and  C_27
REMARK    5  A    between atoms: C_13  and  S_14
REMARK    6  A    between atoms: S_14  and  C_15
REMARK    7  A    between atoms: C_15  and  C_16
REMARK    8  A    between atoms: N_18  and  C_19
REMARK    9  A    between atoms: C_20  and  C_24
REMARK                            x       y       z     vdW  Elec       q    Type
REMARK                         _______ _______ _______ _____ _____    ______ ____
ROOT
ATOM      1  N   UNL     1      -2.430   1.037   0.019  0.00  0.00    -0.266 N 
ATOM      2  C   UNL     1      -3.142   0.605   1.118  0.00  0.00    +0.176 A 
ATOM      3  N   UNL     1      -4.205  -0.021   0.665  0.00  0.00    -0.127 NA
ATOM      4  N   UNL     1      -4.207  -0.012  -0.620  0.00  0.00    -0.122 NA
ATOM      5  C   UNL     1      -3.150   0.625  -1.070  0.00  0.00    +0.197 A 
ENDROOT
BRANCH   1  11
ATOM      6  C   UNL     1      -1.238   3.146   0.031  0.00  0.00    +0.144 A 
ATOM      7  C   UNL     1      -0.043   3.848   0.023  0.00  0.00    +0.048 A 
ATOM      8  C   UNL     1       1.160   3.166   0.008  0.00  0.00    +0.004 A 
ATOM      9  C   UNL     1       1.175   1.783   0.000  0.00  0.00    +0.002 A 
ATOM     10  C   UNL     1      -0.013   1.076   0.008  0.00  0.00    +0.030 A 
ATOM     11  C   UNL     1      -1.223   1.753   0.017  0.00  0.00    +0.092 A 
BRANCH   6  13
ATOM     12  C   UNL     1      -2.359   5.242   0.054  0.00  0.00    +0.277 C 
ATOM     13  O   UNL     1      -2.421   3.815   0.047  0.00  0.00    -0.493 OA
ENDBRANCH   6  13
ENDBRANCH   1  11
BRANCH   2  14
ATOM     14  C   UNL     1      -2.780   0.808   2.530  0.00  0.00    +0.057 A 
ATOM     15  C   UNL     1      -3.558   0.664   3.651  0.00  0.00    +0.019 A 
ATOM     16  C   UNL     1      -2.993   0.907   4.883  0.00  0.00    +0.008 A 
ATOM     17  C   UNL     1      -1.693   1.291   4.951  0.00  0.00    +0.046 A 
ATOM     18  S   UNL     1      -1.217   1.312   3.230  0.00  0.00    -0.094 S 
ENDBRANCH   2  14
BRANCH   5  19
ATOM     19  S   UNL     1      -2.735   0.897  -2.761  0.00  0.00    -0.076 S 
BRANCH  19  20
ATOM     20  C   UNL     1      -4.135   0.078  -3.564  0.00  0.00    +0.173 C 
BRANCH  20  21
ATOM     21  C   UNL     1      -3.990   0.186  -5.060  0.00  0.00    +0.228 C 
ATOM     22  O   UNL     1      -3.034   0.761  -5.536  0.00  0.00    -0.275 OA
ATOM     23  N   UNL     1      -4.923  -0.355  -5.868  0.00  0.00    -0.279 N 
ATOM     24  H   UNL     1      -5.687  -0.815  -5.487  0.00  0.00    +0.155 HD
BRANCH  23  25
ATOM     25  C   UNL     1      -4.789  -0.256  -7.245  0.00  0.00    +0.084 A 
ATOM     26  C   UNL     1      -5.634  -0.749  -8.232  0.00  0.00    +0.065 A 
ATOM     27  C   UNL     1      -5.251  -0.495  -9.601  0.00  0.00    +0.022 A 
ATOM     28  C   UNL     1      -4.108   0.186  -9.802  0.00  0.00    +0.048 A 
ATOM     29  S   UNL     1      -3.526   0.507  -8.150  0.00  0.00    -0.081 S 
BRANCH  26  30
ATOM     30  C   UNL     1      -6.856  -1.488  -7.900  0.00  0.00    +0.244 C 
ATOM     31  O   UNL     1      -7.152  -1.682  -6.736  0.00  0.00    -0.270 OA
ATOM     32  N   UNL     1      -7.652  -1.952  -8.884  0.00  0.00    -0.325 N 
ATOM     33  H   UNL     1      -7.415  -1.797  -9.812  0.00  0.00    +0.145 HD
ATOM     34  H   UNL     1      -8.460  -2.441  -8.664  0.00  0.00    +0.145 HD
ENDBRANCH  26  30
ENDBRANCH  23  25
ENDBRANCH  20  21
ENDBRANCH  19  20
ENDBRANCH   5  19
TORSDOF 8
