REMARK  Name = ZINC14543301
REMARK  9 active torsions:
REMARK  status: ('A' for Active; 'I' for Inactive)
REMARK    1  A    between atoms: C_1  and  C_2
REMARK    2  A    between atoms: C_2  and  O_3
REMARK    3  A    between atoms: O_3  and  C_4
REMARK    4  A    between atoms: C_7  and  C_10
REMARK    5  A    between atoms: C_21  and  S_26
REMARK    6  A    between atoms: S_26  and  N_29
REMARK    7  A    between atoms: N_29  and  C_30
REMARK    8  A    between atoms: C_31  and  C_37
REMARK    9  A    between atoms: C_35  and  C_36
REMARK                            x       y       z     vdW  Elec       q    Type
REMARK                         _______ _______ _______ _____ _____    ______ ____
ROOT
ATOM      1  C   UNL     1       0.503   1.791  -3.546  0.00  0.00    +0.105 C 
ATOM      2  C   UNL     1      -0.449   1.845  -2.380  0.00  0.00    +0.029 C 
ATOM      3  C   UNL     1      -0.849   3.308  -2.075  0.00  0.00    +0.033 C 
ATOM      4  C   UNL     1      -1.170   3.269  -0.591  0.00  0.00    -0.030 C 
ATOM      5  C   UNL     1      -0.568   2.246  -0.011  0.00  0.00    -0.023 C 
ATOM      6  C   UNL     1       0.218   1.456  -1.048  0.00  0.00    +0.049 C 
ATOM      7  C   UNL     1       1.651   1.911  -0.971  0.00  0.00    -0.018 A 
ATOM      8  C   UNL     1       2.320   1.757   0.236  0.00  0.00    +0.034 A 
ATOM      9  C   UNL     1       3.633   2.160   0.365  0.00  0.00    +0.109 A 
ATOM     10  C   UNL     1       4.298   2.724  -0.709  0.00  0.00    +0.030 A 
ATOM     11  C   UNL     1       3.643   2.881  -1.914  0.00  0.00    +0.025 A 
ATOM     12  C   UNL     1       2.320   2.472  -2.043  0.00  0.00    +0.031 A 
ATOM     13  N   UNL     1       1.675   2.631  -3.275  0.00  0.00    -0.336 N 
ATOM     14  H   UNL     1       1.993   3.275  -3.928  0.00  0.00    +0.147 HD
ENDROOT
BRANCH   1  18
ATOM     15  C   UNL     1       1.754  -2.254  -4.123  0.00  0.00    +0.121 A 
ATOM     16  C   UNL     1       0.756  -1.715  -4.922  0.00  0.00    +0.046 A 
ATOM     17  C   UNL     1       0.354  -0.407  -4.734  0.00  0.00    +0.009 A 
ATOM     18  C   UNL     1       0.944   0.365  -3.750  0.00  0.00    -0.027 A 
ATOM     19  C   UNL     1       1.942  -0.169  -2.956  0.00  0.00    +0.009 A 
ATOM     20  C   UNL     1       2.344  -1.478  -3.136  0.00  0.00    +0.046 A 
BRANCH  15  21
ATOM     21  O   UNL     1       2.152  -3.541  -4.307  0.00  0.00    -0.492 OA
BRANCH  21  23
ATOM     22  C   UNL     1       3.496  -5.485  -3.802  0.00  0.00    +0.048 C 
ATOM     23  C   UNL     1       3.184  -4.029  -3.447  0.00  0.00    +0.225 C 
ENDBRANCH  21  23
ENDBRANCH  15  21
ENDBRANCH   1  18
BRANCH   9  24
ATOM     24  S   UNL     1       4.467   1.957   1.904  0.00  0.00    +0.072 S 
ATOM     25  O   UNL     1       5.569   2.853   1.891  0.00  0.00    -0.150 OA
ATOM     26  O   UNL     1       3.468   1.992   2.914  0.00  0.00    -0.150 OA
BRANCH  24  27
ATOM     27  N   UNL     1       5.101   0.427   1.919  0.00  0.00    -0.216 N 
ATOM     28  H   UNL     1       4.754  -0.236   2.536  0.00  0.00    +0.174 HD
BRANCH  27  29
ATOM     29  C   UNL     1       6.135   0.091   1.042  0.00  0.00    +0.054 A 
ATOM     30  C   UNL     1       5.874  -0.689  -0.077  0.00  0.00    -0.028 A 
ATOM     31  C   UNL     1       6.898  -1.015  -0.944  0.00  0.00    +0.005 A 
ATOM     32  C   UNL     1       8.185  -0.575  -0.694  0.00  0.00    +0.001 A 
ATOM     33  C   UNL     1       8.449   0.198   0.422  0.00  0.00    +0.005 A 
ATOM     34  C   UNL     1       7.429   0.532   1.291  0.00  0.00    -0.028 A 
ATOM     35  C   UNL     1       7.718   1.375   2.506  0.00  0.00    +0.046 C 
ATOM     36  C   UNL     1       4.473  -1.175  -0.347  0.00  0.00    +0.046 C 
ENDBRANCH  27  29
ENDBRANCH  24  27
ENDBRANCH   9  24
TORSDOF 6
