REMARK  Name = ZINC01410540
REMARK  4 active torsions:
REMARK  status: ('A' for Active; 'I' for Inactive)
REMARK    1  A    between atoms: C_3  and  C_6
REMARK    2  A    between atoms: C_9  and  C_33
REMARK    3  A    between atoms: C_14  and  C_16
REMARK    4  A    between atoms: N_21  and  C_24
REMARK                            x       y       z     vdW  Elec       q    Type
REMARK                         _______ _______ _______ _____ _____    ______ ____
ROOT
ATOM      1  C   UNL     1       2.289   4.185   0.034  0.00  0.00    +0.111 C 
ATOM      2  C   UNL     1       2.539   4.736   1.441  0.00  0.00    +0.063 C 
ATOM      3  C   UNL     1       1.209   5.237   2.023  0.00  0.00    +0.215 C 
ATOM      4  N   UNL     1       0.548   6.051   0.995  0.00  0.00    -0.237 N 
ATOM      5  C   UNL     1       0.899   6.053  -0.322  0.00  0.00    +0.133 A 
ATOM      6  C   UNL     1       0.080   6.918  -0.966  0.00  0.00    +0.089 A 
ATOM      7  C   UNL     1      -0.805   7.465  -0.011  0.00  0.00    +0.163 A 
ATOM      8  N   UNL     1      -0.516   6.938   1.166  0.00  0.00    -0.163 NA
ATOM      9 BR   UNL     1       0.114   7.321  -2.813  0.00  0.00    -0.044 Br
ATOM     10  N   UNL     1       1.925   5.286  -0.871  0.00  0.00    -0.321 N 
ATOM     11  H   UNL     1       2.728   5.858  -1.086  0.00  0.00    +0.148 HD
ENDROOT
BRANCH   7  12
ATOM     12  C   UNL     1      -1.868   8.454  -0.280  0.00  0.00    +0.268 C 
ATOM     13  O   UNL     1      -1.972   8.949  -1.385  0.00  0.00    -0.268 OA
ATOM     14  N   UNL     1      -2.724   8.806   0.700  0.00  0.00    -0.293 N 
ATOM     15  C   UNL     1      -3.840   9.726   0.432  0.00  0.00    +0.127 C 
ATOM     16  C   UNL     1      -5.133   9.079   0.955  0.00  0.00    +0.124 C 
ATOM     17  N   UNL     1      -4.955   8.714   2.366  0.00  0.00    -0.327 N 
ATOM     18  C   UNL     1      -3.902   7.702   2.526  0.00  0.00    +0.124 C 
ATOM     19  C   UNL     1      -2.562   8.287   2.067  0.00  0.00    +0.127 C 
BRANCH  17  20
ATOM     20  C   UNL     1      -6.160   8.276   2.926  0.00  0.00    +0.030 A 
ATOM     21  C   UNL     1      -6.234   7.025   3.524  0.00  0.00    +0.026 A 
ATOM     22  C   UNL     1      -7.424   6.596   4.080  0.00  0.00    +0.040 A 
ATOM     23  C   UNL     1      -8.544   7.409   4.033  0.00  0.00    +0.124 A 
ATOM     24  C   UNL     1      -8.473   8.655   3.433  0.00  0.00    +0.040 A 
ATOM     25  C   UNL     1      -7.284   9.089   2.880  0.00  0.00    +0.026 A 
ATOM     26  F   UNL     1      -9.707   6.986   4.573  0.00  0.00    -0.205 F 
ENDBRANCH  17  20
ENDBRANCH   7  12
BRANCH   1  29
ATOM     27  C   UNL     1       0.057   1.100   0.143  0.00  0.00    +0.008 A 
ATOM     28  C   UNL     1       1.232   1.827   0.101  0.00  0.00    +0.013 A 
ATOM     29  C   UNL     1       1.166   3.181   0.080  0.00  0.00    +0.010 A 
ATOM     30  S   UNL     1      -0.596   3.466   0.119  0.00  0.00    -0.100 S 
ATOM     31  C   UNL     1      -1.126   1.762   0.156  0.00  0.00    +0.045 A 
ENDBRANCH   1  29
BRANCH   3  32
ATOM     32  C   UNL     1       1.475   6.088   3.266  0.00  0.00    +0.412 C 
ATOM     33  F   UNL     1       2.270   7.185   2.919  0.00  0.00    -0.168 F 
ATOM     34  F   UNL     1       0.259   6.541   3.791  0.00  0.00    -0.168 F 
ATOM     35  F   UNL     1       2.139   5.316   4.226  0.00  0.00    -0.168 F 
ENDBRANCH   3  32
TORSDOF 4
