REMARK  Name = ZINC09475204
REMARK  13 active torsions:
REMARK  status: ('A' for Active; 'I' for Inactive)
REMARK    1  A    between atoms: C_1  and  C_2
REMARK    2  A    between atoms: C_2  and  O_3
REMARK    3  A    between atoms: O_3  and  C_4
REMARK    4  A    between atoms: C_4  and  C_6
REMARK    5  A    between atoms: C_10  and  N_11
REMARK    6  A    between atoms: C_12  and  C_14
REMARK    7  A    between atoms: C_14  and  C_16
REMARK    8  A    between atoms: C_14  and  S_17
REMARK    9  A    between atoms: S_17  and  C_18
REMARK   10  A    between atoms: C_21  and  C_24
REMARK   11  A    between atoms: N_22  and  C_23
REMARK   12  A    between atoms: C_24  and  N_25
REMARK   13  A    between atoms: C_26  and  C_28
REMARK                            x       y       z     vdW  Elec       q    Type
REMARK                         _______ _______ _______ _____ _____    ______ ____
ROOT
ATOM      1  C   UNL     1      -3.204   2.967  -5.102  0.00  0.00    +0.137 C 
ATOM      2  C   UNL     1      -3.583   4.184  -4.256  0.00  0.00    +0.029 C 
ENDROOT
BRANCH   1   4
ATOM      3  N   UNL     1      -3.852   3.577  -7.410  0.00  0.00    -0.278 N 
ATOM      4  C   UNL     1      -4.125   2.876  -6.292  0.00  0.00    +0.231 C 
ATOM      5  O   UNL     1      -5.112   2.172  -6.242  0.00  0.00    -0.274 OA
ATOM      6  H   UNL     1      -3.063   4.139  -7.450  0.00  0.00    +0.155 HD
BRANCH   3  11
ATOM      7  C   UNL     1      -4.592   4.135  -9.727  0.00  0.00    +0.091 A 
ATOM      8  C   UNL     1      -5.629   3.868 -10.724  0.00  0.00    -0.021 A 
ATOM      9  C   UNL     1      -6.596   3.020 -10.331  0.00  0.00    -0.004 A 
ATOM     10  S   UNL     1      -6.152   2.567  -8.671  0.00  0.00    -0.077 S 
ATOM     11  C   UNL     1      -4.699   3.493  -8.504  0.00  0.00    +0.086 A 
ATOM     12  C   UNL     1      -7.624   2.799 -11.406  0.00  0.00    +0.043 C 
ATOM     13  C   UNL     1      -6.945   3.293 -12.702  0.00  0.00    +0.010 C 
ATOM     14  C   UNL     1      -5.931   4.317 -12.155  0.00  0.00    +0.037 C 
BRANCH   7  15
ATOM     15  C   UNL     1      -3.479   5.043 -10.013  0.00  0.00    +0.342 C 
ATOM     16  O   UNL     1      -2.454   4.612 -10.506  0.00  0.00    -0.245 OA
BRANCH  15  17
ATOM     17  O   UNL     1      -3.591   6.357  -9.729  0.00  0.00    -0.461 OA
BRANCH  17  19
ATOM     18  C   UNL     1      -2.760   8.644  -9.650  0.00  0.00    +0.048 C 
ATOM     19  C   UNL     1      -2.449   7.198 -10.039  0.00  0.00    +0.229 C 
ENDBRANCH  17  19
ENDBRANCH  15  17
ENDBRANCH   7  15
ENDBRANCH   3  11
ENDBRANCH   1   4
BRANCH   1  20
ATOM     20  S   UNL     1      -3.359   1.466  -4.103  0.00  0.00    -0.074 S 
BRANCH  20  21
ATOM     21  C   UNL     1      -2.102   1.765  -2.905  0.00  0.00    +0.192 A 
ATOM     22  N   UNL     1      -1.321   2.817  -2.839  0.00  0.00    -0.122 NA
ATOM     23  N   UNL     1      -0.520   2.706  -1.840  0.00  0.00    -0.132 NA
ATOM     24  C   UNL     1      -0.742   1.585  -1.213  0.00  0.00    +0.151 A 
ATOM     25  N   UNL     1      -1.754   0.943  -1.872  0.00  0.00    -0.308 N 
ATOM     26  C   UNL     1      -2.343  -0.356  -1.536  0.00  0.00    +0.152 C 
BRANCH  24  27
ATOM     27  C   UNL     1      -0.013   1.086   0.008  0.00  0.00    +0.181 C 
BRANCH  27  28
ATOM     28  N   UNL     1      -0.698   1.558   1.213  0.00  0.00    -0.302 N 
ATOM     29  C   UNL     1      -0.222   1.232   2.431  0.00  0.00    +0.280 C 
ATOM     30  O   UNL     1       0.778   0.546   2.530  0.00  0.00    -0.267 OA
ATOM     31  H   UNL     1      -1.495   2.106   1.135  0.00  0.00    +0.150 HD
BRANCH  29  32
ATOM     32  C   UNL     1      -0.908   1.705   3.638  0.00  0.00    +0.189 A 
ATOM     33  C   UNL     1      -0.534   1.450   4.926  0.00  0.00    +0.054 A 
ATOM     34  C   UNL     1      -1.469   2.093   5.753  0.00  0.00    +0.042 A 
ATOM     35  C   UNL     1      -2.361   2.705   4.943  0.00  0.00    +0.196 A 
ATOM     36  O   UNL     1      -2.017   2.474   3.670  0.00  0.00    -0.458 OA
ENDBRANCH  29  32
ENDBRANCH  27  28
ENDBRANCH  24  27
ENDBRANCH  20  21
ENDBRANCH   1  20
TORSDOF 10
