REMARK  Name = ZINC40340423
REMARK  10 active torsions:
REMARK  status: ('A' for Active; 'I' for Inactive)
REMARK    1  A    between atoms: C_1  and  C_2
REMARK    2  A    between atoms: C_5  and  C_8
REMARK    3  A    between atoms: N_16  and  C_30
REMARK    4  A    between atoms: C_17  and  C_19
REMARK    5  A    between atoms: C_21  and  O_28
REMARK    6  A    between atoms: C_22  and  O_27
REMARK    7  A    between atoms: C_23  and  O_25
REMARK    8  A    between atoms: O_25  and  C_26
REMARK    9  A    between atoms: O_28  and  C_29
REMARK   10  A    between atoms: C_30  and  C_31
REMARK                            x       y       z     vdW  Elec       q    Type
REMARK                         _______ _______ _______ _____ _____    ______ ____
ROOT
ATOM      1  C   UNL     1       0.059  -4.256  -0.021  0.00  0.00    +0.099 A 
ATOM      2  C   UNL     1       0.717  -5.081   0.898  0.00  0.00    +0.035 A 
ATOM      3  C   UNL     1       0.457  -6.377   0.495  0.00  0.00    +0.126 A 
ATOM      4  N   UNL     1      -0.326  -6.277  -0.621  0.00  0.00    -0.272 N 
ATOM      5  H   UNL     1      -0.669  -7.029  -1.129  0.00  0.00    +0.189 HD
ATOM      6  N   UNL     1      -0.545  -5.040  -0.893  0.00  0.00    -0.173 NA
ATOM      7  C   UNL     1       1.122  -7.297   1.423  0.00  0.00    +0.266 C 
ATOM      8  O   UNL     1       1.088  -8.510   1.343  0.00  0.00    -0.268 OA
ATOM      9  N   UNL     1       1.777  -6.609   2.376  0.00  0.00    -0.283 N 
ATOM     10  C   UNL     1       1.579  -5.175   2.127  0.00  0.00    +0.142 C 
ENDROOT
BRANCH   1  15
ATOM     11  C   UNL     1      -0.018   1.503   0.010  0.00  0.00    +0.044 C 
ATOM     12  C   UNL     1       0.002  -0.004   0.002  0.00  0.00    -0.050 A 
ATOM     13  C   UNL     1       0.006  -0.687  -1.201  0.00  0.00    +0.004 A 
ATOM     14  C   UNL     1       0.024  -2.067  -1.214  0.00  0.00    +0.010 A 
ATOM     15  C   UNL     1       0.040  -2.772  -0.013  0.00  0.00    +0.002 A 
ATOM     16  C   UNL     1       0.036  -2.080   1.196  0.00  0.00    +0.010 A 
ATOM     17  C   UNL     1       0.023  -0.700   1.198  0.00  0.00    +0.004 A 
ENDBRANCH   1  15
BRANCH  10  18
ATOM     18  C   UNL     1       0.880  -4.537   3.300  0.00  0.00    -0.015 A 
ATOM     19  C   UNL     1      -0.114  -5.225   3.968  0.00  0.00    +0.055 A 
ATOM     20  C   UNL     1      -0.760  -4.641   5.048  0.00  0.00    +0.165 A 
ATOM     21  C   UNL     1      -0.405  -3.362   5.458  0.00  0.00    +0.201 A 
ATOM     22  C   UNL     1       0.596  -2.673   4.784  0.00  0.00    +0.165 A 
ATOM     23  C   UNL     1       1.240  -3.266   3.708  0.00  0.00    +0.055 A 
BRANCH  22  24
ATOM     24  O   UNL     1       0.947  -1.420   5.181  0.00  0.00    -0.491 OA
ATOM     25  C   UNL     1       1.984  -0.772   4.442  0.00  0.00    +0.277 C 
ENDBRANCH  22  24
BRANCH  21  26
ATOM     26  O   UNL     1      -1.036  -2.785   6.517  0.00  0.00    -0.501 OA
ATOM     27  H   UNL     1      -0.615  -2.961   7.369  0.00  0.00    +0.292 HD
ENDBRANCH  21  26
BRANCH  20  28
ATOM     28  O   UNL     1      -1.739  -5.320   5.704  0.00  0.00    -0.491 OA
ATOM     29  C   UNL     1      -2.052  -6.630   5.227  0.00  0.00    +0.277 C 
ENDBRANCH  20  28
ENDBRANCH  10  18
BRANCH   9  30
ATOM     30  C   UNL     1       2.554  -7.189   3.474  0.00  0.00    +0.140 C 
BRANCH  30  31
ATOM     31  C   UNL     1       4.007  -7.372   3.029  0.00  0.00    +0.136 C 
ATOM     32  C   UNL     1       4.840  -8.018   4.165  0.00  0.00    +0.035 C 
ATOM     33  C   UNL     1       5.984  -8.681   3.351  0.00  0.00    +0.031 C 
ATOM     34  C   UNL     1       5.262  -9.102   2.053  0.00  0.00    +0.160 C 
ATOM     35  O   UNL     1       4.081  -8.298   1.934  0.00  0.00    -0.375 OA
ENDBRANCH  30  31
ENDBRANCH   9  30
TORSDOF 7
