REMARK  Name = ZINC44452633
REMARK  5 active torsions:
REMARK  status: ('A' for Active; 'I' for Inactive)
REMARK    1  A    between atoms: C_4  and  C_7
REMARK    2  A    between atoms: C_7  and  C_8
REMARK    3  A    between atoms: C_7  and  C_14
REMARK    4  A    between atoms: N_16  and  C_17
REMARK    5  A    between atoms: C_18  and  C_25
REMARK                            x       y       z     vdW  Elec       q    Type
REMARK                         _______ _______ _______ _____ _____    ______ ____
ROOT
ATOM      1  C   UNL     1       3.652  -1.665  -1.200  0.00  0.00    +0.229 C 
ATOM      2  O   UNL     1       2.672  -1.691  -1.914  0.00  0.00    -0.274 OA
ATOM      3  N   UNL     1       4.687  -2.491  -1.446  0.00  0.00    -0.279 N 
ATOM      4  H   UNL     1       5.471  -2.470  -0.874  0.00  0.00    +0.155 HD
ENDROOT
BRANCH   3   5
ATOM      5  C   UNL     1       4.633  -3.372  -2.515  0.00  0.00    +0.084 A 
ATOM      6  C   UNL     1       5.590  -4.289  -2.911  0.00  0.00    +0.069 A 
ATOM      7  C   UNL     1       5.286  -5.108  -4.084  0.00  0.00    -0.023 A 
ATOM      8  C   UNL     1       4.087  -4.853  -4.636  0.00  0.00    -0.004 A 
ATOM      9  S   UNL     1       3.388  -3.576  -3.620  0.00  0.00    -0.077 S 
ATOM     10  C   UNL     1       3.827  -5.719  -5.839  0.00  0.00    +0.043 C 
ATOM     11  C   UNL     1       5.217  -6.266  -6.233  0.00  0.00    +0.010 C 
ATOM     12  C   UNL     1       5.969  -6.213  -4.888  0.00  0.00    +0.037 C 
BRANCH   6  13
ATOM     13  C   UNL     1       6.855  -4.433  -2.187  0.00  0.00    +0.254 C 
ATOM     14  O   UNL     1       6.941  -5.221  -1.264  0.00  0.00    -0.270 OA
ATOM     15  N   UNL     1       7.923  -3.693  -2.542  0.00  0.00    -0.236 N 
ATOM     16  C   UNL     1       9.087  -3.825  -1.876  0.00  0.00    +0.304 C 
ATOM     17  O   UNL     1       9.173  -4.613  -0.954  0.00  0.00    -0.253 OA
ATOM     18  N   UNL     1      10.155  -3.085  -2.232  0.00  0.00    -0.313 N 
ATOM     19  H   UNL     1       7.854  -3.065  -3.278  0.00  0.00    +0.159 HD
ATOM     20  H   UNL     1      10.087  -2.457  -2.968  0.00  0.00    +0.146 HD
ATOM     21  H   UNL     1      10.993  -3.180  -1.752  0.00  0.00    +0.146 HD
ENDBRANCH   6  13
ENDBRANCH   3   5
BRANCH   1  22
ATOM     22  C   UNL     1       3.711  -0.707  -0.038  0.00  0.00    +0.135 C 
BRANCH  22  26
ATOM     23  C   UNL     1       0.102   1.573   0.113  0.00  0.00    +0.000 A 
ATOM     24  C   UNL     1       1.325   2.216   0.082  0.00  0.00    +0.000 A 
ATOM     25  C   UNL     1       2.493   1.478   0.034  0.00  0.00    +0.005 A 
ATOM     26  C   UNL     1       2.438   0.097   0.016  0.00  0.00    -0.031 A 
ATOM     27  C   UNL     1       1.215  -0.546   0.048  0.00  0.00    +0.005 A 
ATOM     28  C   UNL     1       0.047   0.192   0.095  0.00  0.00    +0.000 A 
ENDBRANCH  22  26
BRANCH  22  29
ATOM     29  C   UNL     1       3.870  -1.483   1.245  0.00  0.00    -0.031 A 
ATOM     30  C   UNL     1       3.012  -2.528   1.531  0.00  0.00    +0.005 A 
ATOM     31  C   UNL     1       3.158  -3.240   2.707  0.00  0.00    +0.000 A 
ATOM     32  C   UNL     1       4.161  -2.906   3.597  0.00  0.00    +0.000 A 
ATOM     33  C   UNL     1       5.020  -1.861   3.310  0.00  0.00    +0.000 A 
ATOM     34  C   UNL     1       4.877  -1.153   2.132  0.00  0.00    +0.005 A 
ENDBRANCH  22  29
ENDBRANCH   1  22
TORSDOF 5
