REMARK  Name = ZINC33637029
REMARK  10 active torsions:
REMARK  status: ('A' for Active; 'I' for Inactive)
REMARK    1  A    between atoms: C_1  and  C_2
REMARK    2  A    between atoms: C_2  and  C_3
REMARK    3  A    between atoms: C_2  and  C_4
REMARK    4  A    between atoms: C_4  and  N_5
REMARK    5  A    between atoms: N_5  and  C_6
REMARK    6  A    between atoms: C_6  and  C_7
REMARK    7  A    between atoms: C_12  and  C_15
REMARK    8  A    between atoms: C_15  and  C_16
REMARK    9  A    between atoms: N_18  and  C_19
REMARK   10  A    between atoms: C_28  and  C_30
REMARK                            x       y       z     vdW  Elec       q    Type
REMARK                         _______ _______ _______ _____ _____    ______ ____
ROOT
ATOM      1  C   UNL     1      -6.053   1.516  -3.962  0.00  0.00    +0.236 C 
ATOM      2  O   UNL     1      -4.976   1.506  -4.519  0.00  0.00    -0.274 OA
ATOM      3  N   UNL     1      -6.217   0.853  -2.800  0.00  0.00    -0.263 N 
ATOM      4  C   UNL     1      -5.151   0.158  -2.240  0.00  0.00    +0.165 A 
ATOM      5  N   UNL     1      -5.115  -0.548  -1.127  0.00  0.00    -0.229 NA
ATOM      6  C   UNL     1      -4.009  -1.147  -0.733  0.00  0.00    +0.059 A 
ATOM      7  C   UNL     1      -2.902  -1.033  -1.507  0.00  0.00    +0.072 A 
ATOM      8  S   UNL     1      -3.527  -0.011  -2.832  0.00  0.00    -0.060 S 
ATOM      9  H   UNL     1      -7.194   0.862  -2.295  0.00  0.00    +0.157 HD
ENDROOT
BRANCH   1  10
ATOM     10  C   UNL     1      -7.208   2.270  -4.569  0.00  0.00    +0.204 C 
BRANCH  10  11
ATOM     11  N   UNL     1      -6.777   2.900  -5.819  0.00  0.00    -0.288 N 
ATOM     12  C   UNL     1      -6.571   4.231  -5.866  0.00  0.00    +0.247 C 
ATOM     13  O   UNL     1      -6.270   4.763  -6.918  0.00  0.00    -0.270 OA
BRANCH  12  14
ATOM     14  C   UNL     1      -6.710   5.044  -4.641  0.00  0.00    +0.037 A 
ATOM     15  C   UNL     1      -6.476   4.471  -3.389  0.00  0.00    +0.016 A 
ATOM     16  C   UNL     1      -6.601   5.236  -2.249  0.00  0.00    +0.039 A 
ATOM     17  C   UNL     1      -6.971   6.569  -2.343  0.00  0.00    +0.123 A 
ATOM     18  C   UNL     1      -7.211   7.142  -3.583  0.00  0.00    +0.039 A 
ATOM     19  C   UNL     1      -7.082   6.387  -4.730  0.00  0.00    +0.016 A 
ATOM     20  F   UNL     1      -7.099   7.313  -1.223  0.00  0.00    -0.205 F 
ENDBRANCH  12  14
BRANCH  11  21
ATOM     21  C   UNL     1      -6.571   2.084  -7.018  0.00  0.00    +0.111 C 
BRANCH  21  23
ATOM     22  C   UNL     1      -7.571   1.377  -9.195  0.00  0.00    +0.009 C 
ATOM     23  C   UNL     1      -7.830   2.126  -7.886  0.00  0.00    +0.000 C 
ATOM     24  C   UNL     1      -8.988   1.462  -7.139  0.00  0.00    +0.009 C 
ENDBRANCH  21  23
ENDBRANCH  11  21
ENDBRANCH  10  11
ENDBRANCH   1  10
BRANCH   6  25
ATOM     25  C   UNL     1      -3.977  -1.946   0.545  0.00  0.00    +0.151 C 
BRANCH  25  26
ATOM     26  C   UNL     1      -4.438  -1.080   1.689  0.00  0.00    +0.219 C 
ATOM     27  O   UNL     1      -4.761   0.071   1.487  0.00  0.00    -0.275 OA
ATOM     28  N   UNL     1      -4.492  -1.586   2.937  0.00  0.00    -0.304 N 
ATOM     29  H   UNL     1      -4.200  -2.631   3.120  0.00  0.00    +0.149 HD
BRANCH  28  30
ATOM     30  C   UNL     1      -4.941  -0.745   4.050  0.00  0.00    +0.159 C 
ATOM     31  C   UNL     1      -5.350  -1.629   5.231  0.00  0.00    +0.032 C 
ATOM     32  C   UNL     1      -4.468  -2.862   5.310  0.00  0.00    +0.004 C 
ATOM     33  C   UNL     1      -3.021  -2.559   5.656  0.00  0.00    +0.019 C 
ATOM     34  C   UNL     1      -2.340  -1.787   4.525  0.00  0.00    +0.104 C 
ATOM     35  N   UNL     1      -2.594  -0.350   4.716  0.00  0.00    -0.314 N 
ATOM     36  C   UNL     1      -3.810   0.160   4.491  0.00  0.00    +0.233 C 
ATOM     37  O   UNL     1      -4.010   1.346   4.646  0.00  0.00    -0.274 OA
ATOM     38  H   UNL     1      -1.781   0.313   5.046  0.00  0.00    +0.149 HD
ENDBRANCH  28  30
ENDBRANCH  25  26
ENDBRANCH   6  25
TORSDOF 8
