REMARK  Name = ZINC36313702
REMARK  18 active torsions:
REMARK  status: ('A' for Active; 'I' for Inactive)
REMARK    1  A    between atoms: C_1  and  C_2
REMARK    2  A    between atoms: C_2  and  C_3
REMARK    3  A    between atoms: C_3  and  C_4
REMARK    4  A    between atoms: C_4  and  O_5
REMARK    5  A    between atoms: O_5  and  C_6
REMARK    6  A    between atoms: C_6  and  C_7
REMARK    7  A    between atoms: C_7  and  C_9
REMARK    8  A    between atoms: C_7  and  O_40
REMARK    9  A    between atoms: C_9  and  N_10
REMARK   10  A    between atoms: N_10  and  C_11
REMARK   11  A    between atoms: N_10  and  C_33
REMARK   12  A    between atoms: C_11  and  C_12
REMARK   13  A    between atoms: C_13  and  C_31
REMARK   14  A    between atoms: N_15  and  C_25
REMARK   15  A    between atoms: C_16  and  O_17
REMARK   16  A    between atoms: O_17  and  C_18
REMARK   17  A    between atoms: C_31  and  C_32
REMARK   18  A    between atoms: C_33  and  C_34
REMARK                            x       y       z     vdW  Elec       q    Type
REMARK                         _______ _______ _______ _____ _____    ______ ____
ROOT
ATOM      1  C   UNL     1       3.821  -7.517  -6.616  0.00  0.00    +0.021 A 
ATOM      2  C   UNL     1       5.110  -8.036  -6.463  0.00  0.00    +0.068 A 
ATOM      3  N   UNL     1       5.550  -8.405  -7.638  0.00  0.00    -0.168 NA
ATOM      4  N   UNL     1       4.556  -8.134  -8.588  0.00  0.00    -0.200 N 
ATOM      5  C   UNL     1       3.494  -7.591  -7.934  0.00  0.00    +0.225 A 
ENDROOT
BRANCH   4   6
ATOM      6  C   UNL     1       4.639  -8.383  -9.964  0.00  0.00    +0.069 A 
ATOM      7  C   UNL     1       3.525  -8.838 -10.657  0.00  0.00    +0.028 A 
ATOM      8  C   UNL     1       3.610  -9.082 -12.014  0.00  0.00    +0.002 A 
ATOM      9  C   UNL     1       4.803  -8.874 -12.682  0.00  0.00    +0.000 A 
ATOM     10  C   UNL     1       5.914  -8.422 -11.995  0.00  0.00    +0.002 A 
ATOM     11  C   UNL     1       5.834  -8.170 -10.639  0.00  0.00    +0.028 A 
ENDBRANCH   4   6
BRANCH   2  12
ATOM     12  C   UNL     1       5.864  -8.151  -5.163  0.00  0.00    +0.054 C 
ATOM     13  C   UNL     1       5.665  -9.551  -4.580  0.00  0.00    +0.010 C 
ENDBRANCH   2  12
BRANCH   1  14
ATOM     14  C   UNL     1       2.945  -6.976  -5.515  0.00  0.00    -0.036 C 
BRANCH  14  15
ATOM     15  N   UNL     1       3.302  -5.577  -5.248  0.00  0.00    +0.386 N 
ATOM     16  H   UNL     1       4.290  -5.513  -5.052  0.00  0.00    -0.081 HD
BRANCH  15  17
ATOM     17  C   UNL     1       2.982  -4.757  -6.424  0.00  0.00    -0.046 C 
BRANCH  17  18
ATOM     18  C   UNL     1       1.493  -4.890  -6.748  0.00  0.00    +0.102 C 
ATOM     19  C   UNL     1       1.181  -4.175  -8.081  0.00  0.00    +0.032 C 
ATOM     20  C   UNL     1      -0.194  -3.515  -7.787  0.00  0.00    +0.030 C 
ATOM     21  C   UNL     1      -0.040  -3.171  -6.285  0.00  0.00    +0.160 C 
ATOM     22  O   UNL     1       0.714  -4.259  -5.725  0.00  0.00    -0.378 OA
ENDBRANCH  17  18
ENDBRANCH  15  17
BRANCH  15  23
ATOM     23  C   UNL     1       2.541  -5.090  -4.090  0.00  0.00    -0.044 C 
BRANCH  23  24
ATOM     24  C   UNL     1       2.940  -3.644  -3.788  0.00  0.00    +0.124 C 
BRANCH  24  25
ATOM     25  O   UNL     1       4.314  -3.600  -3.400  0.00  0.00    -0.391 OA
ATOM     26  H   UNL     1       4.517  -4.122  -2.611  0.00  0.00    +0.210 HD
ENDBRANCH  24  25
BRANCH  24  27
ATOM     27  C   UNL     1       2.071  -3.101  -2.652  0.00  0.00    +0.189 C 
BRANCH  27  28
ATOM     28  O   UNL     1       2.363  -1.717  -2.449  0.00  0.00    -0.377 OA
BRANCH  28  29
ATOM     29  C   UNL     1       1.601  -1.110  -1.403  0.00  0.00    +0.160 C 
BRANCH  29  30
ATOM     30  C   UNL     1       1.994   0.364  -1.275  0.00  0.00    +0.028 C 
BRANCH  30  32
ATOM     31  C   UNL     1       1.572   2.487  -0.028  0.00  0.00    +0.004 C 
ATOM     32  C   UNL     1       1.179   1.014  -0.156  0.00  0.00    -0.001 C 
ENDBRANCH  30  32
ENDBRANCH  29  30
ENDBRANCH  28  29
ENDBRANCH  27  28
ENDBRANCH  24  27
ENDBRANCH  23  24
ENDBRANCH  15  23
ENDBRANCH  14  15
ENDBRANCH   1  14
BRANCH   5  33
ATOM     33  O   UNL     1       2.324  -7.193  -8.495  0.00  0.00    -0.438 OA
BRANCH  33  34
ATOM     34  C   UNL     1       1.289  -8.073  -8.502  0.00  0.00    +0.133 A 
ATOM     35  C   UNL     1       1.435  -9.323  -7.916  0.00  0.00    +0.046 A 
ATOM     36  C   UNL     1       0.381 -10.216  -7.923  0.00  0.00    +0.006 A 
ATOM     37  C   UNL     1      -0.819  -9.867  -8.514  0.00  0.00    +0.038 A 
ATOM     38  C   UNL     1      -0.968  -8.622  -9.101  0.00  0.00    +0.127 A 
ATOM     39  C   UNL     1       0.083  -7.721  -9.090  0.00  0.00    +0.084 A 
ATOM     40  F   UNL     1      -2.142  -8.283  -9.678  0.00  0.00    -0.205 F 
ENDBRANCH  33  34
ENDBRANCH   5  33
TORSDOF 16
