REMARK  Name = ZINC21986231
REMARK  6 active torsions:
REMARK  status: ('A' for Active; 'I' for Inactive)
REMARK    1  A    between atoms: C_1  and  C_2
REMARK    2  A    between atoms: C_2  and  N_3
REMARK    3  A    between atoms: N_3  and  C_4
REMARK    4  A    between atoms: C_4  and  C_5
REMARK    5  A    between atoms: N_8  and  C_9
REMARK    6  A    between atoms: N_27  and  C_28
REMARK                            x       y       z     vdW  Elec       q    Type
REMARK                         _______ _______ _______ _____ _____    ______ ____
ROOT
ATOM      1  C   UNL     1      -0.549  -2.271  -3.454  0.00  0.00    +0.098 C 
ATOM      2  C   UNL     1      -0.161  -0.809  -3.697  0.00  0.00    +0.029 C 
ATOM      3  C   UNL     1      -0.410  -0.022  -2.411  0.00  0.00    +0.029 C 
ATOM      4  C   UNL     1       0.485  -0.518  -1.289  0.00  0.00    +0.104 C 
ATOM      5  C   UNL     1       0.684  -2.010  -1.321  0.00  0.00    -0.021 C 
ATOM      6  C   UNL     1       0.231  -2.791  -2.279  0.00  0.00    +0.001 C 
ATOM      7  C   UNL     1       1.440  -2.602  -0.197  0.00  0.00    -0.009 A 
ATOM      8  C   UNL     1       2.137  -3.780  -0.096  0.00  0.00    +0.009 A 
ATOM      9  C   UNL     1       2.788  -4.096   1.095  0.00  0.00    +0.003 A 
ATOM     10  C   UNL     1       2.791  -3.284   2.224  0.00  0.00    +0.026 A 
ATOM     11  C   UNL     1       2.089  -2.081   2.156  0.00  0.00    +0.049 A 
ATOM     12  C   UNL     1       1.436  -1.788   0.956  0.00  0.00    +0.028 A 
ATOM     13  C   UNL     1       0.752  -0.504   1.081  0.00  0.00    +0.056 A 
ATOM     14  C   UNL     1       1.036  -0.085   2.316  0.00  0.00    +0.107 A 
ATOM     15  N   UNL     1       1.833  -1.021   2.972  0.00  0.00    -0.359 N 
ATOM     16  H   UNL     1       2.245  -1.000   3.991  0.00  0.00    +0.165 HD
ATOM     17  N   UNL     1       0.002  -0.004   0.002  0.00  0.00    -0.324 N 
ATOM     18  C   UNL     1      -0.018   1.465   0.010  0.00  0.00    +0.130 C 
ENDROOT
BRANCH   1  22
ATOM     19  N   UNL     1      -3.968  -3.586  -3.138  0.00  0.00    -0.286 N 
ATOM     20  C   UNL     1      -2.648  -3.506  -3.401  0.00  0.00    +0.303 C 
ATOM     21  O   UNL     1      -2.058  -4.471  -3.848  0.00  0.00    -0.253 OA
ATOM     22  N   UNL     1      -1.983  -2.358  -3.168  0.00  0.00    -0.293 N 
ATOM     23  H   UNL     1      -2.517  -1.485  -2.763  0.00  0.00    +0.151 HD
BRANCH  19  25
ATOM     24  C   UNL     1      -5.220  -1.577  -3.753  0.00  0.00    +0.024 C 
ATOM     25  C   UNL     1      -4.679  -2.424  -2.599  0.00  0.00    +0.106 C 
ENDBRANCH  19  25
BRANCH  19  26
ATOM     26  C   UNL     1      -4.691  -4.835  -3.391  0.00  0.00    +0.106 C 
ATOM     27  C   UNL     1      -4.649  -5.711  -2.138  0.00  0.00    +0.024 C 
ENDBRANCH  19  26
ENDBRANCH   1  22
TORSDOF 3
