REMARK  Name = ZINC66121289
REMARK  7 active torsions:
REMARK  status: ('A' for Active; 'I' for Inactive)
REMARK    1  A    between atoms: C_1  and  C_2
REMARK    2  A    between atoms: C_2  and  C_3
REMARK    3  A    between atoms: C_2  and  C_4
REMARK    4  A    between atoms: C_2  and  C_5
REMARK    5  A    between atoms: C_5  and  N_6
REMARK    6  A    between atoms: C_12  and  N_15
REMARK    7  A    between atoms: C_16  and  C_18
REMARK                            x       y       z     vdW  Elec       q    Type
REMARK                         _______ _______ _______ _____ _____    ______ ____
ROOT
ATOM      1  N   UNL     1       2.092   0.010  -1.268  0.00  0.00    -0.299 N 
ATOM      2  C   UNL     1       2.917  -0.299  -2.288  0.00  0.00    +0.302 C 
ATOM      3  O   UNL     1       2.551  -1.072  -3.152  0.00  0.00    -0.253 OA
ATOM      4  N   UNL     1       4.147   0.248  -2.349  0.00  0.00    -0.286 N 
ATOM      5  C   UNL     1       4.647   1.091  -1.255  0.00  0.00    +0.111 C 
ATOM      6  C   UNL     1       5.109   2.431  -1.836  0.00  0.00    +0.041 C 
ATOM      7  C   UNL     1       6.128   2.176  -2.949  0.00  0.00    +0.076 C 
ATOM      8  C   UNL     1       5.472   1.364  -4.068  0.00  0.00    +0.041 C 
ATOM      9  C   UNL     1       5.016   0.008  -3.509  0.00  0.00    +0.111 C 
ATOM     10  H   UNL     1       2.409   0.568  -0.540  0.00  0.00    +0.150 HD
ENDROOT
BRANCH   7  11
ATOM     11  N   UNL     1       6.597   3.456  -3.484  0.00  0.00    -0.312 N 
ATOM     12  C   UNL     1       7.805   3.537  -4.077  0.00  0.00    +0.216 C 
ATOM     13  O   UNL     1       8.503   2.550  -4.168  0.00  0.00    -0.276 OA
ATOM     14  H   UNL     1       6.038   4.246  -3.412  0.00  0.00    +0.149 HD
BRANCH  12  15
ATOM     15  C   UNL     1       8.287   4.854  -4.628  0.00  0.00    +0.075 C 
ATOM     16  C   UNL     1       8.913   5.774  -3.567  0.00  0.00    +0.013 C 
ATOM     17  C   UNL     1      10.255   5.091  -3.880  0.00  0.00    +0.001 C 
ATOM     18  C   UNL     1       9.681   4.779  -5.272  0.00  0.00    +0.013 C 
ENDBRANCH  12  15
ENDBRANCH   7  11
BRANCH   1  19
ATOM     19  C   UNL     1       0.717  -0.495  -1.258  0.00  0.00    +0.111 C 
BRANCH  19  21
ATOM     20  C   UNL     1      -0.018   1.528   0.009  0.00  0.00    +0.012 C 
ATOM     21  C   UNL     1       0.001  -0.002   0.000  0.00  0.00    -0.022 C 
ATOM     22  C   UNL     1       0.740  -0.509   1.240  0.00  0.00    +0.012 C 
ATOM     23  C   UNL     1      -1.435  -0.530   0.010  0.00  0.00    +0.012 C 
ENDBRANCH  19  21
ENDBRANCH   1  19
TORSDOF 4
