REMARK  Name = ZINC20527751
REMARK  6 active torsions:
REMARK  status: ('A' for Active; 'I' for Inactive)
REMARK    1  A    between atoms: C_3  and  C_8
REMARK    2  A    between atoms: C_8  and  S_9
REMARK    3  A    between atoms: S_9  and  C_10
REMARK    4  A    between atoms: N_14  and  N_15
REMARK    5  A    between atoms: N_16  and  N_17
REMARK    6  A    between atoms: C_18  and  C_19
REMARK                            x       y       z     vdW  Elec       q    Type
REMARK                         _______ _______ _______ _____ _____    ______ ____
ROOT
ATOM      1  C   UNL     1       3.337   2.164  -0.018  0.00  0.00    +0.210 A 
ATOM      2  N   UNL     1       2.666   3.291  -0.006  0.00  0.00    -0.119 NA
ATOM      3  N   UNL     1       1.300   2.981   0.000  0.00  0.00    -0.109 NA
ATOM      4  C   UNL     1       1.180   1.676  -0.000  0.00  0.00    +0.254 A 
ATOM      5  N   UNL     1       2.437   1.137  -0.015  0.00  0.00    -0.211 N 
ATOM      6  N   UNL     1      -0.011   0.966   0.007  0.00  0.00    -0.204 N 
ATOM      7  H   UNL     1       0.004  -0.134   0.006  0.00  0.00    +0.177 HD
ENDROOT
BRANCH   5   8
ATOM      8  N   UNL     1       2.739  -0.196  -0.026  0.00  0.00    -0.294 N 
ATOM      9  H   UNL     1       1.932  -0.943  -0.022  0.00  0.00    +0.163 HD
ATOM     10  H   UNL     1       3.790  -0.521  -0.038  0.00  0.00    +0.163 HD
ENDBRANCH   5   8
BRANCH   6  11
ATOM     11  N   UNL     1      -1.234   1.650   0.017  0.00  0.00    -0.184 NA
ATOM     12  C   UNL     1      -2.352   0.984   0.019  0.00  0.00    +0.176 C 
BRANCH  12  13
ATOM     13  C   UNL     1      -3.631   1.700   0.029  0.00  0.00    +0.147 A 
ATOM     14  C   UNL     1      -4.870   1.127   0.031  0.00  0.00    +0.051 A 
ATOM     15  C   UNL     1      -5.803   2.181   0.042  0.00  0.00    +0.042 A 
ATOM     16  C   UNL     1      -5.101   3.332   0.045  0.00  0.00    +0.196 A 
ATOM     17  O   UNL     1      -3.790   3.038   0.042  0.00  0.00    -0.462 OA
ENDBRANCH  12  13
ENDBRANCH   6  11
BRANCH   1  18
ATOM     18  S   UNL     1       5.092   2.004  -0.036  0.00  0.00    -0.080 S 
BRANCH  18  19
ATOM     19  C   UNL     1       5.689   3.716  -0.032  0.00  0.00    +0.112 C 
BRANCH  19  22
ATOM     20  C   UNL     1       9.258   3.739  -1.264  0.00  0.00    +0.001 A 
ATOM     21  C   UNL     1       7.875   3.732  -1.250  0.00  0.00    +0.004 A 
ATOM     22  C   UNL     1       7.196   3.723  -0.047  0.00  0.00    -0.036 A 
ATOM     23  C   UNL     1       7.899   3.725   1.144  0.00  0.00    +0.019 A 
ATOM     24  C   UNL     1       9.281   3.727   1.131  0.00  0.00    +0.018 A 
ATOM     25  C   UNL     1       9.961   3.737  -0.074  0.00  0.00    +0.015 A 
ATOM     26 BR   UNL     1      10.243   3.724   2.759  0.00  0.00    -0.050 Br
ENDBRANCH  19  22
ENDBRANCH  18  19
ENDBRANCH   1  18
TORSDOF 6
