REMARK  Name = ZINC38786960
REMARK  7 active torsions:
REMARK  status: ('A' for Active; 'I' for Inactive)
REMARK    1  A    between atoms: C_1  and  C_2
REMARK    2  A    between atoms: C_5  and  S_26
REMARK    3  A    between atoms: C_7  and  N_8
REMARK    4  A    between atoms: C_9  and  C_11
REMARK    5  A    between atoms: C_11  and  S_12
REMARK    6  A    between atoms: S_12  and  C_13
REMARK    7  A    between atoms: S_26  and  N_29
REMARK                            x       y       z     vdW  Elec       q    Type
REMARK                         _______ _______ _______ _____ _____    ______ ____
ROOT
ATOM      1  N   UNL     1       0.025  -0.015   2.417  0.00  0.00    -0.285 N 
ATOM      2  C   UNL     1      -0.631  -0.520   3.480  0.00  0.00    +0.227 C 
ATOM      3  O   UNL     1      -1.147  -1.616   3.409  0.00  0.00    -0.275 OA
ATOM      4  H   UNL     1       0.493   0.832   2.493  0.00  0.00    +0.155 HD
ENDROOT
BRANCH   1  11
ATOM      5  C   UNL     1      -0.008   1.492   0.004  0.00  0.00    +0.045 C 
ATOM      6  C   UNL     1       0.016  -0.014   0.002  0.00  0.00    -0.029 A 
ATOM      7  C   UNL     1       0.029  -0.704  -1.195  0.00  0.00    +0.007 A 
ATOM      8  C   UNL     1       0.051  -2.087  -1.197  0.00  0.00    +0.029 A 
ATOM      9  C   UNL     1       0.061  -2.783  -0.002  0.00  0.00    +0.107 A 
ATOM     10  C   UNL     1       0.049  -2.099   1.197  0.00  0.00    +0.052 A 
ATOM     11  C   UNL     1       0.032  -0.711   1.203  0.00  0.00    +0.038 A 
BRANCH   9  12
ATOM     12  S   UNL     1       0.089  -4.545  -0.011  0.00  0.00    +0.061 S 
ATOM     13  O   UNL     1      -0.456  -4.966   1.232  0.00  0.00    -0.153 OA
ATOM     14  O   UNL     1      -0.455  -4.954  -1.258  0.00  0.00    -0.153 OA
BRANCH  12  15
ATOM     15  N   UNL     1       1.679  -5.010  -0.012  0.00  0.00    -0.177 NA
ATOM     16  C   UNL     1       2.399  -5.208  -1.277  0.00  0.00    +0.109 C 
ATOM     17  C   UNL     1       3.679  -4.365  -1.253  0.00  0.00    +0.017 C 
ATOM     18  C   UNL     1       4.492  -4.716  -0.004  0.00  0.00    +0.003 C 
ATOM     19  C   UNL     1       3.674  -4.389   1.247  0.00  0.00    +0.017 C 
ATOM     20  C   UNL     1       2.397  -5.226   1.251  0.00  0.00    +0.109 C 
ENDBRANCH  12  15
ENDBRANCH   9  12
ENDBRANCH   1  11
BRANCH   2  21
ATOM     21  C   UNL     1      -0.725   0.276   4.756  0.00  0.00    +0.169 C 
BRANCH  21  22
ATOM     22  S   UNL     1      -1.663  -0.667   5.990  0.00  0.00    -0.102 S 
BRANCH  22  23
ATOM     23  C   UNL     1      -1.683   0.414   7.446  0.00  0.00    +0.290 C 
ATOM     24  N   UNL     1      -1.365   1.800   7.066  0.00  0.00    -0.147 NA
ATOM     25  N   UNL     1      -2.330   2.514   7.345  0.00  0.00    -0.112 NA
ATOM     26  C   UNL     1      -3.373   1.835   7.905  0.00  0.00    +0.253 A 
ATOM     27  N   UNL     1      -3.038   0.503   8.003  0.00  0.00    -0.274 N 
ATOM     28  C   UNL     1      -4.096  -0.160   8.570  0.00  0.00    +0.073 A 
ATOM     29  C   UNL     1      -4.342  -1.485   8.911  0.00  0.00    +0.028 A 
ATOM     30  C   UNL     1      -5.546  -1.832   9.483  0.00  0.00    +0.002 A 
ATOM     31  C   UNL     1      -6.518  -0.869   9.721  0.00  0.00    +0.002 A 
ATOM     32  C   UNL     1      -6.298   0.437   9.393  0.00  0.00    +0.030 A 
ATOM     33  C   UNL     1      -5.082   0.817   8.812  0.00  0.00    +0.091 A 
ATOM     34  N   UNL     1      -4.587   2.003   8.386  0.00  0.00    -0.209 NA
ENDBRANCH  22  23
ENDBRANCH  21  22
ENDBRANCH   2  21
TORSDOF 6
