REMARK  Name = ZINC23454217
REMARK  5 active torsions:
REMARK  status: ('A' for Active; 'I' for Inactive)
REMARK    1  A    between atoms: C_3  and  C_6
REMARK    2  A    between atoms: N_11  and  C_12
REMARK    3  A    between atoms: C_12  and  C_13
REMARK    4  A    between atoms: C_13  and  C_14
REMARK    5  A    between atoms: N_16  and  C_17
REMARK                            x       y       z     vdW  Elec       q    Type
REMARK                         _______ _______ _______ _____ _____    ______ ____
ROOT
ATOM      1  C   UNL     1      -0.001   1.079   2.488  0.00  0.00    +0.219 C 
ATOM      2  O   UNL     1       0.988   0.388   2.363  0.00  0.00    -0.275 OA
ATOM      3  N   UNL     1      -0.453   1.393   3.718  0.00  0.00    -0.285 N 
ATOM      4  H   UNL     1      -1.304   2.080   3.832  0.00  0.00    +0.155 HD
ENDROOT
BRANCH   3   5
ATOM      5  C   UNL     1       0.161   0.844   4.851  0.00  0.00    +0.037 A 
ATOM      6  C   UNL     1       1.532   0.620   4.859  0.00  0.00    +0.027 A 
ATOM      7  C   UNL     1       2.139   0.079   5.975  0.00  0.00    +0.051 A 
ATOM      8  C   UNL     1       1.383  -0.242   7.091  0.00  0.00    +0.173 A 
ATOM      9  C   UNL     1       0.008  -0.019   7.087  0.00  0.00    +0.174 A 
ATOM     10  C   UNL     1      -0.599   0.529   5.969  0.00  0.00    +0.073 A 
ATOM     11  O   UNL     1      -0.502  -0.414   8.290  0.00  0.00    -0.395 OA
ATOM     12  C   UNL     1       0.628  -0.499   9.178  0.00  0.00    +0.589 C 
ATOM     13  O   UNL     1       1.734  -0.776   8.298  0.00  0.00    -0.395 OA
ATOM     14  F   UNL     1       0.823   0.717   9.843  0.00  0.00    -0.125 F 
ATOM     15  F   UNL     1       0.454  -1.539  10.097  0.00  0.00    -0.125 F 
ENDBRANCH   3   5
BRANCH   1  16
ATOM     16  C   UNL     1      -0.725   1.585   1.267  0.00  0.00    +0.118 C 
BRANCH  16  17
ATOM     17  C   UNL     1      -0.012   1.088   0.008  0.00  0.00    +0.135 C 
BRANCH  17  23
ATOM     18  C   UNL     1      -0.464   2.771  -1.834  0.00  0.00    +0.172 A 
ATOM     19  N   UNL     1      -1.286   2.870  -2.844  0.00  0.00    -0.128 NA
ATOM     20  N   UNL     1      -2.095   1.726  -2.857  0.00  0.00    -0.121 NA
ATOM     21  C   UNL     1      -1.716   0.948  -1.823  0.00  0.00    +0.203 A 
ATOM     22  S   UNL     1      -2.388  -0.570  -1.401  0.00  0.00    -0.009 SA
ATOM     23  N   UNL     1      -0.716   1.581  -1.179  0.00  0.00    -0.301 N 
BRANCH  18  26
ATOM     24  C   UNL     1       2.024   5.610  -1.620  0.00  0.00    +0.008 A 
ATOM     25  C   UNL     1       1.060   4.809  -2.188  0.00  0.00    +0.019 A 
ATOM     26  C   UNL     1       0.560   3.761  -1.457  0.00  0.00    +0.056 A 
ATOM     27  S   UNL     1       1.467   3.915   0.073  0.00  0.00    -0.094 S 
ATOM     28  C   UNL     1       2.450   5.342  -0.358  0.00  0.00    +0.046 A 
ENDBRANCH  18  26
ENDBRANCH  17  23
ENDBRANCH  16  17
ENDBRANCH   1  16
TORSDOF 5
