REMARK  Name = ZINC09336666
REMARK  4 active torsions:
REMARK  status: ('A' for Active; 'I' for Inactive)
REMARK    1  A    between atoms: C_1  and  C_2
REMARK    2  A    between atoms: C_2  and  C_4
REMARK    3  A    between atoms: C_2  and  N_55
REMARK    4  A    between atoms: C_10  and  C_15
REMARK                            x       y       z     vdW  Elec       q    Type
REMARK                         _______ _______ _______ _____ _____    ______ ____
ROOT
ATOM      1  C   UNL     1      -0.002  -0.006   0.123  0.00  0.00    +0.097 A 
ATOM      2  N   UNL     1      -0.027   1.344   0.272  0.00  0.00    -0.312 N 
ATOM      3  H   UNL     1      -0.881   1.803   0.298  0.00  0.00    +0.170 HD
ATOM      4  C   UNL     1       1.110   2.057   0.376  0.00  0.00    +0.260 A 
ATOM      5  O   UNL     1       1.070   3.268   0.509  0.00  0.00    -0.267 OA
ATOM      6  C   UNL     1       2.366   1.371   0.329  0.00  0.00    +0.080 A 
ATOM      7  C   UNL     1       3.716   1.913   0.419  0.00  0.00    +0.004 A 
ATOM      8  C   UNL     1       4.766   1.060   0.349  0.00  0.00    +0.056 A 
ATOM      9  S   UNL     1       3.991  -0.534   0.156  0.00  0.00    -0.076 S 
ATOM     10  C   UNL     1       2.292  -0.023   0.174  0.00  0.00    +0.116 A 
ATOM     11  N   UNL     1       1.128  -0.659   0.077  0.00  0.00    -0.228 NA
ENDROOT
BRANCH   7  12
ATOM     12  C   UNL     1       3.936   3.369   0.585  0.00  0.00    -0.017 A 
ATOM     13  C   UNL     1       3.299   4.274  -0.262  0.00  0.00    +0.008 A 
ATOM     14  C   UNL     1       3.503   5.630  -0.100  0.00  0.00    +0.001 A 
ATOM     15  C   UNL     1       4.348   6.090   0.895  0.00  0.00    +0.000 A 
ATOM     16  C   UNL     1       4.987   5.196   1.735  0.00  0.00    +0.001 A 
ATOM     17  C   UNL     1       4.786   3.839   1.586  0.00  0.00    +0.008 A 
ENDBRANCH   7  12
BRANCH   1  19
ATOM     18  C   UNL     1      -2.195  -0.422   1.203  0.00  0.00    -0.005 C 
ATOM     19  C   UNL     1      -1.300  -0.762   0.010  0.00  0.00    -0.004 C 
BRANCH  19  29
ATOM     20  C   UNL     1      -2.203  -2.961  -0.447  0.00  0.00    -0.078 C 
ATOM     21  C   UNL     1      -1.842  -4.442  -0.582  0.00  0.00    -0.015 C 
ATOM     22  C   UNL     1      -1.361  -4.968   0.775  0.00  0.00    -0.011 C 
ATOM     23  C   UNL     1      -2.494  -4.831   1.796  0.00  0.00    +0.004 C 
ATOM     24  C   UNL     1      -2.015  -5.324   3.162  0.00  0.00    +0.000 C 
ATOM     25  C   UNL     1      -0.821  -4.481   3.617  0.00  0.00    +0.000 C 
ATOM     26  C   UNL     1       0.315  -4.621   2.601  0.00  0.00    +0.002 C 
ATOM     27  C   UNL     1      -0.160  -4.136   1.232  0.00  0.00    -0.025 C 
ATOM     28  C   UNL     1      -0.568  -2.664   1.317  0.00  0.00    -0.074 C 
ATOM     29  N   UNL     1      -1.004  -2.209  -0.021  0.00  0.00    +0.386 N 
ATOM     30  H   UNL     1      -0.247  -2.381  -0.693  0.00  0.00    -0.081 HD
ENDBRANCH  19  29
ENDBRANCH   1  19
TORSDOF 3
