REMARK  Name = ZINC20581585
REMARK  5 active torsions:
REMARK  status: ('A' for Active; 'I' for Inactive)
REMARK    1  A    between atoms: C_3  and  N_31
REMARK    2  A    between atoms: C_6  and  C_7
REMARK    3  A    between atoms: C_8  and  C_9
REMARK    4  A    between atoms: C_15  and  C_17
REMARK    5  A    between atoms: N_22  and  C_24
REMARK                            x       y       z     vdW  Elec       q    Type
REMARK                         _______ _______ _______ _____ _____    ______ ____
ROOT
ATOM      1  C   UNL     1      -0.754  -2.271  -0.032  0.00  0.00    +0.243 C 
ATOM      2  O   UNL     1       0.399  -2.662  -0.054  0.00  0.00    -0.270 OA
ATOM      3  N   UNL     1      -1.017  -0.949  -0.009  0.00  0.00    -0.260 N 
ATOM      4  C   UNL     1       0.028  -0.033  -0.011  0.00  0.00    +0.188 A 
ATOM      5  N   UNL     1       1.339  -0.233  -0.033  0.00  0.00    -0.126 NA
ATOM      6  N   UNL     1       2.158   0.725  -0.031  0.00  0.00    -0.144 NA
ATOM      7  C   UNL     1       1.766   1.984  -0.007  0.00  0.00    +0.109 A 
ATOM      8  S   UNL     1      -0.010   1.757   0.015  0.00  0.00    -0.035 S 
ATOM      9  H   UNL     1      -2.058  -0.596   0.012  0.00  0.00    +0.157 HD
ENDROOT
BRANCH   7  10
ATOM     10  C   UNL     1       2.581   3.252  -0.001  0.00  0.00    +0.073 C 
ATOM     11  C   UNL     1       3.551   3.292  -1.205  0.00  0.00    +0.108 C 
ATOM     12  C   UNL     1       4.800   3.943  -0.653  0.00  0.00    +0.220 C 
ATOM     13  O   UNL     1       5.694   4.413  -1.325  0.00  0.00    -0.275 OA
ATOM     14  N   UNL     1       4.776   3.925   0.691  0.00  0.00    -0.271 N 
ATOM     15  C   UNL     1       3.560   3.275   1.194  0.00  0.00    +0.124 C 
BRANCH  14  16
ATOM     16  C   UNL     1       5.781   4.457   1.507  0.00  0.00    +0.036 A 
ATOM     17  C   UNL     1       6.953   4.941   0.940  0.00  0.00    +0.025 A 
ATOM     18  C   UNL     1       7.941   5.472   1.746  0.00  0.00    +0.022 A 
ATOM     19  C   UNL     1       7.769   5.511   3.119  0.00  0.00    +0.041 A 
ATOM     20  C   UNL     1       6.604   5.024   3.687  0.00  0.00    +0.022 A 
ATOM     21  C   UNL     1       5.611   4.498   2.884  0.00  0.00    +0.025 A 
ATOM     22 CL   UNL     1       9.015   6.171   4.130  0.00  0.00    -0.084 Cl
ENDBRANCH  14  16
ENDBRANCH   7  10
BRANCH   1  24
ATOM     23  C   UNL     1      -1.591  -4.558  -0.052  0.00  0.00    +0.013 C 
ATOM     24  C   UNL     1      -1.854  -3.236  -0.029  0.00  0.00    +0.068 C 
BRANCH  23  30
ATOM     25  C   UNL     1      -4.023  -5.083  -0.018  0.00  0.00    +0.010 A 
ATOM     26  C   UNL     1      -5.054  -5.999  -0.021  0.00  0.00    +0.033 A 
ATOM     27  C   UNL     1      -4.780  -7.355  -0.045  0.00  0.00    +0.126 A 
ATOM     28  C   UNL     1      -3.471  -7.804  -0.071  0.00  0.00    +0.033 A 
ATOM     29  C   UNL     1      -2.429  -6.901  -0.073  0.00  0.00    +0.010 A 
ATOM     30  C   UNL     1      -2.698  -5.529  -0.050  0.00  0.00    -0.025 A 
BRANCH  27  31
ATOM     31  N   UNL     1      -5.893  -8.331  -0.042  0.00  0.00    +0.056 N 
ATOM     32  O   UNL     1      -5.656  -9.526  -0.063  0.00  0.00    -0.126 OA
ATOM     33  O   UNL     1      -7.046  -7.940  -0.019  0.00  0.00    -0.126 OA
ENDBRANCH  27  31
ENDBRANCH  23  30
ENDBRANCH   1  24
TORSDOF 5
