REMARK  Name = ZINC05295915
REMARK  4 active torsions:
REMARK  status: ('A' for Active; 'I' for Inactive)
REMARK    1  A    between atoms: C_1  and  C_2
REMARK    2  A    between atoms: C_2  and  N_3
REMARK    3  A    between atoms: N_11  and  C_28
REMARK    4  A    between atoms: N_15  and  N_16
REMARK                            x       y       z     vdW  Elec       q    Type
REMARK                         _______ _______ _______ _____ _____    ______ ____
ROOT
ATOM      1  N   UNL     1      -1.372  -0.511   0.012  0.00  0.00    -0.305 N 
ATOM      2  C   UNL     1      -2.139  -0.798   1.130  0.00  0.00    +0.153 A 
ATOM      3  C   UNL     1      -1.922  -0.723   2.520  0.00  0.00    +0.280 A 
ATOM      4  O   UNL     1      -0.855  -0.331   2.956  0.00  0.00    -0.265 OA
ATOM      5  N   UNL     1      -2.910  -1.091   3.362  0.00  0.00    -0.273 N 
ATOM      6  H   UNL     1      -2.764  -1.041   4.320  0.00  0.00    +0.173 HD
ATOM      7  C   UNL     1      -4.093  -1.526   2.895  0.00  0.00    +0.331 A 
ATOM      8  O   UNL     1      -4.959  -1.848   3.684  0.00  0.00    -0.246 OA
ATOM      9  N   UNL     1      -4.341  -1.613   1.575  0.00  0.00    -0.280 N 
ATOM     10  C   UNL     1      -3.367  -1.249   0.658  0.00  0.00    +0.170 A 
ATOM     11  N   UNL     1      -3.319  -1.227  -0.674  0.00  0.00    -0.195 NA
ATOM     12  C   UNL     1      -2.143  -0.785  -1.073  0.00  0.00    +0.218 A 
ATOM     13  N   UNL     1      -1.755  -0.629  -2.387  0.00  0.00    -0.206 N 
ATOM     14  C   UNL     1      -5.644  -2.091   1.106  0.00  0.00    +0.155 C 
ATOM     15  H   UNL     1      -0.866  -0.299  -2.595  0.00  0.00    +0.177 HD
ENDROOT
BRANCH  13  16
ATOM     16  N   UNL     1      -2.572  -0.922  -3.341  0.00  0.00    -0.174 NA
ATOM     17  C   UNL     1      -2.203  -0.773  -4.592  0.00  0.00    +0.153 C 
ATOM     18  C   UNL     1      -3.002  -1.050  -5.808  0.00  0.00    +0.029 A 
ATOM     19  C   UNL     1      -4.295  -1.519  -6.011  0.00  0.00    +0.027 A 
ATOM     20  C   UNL     1      -4.772  -1.678  -7.298  0.00  0.00    +0.019 A 
ATOM     21  C   UNL     1      -3.963  -1.371  -8.380  0.00  0.00    +0.017 A 
ATOM     22  C   UNL     1      -2.678  -0.906  -8.188  0.00  0.00    +0.025 A 
ATOM     23  C   UNL     1      -2.181  -0.740  -6.900  0.00  0.00    +0.043 A 
ATOM     24  N   UNL     1      -0.948  -0.296  -6.435  0.00  0.00    -0.280 N 
ATOM     25  C   UNL     1      -0.903  -0.288  -5.092  0.00  0.00    +0.269 C 
ATOM     26  O   UNL     1       0.044   0.055  -4.409  0.00  0.00    -0.268 OA
ATOM     27 BR   UNL     1      -6.530  -2.314  -7.582  0.00  0.00    -0.050 Br
ATOM     28  H   UNL     1      -0.214  -0.023  -7.008  0.00  0.00    +0.155 HD
ENDBRANCH  13  16
BRANCH   1  30
ATOM     29  C   UNL     1      -0.019   1.526   0.010  0.00  0.00    +0.027 C 
ATOM     30  C   UNL     1       0.002  -0.004   0.002  0.00  0.00    +0.122 C 
ENDBRANCH   1  30
TORSDOF 2
