REMARK  Name = ZINC16610272
REMARK  11 active torsions:
REMARK  status: ('A' for Active; 'I' for Inactive)
REMARK    1  A    between atoms: C_1  and  C_2
REMARK    2  A    between atoms: C_7  and  N_8
REMARK    3  A    between atoms: N_11  and  C_12
REMARK    4  A    between atoms: C_15  and  C_18
REMARK    5  A    between atoms: C_20  and  C_28
REMARK    6  A    between atoms: C_21  and  C_27
REMARK    7  A    between atoms: N_22  and  C_26
REMARK    8  A    between atoms: C_28  and  O_30
REMARK    9  A    between atoms: O_30  and  C_31
REMARK   10  A    between atoms: C_31  and  C_32
REMARK   11  A    between atoms: C_31  and  C_33
REMARK                            x       y       z     vdW  Elec       q    Type
REMARK                         _______ _______ _______ _____ _____    ______ ____
ROOT
ATOM      1  C   UNL     1      -2.226  -4.146  -0.182  0.00  0.00    +0.035 A 
ATOM      2  C   UNL     1      -1.018  -4.830  -0.205  0.00  0.00    +0.024 A 
ATOM      3  C   UNL     1      -1.008  -6.211  -0.211  0.00  0.00    +0.007 A 
ATOM      4  C   UNL     1      -2.200  -6.912  -0.206  0.00  0.00    -0.022 A 
ATOM      5  C   UNL     1      -3.405  -6.233  -0.189  0.00  0.00    +0.007 A 
ATOM      6  C   UNL     1      -3.421  -4.852  -0.177  0.00  0.00    +0.024 A 
ENDROOT
BRANCH   4   7
ATOM      7  C   UNL     1      -2.187  -8.419  -0.218  0.00  0.00    +0.141 C 
ATOM      8  C   UNL     1      -2.009  -8.896   1.209  0.00  0.00    +0.078 C 
ATOM      9  C   UNL     1      -0.945  -9.683   1.481  0.00  0.00    +0.021 C 
ATOM     10  N   UNL     1      -0.062 -10.036   0.503  0.00  0.00    -0.289 N 
ATOM     11  C   UNL     1      -0.170  -9.644  -0.772  0.00  0.00    +0.137 C 
ATOM     12  S   UNL     1       1.010 -10.159  -1.900  0.00  0.00    -0.018 S 
ATOM     13  N   UNL     1      -1.178  -8.856  -1.198  0.00  0.00    -0.315 N 
ATOM     14  C   UNL     1       1.069 -10.892   0.870  0.00  0.00    +0.137 C 
ATOM     15  C   UNL     1      -0.731 -10.179   2.888  0.00  0.00    +0.061 C 
ATOM     16  H   UNL     1      -1.236  -8.583  -2.127  0.00  0.00    +0.149 HD
BRANCH   8  17
ATOM     17  C   UNL     1      -2.925  -8.530   2.222  0.00  0.00    +0.339 C 
ATOM     18  O   UNL     1      -2.762  -8.925   3.361  0.00  0.00    -0.245 OA
BRANCH  17  19
ATOM     19  O   UNL     1      -3.980  -7.743   1.925  0.00  0.00    -0.459 OA
BRANCH  19  20
ATOM     20  C   UNL     1      -4.865  -7.413   2.998  0.00  0.00    +0.171 C 
ATOM     21  C   UNL     1      -4.390  -6.125   3.673  0.00  0.00    +0.052 C 
ATOM     22  C   UNL     1      -6.278  -7.209   2.448  0.00  0.00    +0.052 C 
ENDBRANCH  19  20
ENDBRANCH  17  19
ENDBRANCH   8  17
ENDBRANCH   4   7
BRANCH   1  26
ATOM     23  N   UNL     1      -1.347  -0.726   0.588  0.00  0.00    -0.269 N 
ATOM     24  C   UNL     1      -1.283  -2.070   0.498  0.00  0.00    +0.308 C 
ATOM     25  O   UNL     1      -0.364  -2.671   1.020  0.00  0.00    -0.252 OA
ATOM     26  N   UNL     1      -2.239  -2.746  -0.169  0.00  0.00    -0.269 N 
ATOM     27  H   UNL     1      -2.113  -0.252   0.230  0.00  0.00    +0.156 HD
ATOM     28  H   UNL     1      -2.935  -2.264  -0.641  0.00  0.00    +0.156 HD
BRANCH  23  35
ATOM     29  C   UNL     1      -0.678   1.836  -0.453  0.00  0.00    +0.045 C 
ATOM     30  C   UNL     1       0.050   1.239   0.724  0.00  0.00    -0.029 A 
ATOM     31  C   UNL     1       1.077   1.938   1.328  0.00  0.00    +0.005 A 
ATOM     32  C   UNL     1       1.750   1.388   2.403  0.00  0.00    +0.000 A 
ATOM     33  C   UNL     1       1.397   0.138   2.878  0.00  0.00    +0.002 A 
ATOM     34  C   UNL     1       0.371  -0.565   2.279  0.00  0.00    +0.023 A 
ATOM     35  C   UNL     1      -0.307  -0.016   1.198  0.00  0.00    +0.038 A 
ENDBRANCH  23  35
ENDBRANCH   1  26
TORSDOF 6
