REMARK  Name = ZINC02161086
REMARK  10 active torsions:
REMARK  status: ('A' for Active; 'I' for Inactive)
REMARK    1  A    between atoms: C_1  and  C_2
REMARK    2  A    between atoms: C_3  and  O_17
REMARK    3  A    between atoms: O_17  and  C_18
REMARK    4  A    between atoms: C_18  and  C_20
REMARK    5  A    between atoms: C_18  and  C_21
REMARK    6  A    between atoms: N_23  and  CA_24
REMARK    7  A    between atoms: CA_24  and  C_26
REMARK    8  A    between atoms: CA_24  and  C_38
REMARK    9  A    between atoms: C_26  and  C_27
REMARK   10  A    between atoms: C_34  and  O_37
REMARK                            x       y       z     vdW  Elec       q    Type
REMARK                         _______ _______ _______ _____ _____    ______ ____
ROOT
ATOM      1  C   UNL     1       0.116   1.925   2.412  0.00  0.00    +0.254 C 
ATOM      2  O   UNL     1       1.325   1.860   2.480  0.00  0.00    -0.272 OA
ATOM      3  N   UNL     1      -0.512   1.604   1.263  0.00  0.00    -0.299 N 
ATOM      4  H   UNL     1      -1.480   1.655   1.208  0.00  0.00    +0.150 HD
ENDROOT
BRANCH   1   5
ATOM      5  C   UNL     1      -0.685   2.365   3.610  0.00  0.00    +0.255 C 
ATOM      6  C   UNL     1      -1.480   3.624   3.259  0.00  0.00    +0.062 C 
BRANCH   5   7
ATOM      7  O   UNL     1       0.200   2.647   4.696  0.00  0.00    -0.480 OA
BRANCH   7  10
ATOM      8  C   UNL     1       1.990   2.983   6.848  0.00  0.00    +0.051 C 
ATOM      9  C   UNL     1       0.522   2.705   7.046  0.00  0.00    +0.034 A 
ATOM     10  C   UNL     1      -0.311   2.549   5.950  0.00  0.00    +0.128 A 
ATOM     11  C   UNL     1      -1.671   2.297   6.123  0.00  0.00    +0.047 A 
ATOM     12  C   UNL     1      -2.200   2.190   7.377  0.00  0.00    +0.015 A 
ATOM     13  C   UNL     1      -1.372   2.344   8.495  0.00  0.00    +0.022 A 
ATOM     14  C   UNL     1      -0.001   2.604   8.326  0.00  0.00    +0.146 A 
ATOM     15  O   UNL     1       0.789   2.752   9.411  0.00  0.00    -0.422 OA
ATOM     16  C   UNL     1       0.294   2.654  10.651  0.00  0.00    +0.341 A 
ATOM     17  O   UNL     1       1.047   2.796  11.599  0.00  0.00    -0.245 OA
ATOM     18  C   UNL     1      -1.076   2.391  10.898  0.00  0.00    +0.041 A 
ATOM     19  C   UNL     1      -1.920   2.240   9.854  0.00  0.00    -0.027 A 
ATOM     20  C   UNL     1      -3.391   1.972  10.018  0.00  0.00    +0.036 C 
ATOM     21  C   UNL     1      -3.695   1.475  11.430  0.00  0.00    +0.005 C 
ATOM     22  C   UNL     1      -3.045   2.439  12.430  0.00  0.00    +0.005 C 
ATOM     23  C   UNL     1      -1.528   2.284  12.330  0.00  0.00    +0.042 C 
ENDBRANCH   7  10
ENDBRANCH   5   7
ENDBRANCH   1   5
BRANCH   3  24
ATOM     24  CA  UNL     1       0.266   1.176   0.098  0.00  0.00    +0.191 C 
BRANCH  24  25
ATOM     25  C   UNL     1       0.541  -0.302   0.192  0.00  0.00    +0.376 C 
ATOM     26  O   UNL     1       0.129  -0.934   1.136  0.00  0.00    -0.244 OA
ATOM     27  OXT UNL     1       1.243  -0.917  -0.772  0.00  0.00    -0.244 OA
ENDBRANCH  24  25
BRANCH  24  28
ATOM     28  C   UNL     1      -0.526   1.467  -1.179  0.00  0.00    +0.071 C 
BRANCH  28  29
ATOM     29  C   UNL     1      -0.695   2.957  -1.337  0.00  0.00    -0.020 A 
ATOM     30  C   UNL     1      -1.752   3.686  -0.946  0.00  0.00    +0.087 A 
ATOM     31  N   UNL     1      -1.548   5.004  -1.251  0.00  0.00    -0.360 N 
ATOM     32  H   UNL     1      -2.172   5.722  -1.064  0.00  0.00    +0.165 HD
ATOM     33  C   UNL     1      -0.326   5.157  -1.871  0.00  0.00    +0.047 A 
ATOM     34  C   UNL     1       0.261   3.881  -1.951  0.00  0.00    +0.006 A 
ATOM     35  C   UNL     1       1.518   3.727  -2.538  0.00  0.00    +0.055 A 
ATOM     36  C   UNL     1       2.178   4.832  -3.038  0.00  0.00    +0.118 A 
ATOM     37  C   UNL     1       1.595   6.094  -2.957  0.00  0.00    +0.047 A 
ATOM     38  C   UNL     1       0.355   6.258  -2.380  0.00  0.00    +0.030 A 
BRANCH  36  39
ATOM     39  O   UNL     1       3.403   4.688  -3.610  0.00  0.00    -0.507 OA
ATOM     40  H   UNL     1       3.375   4.519  -4.562  0.00  0.00    +0.292 HD
ENDBRANCH  36  39
ENDBRANCH  28  29
ENDBRANCH  24  28
ENDBRANCH   3  24
TORSDOF 8
