REMARK  Name = ZINC12424590
REMARK  10 active torsions:
REMARK  status: ('A' for Active; 'I' for Inactive)
REMARK    1  A    between atoms: C_1  and  C_2
REMARK    2  A    between atoms: C_4  and  C_33
REMARK    3  A    between atoms: C_5  and  N_9
REMARK    4  A    between atoms: C_6  and  C_8
REMARK    5  A    between atoms: C_10  and  C_12
REMARK    6  A    between atoms: C_12  and  N_13
REMARK    7  A    between atoms: C_14  and  C_16
REMARK    8  A    between atoms: C_16  and  S_17
REMARK    9  A    between atoms: S_17  and  C_18
REMARK   10  A    between atoms: C_26  and  C_28
REMARK                            x       y       z     vdW  Elec       q    Type
REMARK                         _______ _______ _______ _____ _____    ______ ____
ROOT
ATOM      1  N   UNL     1      -5.671   0.271  -1.534  0.00  0.00    -0.306 N 
ATOM      2  C   UNL     1      -4.627  -0.564  -1.706  0.00  0.00    +0.224 C 
ATOM      3  O   UNL     1      -4.570  -1.601  -1.078  0.00  0.00    -0.275 OA
ATOM      4  H   UNL     1      -5.717   1.100  -2.035  0.00  0.00    +0.149 HD
ENDROOT
BRANCH   1   5
ATOM      5  C   UNL     1      -6.737  -0.073  -0.589  0.00  0.00    +0.200 C 
BRANCH   5   7
ATOM      6  N   UNL     1      -8.857   0.916   0.214  0.00  0.00    -0.284 N 
ATOM      7  C   UNL     1      -7.776   1.018  -0.585  0.00  0.00    +0.234 C 
ATOM      8  O   UNL     1      -7.640   1.988  -1.301  0.00  0.00    -0.274 OA
ATOM      9  H   UNL     1      -8.992   0.117   0.747  0.00  0.00    +0.155 HD
BRANCH   6  14
ATOM     10  C   UNL     1     -12.612   5.161   0.462  0.00  0.00    +0.044 C 
ATOM     11  C   UNL     1     -11.615   4.034   0.396  0.00  0.00    -0.050 A 
ATOM     12  C   UNL     1     -12.046   2.745   0.141  0.00  0.00    +0.008 A 
ATOM     13  C   UNL     1     -11.134   1.709   0.080  0.00  0.00    -0.029 A 
ATOM     14  C   UNL     1      -9.783   1.963   0.275  0.00  0.00    +0.039 A 
ATOM     15  C   UNL     1      -9.354   3.258   0.536  0.00  0.00    -0.029 A 
ATOM     16  C   UNL     1     -10.270   4.290   0.591  0.00  0.00    +0.008 A 
ATOM     17  C   UNL     1      -7.889   3.537   0.754  0.00  0.00    +0.045 C 
ATOM     18  C   UNL     1     -11.605   0.305  -0.199  0.00  0.00    +0.045 C 
ENDBRANCH   6  14
ENDBRANCH   5   7
ENDBRANCH   1   5
BRANCH   2  19
ATOM     19  C   UNL     1      -3.531  -0.210  -2.677  0.00  0.00    +0.171 C 
BRANCH  19  20
ATOM     20  S   UNL     1      -2.283  -1.521  -2.682  0.00  0.00    -0.096 S 
BRANCH  20  21
ATOM     21  C   UNL     1      -1.156  -0.866  -3.868  0.00  0.00    +0.109 A 
ATOM     22  C   UNL     1       0.063  -1.587  -4.232  0.00  0.00    +0.032 A 
ATOM     23  C   UNL     1       0.396  -2.820  -3.666  0.00  0.00    +0.012 A 
ATOM     24  C   UNL     1       1.548  -3.444  -4.047  0.00  0.00    +0.001 A 
ATOM     25  C   UNL     1       2.394  -2.869  -4.990  0.00  0.00    +0.002 A 
ATOM     26  C   UNL     1       2.098  -1.667  -5.561  0.00  0.00    +0.028 A 
ATOM     27  C   UNL     1       0.922  -0.998  -5.193  0.00  0.00    +0.076 A 
ATOM     28  N   UNL     1       0.581   0.185  -5.722  0.00  0.00    -0.227 NA
ATOM     29  C   UNL     1      -0.533   0.796  -5.359  0.00  0.00    +0.168 A 
ATOM     30  N   UNL     1      -1.385   0.298  -4.462  0.00  0.00    -0.220 NA
BRANCH  29  31
ATOM     31  C   UNL     1      -0.852   2.095  -5.979  0.00  0.00    +0.056 A 
ATOM     32  C   UNL     1      -1.934   2.911  -5.769  0.00  0.00    +0.019 A 
ATOM     33  C   UNL     1      -2.019   4.091  -6.470  0.00  0.00    +0.008 A 
ATOM     34  C   UNL     1      -1.031   4.413  -7.347  0.00  0.00    +0.046 A 
ATOM     35  S   UNL     1       0.076   3.021  -7.192  0.00  0.00    -0.094 S 
ENDBRANCH  29  31
ENDBRANCH  20  21
ENDBRANCH  19  20
ENDBRANCH   2  19
TORSDOF 7
