REMARK  Name = ZINC66527003
REMARK  4 active torsions:
REMARK  status: ('A' for Active; 'I' for Inactive)
REMARK    1  A    between atoms: C_6  and  C_7
REMARK    2  A    between atoms: C_10  and  C_12
REMARK    3  A    between atoms: N_14  and  C_15
REMARK    4  A    between atoms: C_24  and  C_27
REMARK                            x       y       z     vdW  Elec       q    Type
REMARK                         _______ _______ _______ _____ _____    ______ ____
ROOT
ATOM      1  C   UNL     1      -4.767  -0.777   0.330  0.00  0.00    +0.280 C 
ATOM      2  O   UNL     1      -5.403  -1.796   0.132  0.00  0.00    -0.267 OA
ATOM      3  N   UNL     1      -5.400   0.411   0.395  0.00  0.00    -0.306 N 
ATOM      4  H   UNL     1      -4.893   1.223   0.552  0.00  0.00    +0.149 HD
ENDROOT
BRANCH   3   5
ATOM      5  C   UNL     1      -6.854   0.476   0.229  0.00  0.00    +0.076 C 
ATOM      6  C   UNL     1      -7.194   0.541  -1.262  0.00  0.00    +0.041 C 
ATOM      7  C   UNL     1      -8.716   0.574  -1.433  0.00  0.00    +0.108 C 
ATOM      8  N   UNL     1      -9.257   1.687  -0.641  0.00  0.00    -0.315 N 
ATOM      9  C   UNL     1      -8.916   1.771   0.785  0.00  0.00    +0.108 C 
ATOM     10  C   UNL     1      -7.392   1.724   0.932  0.00  0.00    +0.041 C 
ATOM     11  C   UNL     1     -10.073   2.641  -1.230  0.00  0.00    +0.121 A 
ATOM     12  C   UNL     1     -10.568   2.424  -2.514  0.00  0.00    +0.045 A 
ATOM     13  C   UNL     1     -11.373   3.367  -3.092  0.00  0.00    +0.024 A 
ATOM     14  C   UNL     1     -11.673   4.529  -2.363  0.00  0.00    +0.070 A 
ATOM     15  C   UNL     1     -11.143   4.680  -1.081  0.00  0.00    +0.131 A 
ATOM     16  N   UNL     1     -10.376   3.744  -0.560  0.00  0.00    -0.239 NA
BRANCH  14  17
ATOM     17  C   UNL     1     -12.511   5.544  -2.927  0.00  0.00    +0.101 C 
ATOM     18  N   UNL     1     -13.176   6.349  -3.374  0.00  0.00    -0.191 NA
ENDBRANCH  14  17
ENDBRANCH   3   5
BRANCH   1  22
ATOM     19  C   UNL     1      -1.226  -0.231   0.818  0.00  0.00    +0.136 A 
ATOM     20  C   UNL     1      -1.219  -1.588   0.658  0.00  0.00    +0.050 A 
ATOM     21  C   UNL     1      -2.544  -1.985   0.452  0.00  0.00    +0.055 A 
ATOM     22  C   UNL     1      -3.313  -0.842   0.496  0.00  0.00    +0.190 A 
ATOM     23  O   UNL     1      -2.493   0.206   0.724  0.00  0.00    -0.450 OA
BRANCH  19  29
ATOM     24  C   UNL     1      -0.182   1.994   1.214  0.00  0.00    +0.014 A 
ATOM     25  C   UNL     1       0.929   2.778   1.442  0.00  0.00    +0.039 A 
ATOM     26  C   UNL     1       2.186   2.198   1.518  0.00  0.00    +0.123 A 
ATOM     27  C   UNL     1       2.333   0.828   1.366  0.00  0.00    +0.039 A 
ATOM     28  C   UNL     1       1.229   0.034   1.138  0.00  0.00    +0.014 A 
ATOM     29  C   UNL     1      -0.040   0.613   1.061  0.00  0.00    +0.017 A 
ATOM     30  F   UNL     1       3.271   2.971   1.741  0.00  0.00    -0.205 F 
ENDBRANCH  19  29
ENDBRANCH   1  22
TORSDOF 4
