REMARK  Name = ZINC57719661
REMARK  5 active torsions:
REMARK  status: ('A' for Active; 'I' for Inactive)
REMARK    1  A    between atoms: N_9  and  C_12
REMARK    2  A    between atoms: C_12  and  C_13
REMARK    3  A    between atoms: C_13  and  C_14
REMARK    4  A    between atoms: C_14  and  C_15
REMARK    5  A    between atoms: C_15  and  N_16
REMARK                            x       y       z     vdW  Elec       q    Type
REMARK                         _______ _______ _______ _____ _____    ______ ____
ROOT
ATOM      1  N   UNL     1       5.764  -6.849  -2.977  0.00  0.00    +0.381 N 
ATOM      2  C   UNL     1       7.093  -6.620  -2.397  0.00  0.00    -0.079 C 
ATOM      3  C   UNL     1       7.859  -7.943  -2.331  0.00  0.00    -0.016 C 
ATOM      4  C   UNL     1       8.012  -8.509  -3.746  0.00  0.00    +0.028 C 
ATOM      5  C   UNL     1       6.628  -8.665  -4.376  0.00  0.00    +0.058 C 
ATOM      6  C   UNL     1       5.900  -7.322  -4.361  0.00  0.00    -0.047 C 
ATOM      7  C   UNL     1       6.765  -9.156  -5.795  0.00  0.00    +0.045 A 
ATOM      8  C   UNL     1       6.984  -8.465  -6.919  0.00  0.00    +0.025 A 
ATOM      9  C   UNL     1       7.055  -9.396  -7.979  0.00  0.00    +0.020 A 
ATOM     10  C   UNL     1       6.867 -10.627  -7.453  0.00  0.00    +0.091 A 
ATOM     11  N   UNL     1       6.674 -10.492  -6.119  0.00  0.00    -0.316 N 
ATOM     12  C   UNL     1       6.400 -11.462  -5.144  0.00  0.00    +0.067 A 
ATOM     13  C   UNL     1       6.504 -12.813  -5.413  0.00  0.00    +0.028 A 
ATOM     14  C   UNL     1       6.246 -13.735  -4.414  0.00  0.00    +0.002 A 
ATOM     15  C   UNL     1       5.886 -13.306  -3.149  0.00  0.00    +0.002 A 
ATOM     16  C   UNL     1       5.772 -11.956  -2.875  0.00  0.00    +0.025 A 
ATOM     17  C   UNL     1       6.017 -11.024  -3.872  0.00  0.00    +0.052 A 
ATOM     18  N   UNL     1       5.850  -9.657  -3.621  0.00  0.00    -0.333 N 
ATOM     19  H   UNL     1       5.219  -9.363  -2.945  0.00  0.00    +0.147 HD
ATOM     20  H   UNL     1       5.276  -7.544  -2.432  0.00  0.00    -0.082 HD
ENDROOT
BRANCH   1  21
ATOM     21  C   UNL     1       5.002  -5.593  -2.963  0.00  0.00    -0.079 C 
BRANCH  21  22
ATOM     22  C   UNL     1       4.752  -5.165  -1.515  0.00  0.00    -0.017 C 
BRANCH  22  23
ATOM     23  C   UNL     1       3.959  -3.857  -1.501  0.00  0.00    +0.018 C 
BRANCH  23  24
ATOM     24  C   UNL     1       3.709  -3.428  -0.053  0.00  0.00    +0.117 C 
BRANCH  24  33
ATOM     25  C   UNL     1      -0.017   1.382   0.010  0.00  0.00    +0.001 A 
ATOM     26  C   UNL     1       1.165   2.099   0.002  0.00  0.00    +0.001 A 
ATOM     27  C   UNL     1       2.385   1.442  -0.013  0.00  0.00    +0.014 A 
ATOM     28  C   UNL     1       2.420   0.056  -0.021  0.00  0.00    +0.049 A 
ATOM     29  C   UNL     1       1.215  -0.675  -0.013  0.00  0.00    +0.049 A 
ATOM     30  C   UNL     1       0.002  -0.004   0.002  0.00  0.00    +0.014 A 
ATOM     31  C   UNL     1       1.606  -2.100  -0.025  0.00  0.00    +0.254 C 
ATOM     32  O   UNL     1       0.843  -3.045  -0.023  0.00  0.00    -0.270 OA
ATOM     33  N   UNL     1       2.949  -2.175  -0.039  0.00  0.00    -0.234 N 
ATOM     34  C   UNL     1       3.503  -0.949  -0.038  0.00  0.00    +0.254 C 
ATOM     35  O   UNL     1       4.693  -0.709  -0.049  0.00  0.00    -0.270 OA
ENDBRANCH  24  33
ENDBRANCH  23  24
ENDBRANCH  22  23
ENDBRANCH  21  22
ENDBRANCH   1  21
TORSDOF 5
