REMARK  Name = ZINC13063710
REMARK  15 active torsions:
REMARK  status: ('A' for Active; 'I' for Inactive)
REMARK    1  A    between atoms: C_1  and  C_2
REMARK    2  A    between atoms: C_2  and  C_3
REMARK    3  A    between atoms: C_10  and  C_15
REMARK    4  A    between atoms: C_15  and  N_65
REMARK    5  A    between atoms: C_16  and  C_17
REMARK    6  A    between atoms: C_16  and  N_65
REMARK    7  A    between atoms: C_22  and  C_24
REMARK    8  A    between atoms: C_22  and  C_26
REMARK    9  A    between atoms: C_22  and  N_65
REMARK   10  A    between atoms: C_24  and  C_25
REMARK   11  A    between atoms: N_30  and  C_31
REMARK   12  A    between atoms: C_31  and  C_32
REMARK   13  A    between atoms: C_32  and  O_34
REMARK   14  A    between atoms: O_34  and  C_35
REMARK   15  A    between atoms: C_35  and  C_36
REMARK                            x       y       z     vdW  Elec       q    Type
REMARK                         _______ _______ _______ _____ _____    ______ ____
ROOT
ATOM      1  N   UNL     1      -2.625   4.736   1.178  0.00  0.00    +0.394 N 
ATOM      2  H   UNL     1      -1.835   5.293   1.523  0.00  0.00    -0.080 HD
ENDROOT
BRANCH   1   3
ATOM      3  C   UNL     1      -2.458   4.514  -0.274  0.00  0.00    -0.036 C 
BRANCH   3  11
ATOM      4  C   UNL     1       2.463   0.893  -1.257  0.00  0.00    -0.047 A 
ATOM      5  C   UNL     1       3.386   1.920  -1.399  0.00  0.00    +0.005 A 
ATOM      6  C   UNL     1       2.994   3.237  -1.295  0.00  0.00    +0.026 A 
ATOM      7  C   UNL     1       1.661   3.543  -1.046  0.00  0.00    +0.049 A 
ATOM      8  C   UNL     1       0.728   2.499  -0.901  0.00  0.00    -0.001 A 
ATOM      9  C   UNL     1       1.148   1.169  -1.011  0.00  0.00    +0.013 A 
ATOM     10  C   UNL     1      -0.673   2.831  -0.632  0.00  0.00    +0.017 A 
ATOM     11  C   UNL     1      -1.023   4.138  -0.543  0.00  0.00    +0.001 A 
ATOM     12  C   UNL     1      -0.049   5.147  -0.696  0.00  0.00    +0.251 A 
ATOM     13  O   UNL     1      -0.384   6.315  -0.607  0.00  0.00    -0.268 OA
ATOM     14  N   UNL     1       1.241   4.852  -0.938  0.00  0.00    -0.322 N 
ATOM     15  H   UNL     1       1.885   5.570  -1.037  0.00  0.00    +0.169 HD
BRANCH   4  17
ATOM     16  C   UNL     1       2.811  -0.990  -2.833  0.00  0.00    +0.009 C 
ATOM     17  C   UNL     1       2.916  -0.540  -1.374  0.00  0.00    +0.032 C 
ENDBRANCH   4  17
ENDBRANCH   3  11
ENDBRANCH   1   3
BRANCH   1  18
ATOM     18  C   UNL     1      -2.645   3.440   1.888  0.00  0.00    -0.002 C 
BRANCH  18  19
ATOM     19  C   UNL     1      -2.430   3.690   3.358  0.00  0.00    +0.089 A 
ATOM     20  C   UNL     1      -3.398   3.857   4.277  0.00  0.00    +0.042 A 
ATOM     21  C   UNL     1      -2.753   4.064   5.518  0.00  0.00    +0.041 A 
ATOM     22  C   UNL     1      -1.430   4.012   5.283  0.00  0.00    +0.195 A 
ATOM     23  O   UNL     1      -1.240   3.780   3.974  0.00  0.00    -0.470 OA
ENDBRANCH  18  19
ENDBRANCH   1  18
BRANCH   1  24
ATOM     24  C   UNL     1      -3.881   5.472   1.434  0.00  0.00    +0.003 C 
BRANCH  24  25
ATOM     25  C   UNL     1      -5.043   4.781   0.770  0.00  0.00    +0.139 A 
ATOM     26  N   UNL     1      -5.065   4.273  -0.438  0.00  0.00    -0.115 NA
ATOM     27  N   UNL     1      -6.235   3.771  -0.637  0.00  0.00    -0.023 NA
ATOM     28  N   UNL     1      -6.960   3.947   0.412  0.00  0.00    -0.043 NA
ATOM     29  N   UNL     1      -6.259   4.561   1.304  0.00  0.00    -0.220 N 
BRANCH  29  30
ATOM     30  C   UNL     1      -6.704   4.950   2.644  0.00  0.00    +0.267 C 
BRANCH  30  31
ATOM     31  C   UNL     1      -7.404   6.282   2.575  0.00  0.00    +0.329 C 
ATOM     32  O   UNL     1      -7.519   6.850   1.514  0.00  0.00    -0.249 OA
BRANCH  31  33
ATOM     33  O   UNL     1      -7.899   6.840   3.691  0.00  0.00    -0.464 OA
BRANCH  33  34
ATOM     34  C   UNL     1      -8.561   8.124   3.549  0.00  0.00    +0.229 C 
ATOM     35  C   UNL     1      -9.056   8.597   4.918  0.00  0.00    +0.048 C 
ENDBRANCH  33  34
ENDBRANCH  31  33
ENDBRANCH  30  31
ENDBRANCH  29  30
ENDBRANCH  24  25
BRANCH  24  36
ATOM     36  C   UNL     1      -3.744   6.890   0.877  0.00  0.00    -0.011 C 
ATOM     37  C   UNL     1      -2.655   7.638   1.648  0.00  0.00    +0.002 C 
ENDBRANCH  24  36
ENDBRANCH   1  24
TORSDOF 12
