REMARK  Name = ZINC14544767
REMARK  2 active torsions:
REMARK  status: ('A' for Active; 'I' for Inactive)
REMARK    1  A    between atoms: C_7  and  C_11
REMARK    2  A    between atoms: C_24  and  N_27
REMARK                            x       y       z     vdW  Elec       q    Type
REMARK                         _______ _______ _______ _____ _____    ______ ____
ROOT
ATOM      1  C   UNL     1       2.076  -1.563  -0.302  0.00  0.00    +0.107 C 
ATOM      2  C   UNL     1       1.349  -0.287  -0.674  0.00  0.00    +0.029 C 
ATOM      3  C   UNL     1       0.002  -0.004   0.002  0.00  0.00    +0.033 C 
ATOM      4  C   UNL     1      -0.019   1.527   0.010  0.00  0.00    -0.030 C 
ATOM      5  C   UNL     1       1.224   1.996   0.001  0.00  0.00    -0.023 C 
ATOM      6  C   UNL     1       2.162   0.848   0.023  0.00  0.00    +0.049 C 
ATOM      7  C   UNL     1       3.487   0.885  -0.633  0.00  0.00    -0.017 A 
ATOM      8  C   UNL     1       4.193   2.062  -0.776  0.00  0.00    +0.006 A 
ATOM      9  C   UNL     1       5.446   2.062  -1.358  0.00  0.00    +0.003 A 
ATOM     10  C   UNL     1       5.995   0.871  -1.800  0.00  0.00    +0.034 A 
ATOM     11  C   UNL     1       5.293  -0.306  -1.669  0.00  0.00    +0.147 A 
ATOM     12  C   UNL     1       4.023  -0.322  -1.090  0.00  0.00    +0.062 A 
ATOM     13  N   UNL     1       3.366  -1.548  -1.009  0.00  0.00    -0.335 N 
ATOM     14  H   UNL     1       3.981  -2.264  -0.655  0.00  0.00    +0.147 HD
ENDROOT
BRANCH   1  21
ATOM     15  C   UNL     1      -1.623  -3.766   1.553  0.00  0.00    +0.001 A 
ATOM     16  C   UNL     1      -2.045  -4.848   0.793  0.00  0.00    +0.002 A 
ATOM     17  C   UNL     1      -1.396  -5.182  -0.376  0.00  0.00    +0.026 A 
ATOM     18  C   UNL     1      -0.306  -4.428  -0.800  0.00  0.00    +0.047 A 
ATOM     19  C   UNL     1       0.118  -3.333  -0.026  0.00  0.00    +0.005 A 
ATOM     20  C   UNL     1      -0.554  -3.013   1.155  0.00  0.00    +0.010 A 
ATOM     21  C   UNL     1       1.267  -2.759  -0.731  0.00  0.00    -0.002 A 
ATOM     22  C   UNL     1       1.458  -3.498  -1.835  0.00  0.00    +0.089 A 
ATOM     23  N   UNL     1       0.531  -4.503  -1.891  0.00  0.00    -0.360 N 
ATOM     24  H   UNL     1       0.471  -5.167  -2.595  0.00  0.00    +0.165 HD
ENDBRANCH   1  21
BRANCH  11  25
ATOM     25  N   UNL     1       5.894  -1.571  -2.148  0.00  0.00    +0.058 N 
ATOM     26  O   UNL     1       7.002  -1.567  -2.654  0.00  0.00    -0.126 OA
ATOM     27  O   UNL     1       5.280  -2.618  -2.036  0.00  0.00    -0.126 OA
ENDBRANCH  11  25
TORSDOF 2
