REMARK  Name = ZINC04691337
REMARK  8 active torsions:
REMARK  status: ('A' for Active; 'I' for Inactive)
REMARK    1  A    between atoms: C_1  and  C_2
REMARK    2  A    between atoms: C_6  and  C_8
REMARK    3  A    between atoms: C_11  and  S_24
REMARK    4  A    between atoms: N_12  and  N_13
REMARK    5  A    between atoms: C_14  and  C_15
REMARK    6  A    between atoms: C_17  and  C_23
REMARK    7  A    between atoms: C_18  and  O_22
REMARK    8  A    between atoms: C_19  and  C_21
REMARK                            x       y       z     vdW  Elec       q    Type
REMARK                         _______ _______ _______ _____ _____    ______ ____
ROOT
ATOM      1  C   UNL     1       1.172   3.564   0.009  0.00  0.00    +0.186 A 
ATOM      2  N   UNL     1       2.185   4.355  -0.264  0.00  0.00    -0.126 NA
ATOM      3  N   UNL     1       1.822   5.584  -0.166  0.00  0.00    -0.121 NA
ATOM      4  C   UNL     1       0.557   5.656   0.186  0.00  0.00    +0.209 A 
ATOM      5  N   UNL     1       0.098   4.373   0.310  0.00  0.00    -0.187 N 
ENDROOT
BRANCH   1  11
ATOM      6  C   UNL     1       3.710  -0.731  -0.038  0.00  0.00    +0.044 C 
ATOM      7  C   UNL     1       2.402   0.016  -0.021  0.00  0.00    -0.050 A 
ATOM      8  C   UNL     1       1.208  -0.682  -0.014  0.00  0.00    +0.003 A 
ATOM      9  C   UNL     1       0.002  -0.004   0.002  0.00  0.00    +0.001 A 
ATOM     10  C   UNL     1      -0.017   1.375   0.010  0.00  0.00    +0.011 A 
ATOM     11  C   UNL     1       1.184   2.087   0.002  0.00  0.00    +0.021 A 
ATOM     12  C   UNL     1       2.398   1.396  -0.014  0.00  0.00    +0.015 A 
ENDBRANCH   1  11
BRANCH   5  13
ATOM     13  N   UNL     1      -1.194   3.967   0.668  0.00  0.00    -0.170 NA
ATOM     14  C   UNL     1      -1.492   3.775   1.917  0.00  0.00    +0.141 C 
BRANCH  14  15
ATOM     15  C   UNL     1      -2.852   3.348   2.293  0.00  0.00    -0.005 A 
ATOM     16  C   UNL     1      -3.823   3.154   1.308  0.00  0.00    +0.016 A 
ATOM     17  C   UNL     1      -5.091   2.749   1.664  0.00  0.00    -0.008 A 
ATOM     18  C   UNL     1      -5.408   2.545   3.001  0.00  0.00    +0.123 A 
ATOM     19  C   UNL     1      -4.447   2.742   3.984  0.00  0.00    -0.008 A 
ATOM     20  C   UNL     1      -3.175   3.141   3.637  0.00  0.00    +0.016 A 
ATOM     21  C   UNL     1      -4.796   2.519   5.433  0.00  0.00    +0.047 C 
ATOM     22  C   UNL     1      -6.138   2.534   0.601  0.00  0.00    +0.047 C 
BRANCH  18  23
ATOM     23  O   UNL     1      -6.661   2.151   3.347  0.00  0.00    -0.506 OA
ATOM     24  H   UNL     1      -7.269   2.882   3.519  0.00  0.00    +0.292 HD
ENDBRANCH  18  23
ENDBRANCH  14  15
ENDBRANCH   5  13
BRANCH   4  25
ATOM     25  S   UNL     1      -0.373   7.130   0.449  0.00  0.00    -0.102 S 
ATOM     26  H   UNL     1      -0.129   7.330   1.824  0.00  0.00    +0.110 HD
ENDBRANCH   4  25
TORSDOF 5
