REMARK  Name = ZINC39467063
REMARK  5 active torsions:
REMARK  status: ('A' for Active; 'I' for Inactive)
REMARK    1  A    between atoms: C_4  and  C_7
REMARK    2  A    between atoms: C_7  and  C_8
REMARK    3  A    between atoms: P_17  and  C_27
REMARK    4  A    between atoms: C_25  and  O_26
REMARK    5  A    between atoms: C_32  and  O_33
REMARK                            x       y       z     vdW  Elec       q    Type
REMARK                         _______ _______ _______ _____ _____    ______ ____
ROOT
ATOM      1  C   UNL     1       4.164  -0.959   1.377  0.00  0.00    -0.006 C 
ATOM      2  C   UNL     1       3.894  -2.119   1.971  0.00  0.00    -0.016 C 
ATOM      3  C   UNL     1       4.345  -2.349   3.389  0.00  0.00    +0.016 C 
ATOM      4  C   UNL     1       3.494  -3.425   4.052  0.00  0.00    -0.003 C 
ATOM      5  C   UNL     1       2.039  -2.961   4.186  0.00  0.00    -0.020 C 
ATOM      6  C   UNL     1       1.269  -4.089   4.885  0.00  0.00    +0.157 C 
ATOM      7  O   UNL     1      -0.120  -3.727   4.995  0.00  0.00    -0.316 OA
ATOM      8  P   UNL     1      -0.472  -2.266   5.619  0.00  0.00    +0.291 P 
ATOM      9  O   UNL     1      -0.398  -2.307   7.096  0.00  0.00    -0.269 OA
ATOM     10  N   UNL     1       0.679  -1.250   5.016  0.00  0.00    -0.288 NA
ATOM     11  N   UNL     1       1.976  -1.715   4.955  0.00  0.00    +0.398 N 
ATOM     12  C   UNL     1       2.752  -0.660   4.284  0.00  0.00    -0.046 C 
ATOM     13  C   UNL     1       4.210  -1.049   4.186  0.00  0.00    +0.008 C 
ATOM     14  C   UNL     1       4.939   0.051   3.450  0.00  0.00    +0.021 C 
ATOM     15  C   UNL     1       4.917   0.075   2.113  0.00  0.00    +0.116 C 
ATOM     16  H   UNL     1       0.451  -0.356   4.717  0.00  0.00    +0.111 HD
ATOM     17  H   UNL     1       2.329  -1.873   5.887  0.00  0.00    -0.055 HD
ENDROOT
BRANCH   8  18
ATOM     18  C   UNL     1      -2.124  -1.737   5.087  0.00  0.00    +0.091 A 
ATOM     19  C   UNL     1      -2.276  -1.015   3.920  0.00  0.00    +0.018 A 
ATOM     20  C   UNL     1      -3.535  -0.611   3.514  0.00  0.00    +0.001 A 
ATOM     21  C   UNL     1      -4.644  -0.929   4.276  0.00  0.00    +0.004 A 
ATOM     22  C   UNL     1      -4.498  -1.652   5.444  0.00  0.00    +0.046 A 
ATOM     23  C   UNL     1      -3.236  -2.063   5.850  0.00  0.00    +0.131 A 
BRANCH  23  24
ATOM     24  O   UNL     1      -3.090  -2.779   6.996  0.00  0.00    -0.506 OA
ATOM     25  H   UNL     1      -2.954  -2.236   7.784  0.00  0.00    +0.292 HD
ENDBRANCH  23  24
ENDBRANCH   8  18
BRANCH  15  26
ATOM     26  O   UNL     1       5.579   1.049   1.435  0.00  0.00    -0.507 OA
ATOM     27  H   UNL     1       6.042   1.679   2.004  0.00  0.00    +0.292 HD
ENDBRANCH  15  26
BRANCH   1  28
ATOM     28  C   UNL     1       3.711  -0.707  -0.038  0.00  0.00    +0.073 C 
BRANCH  28  32
ATOM     29  C   UNL     1      -0.017   1.378   0.010  0.00  0.00    +0.000 A 
ATOM     30  C   UNL     1       1.171   2.086   0.002  0.00  0.00    +0.000 A 
ATOM     31  C   UNL     1       2.377   1.411  -0.013  0.00  0.00    +0.004 A 
ATOM     32  C   UNL     1       2.396   0.029  -0.020  0.00  0.00    -0.043 A 
ATOM     33  C   UNL     1       1.208  -0.679  -0.012  0.00  0.00    +0.004 A 
ATOM     34  C   UNL     1       0.002  -0.004   0.002  0.00  0.00    +0.000 A 
ENDBRANCH  28  32
ENDBRANCH   1  28
TORSDOF 5
