REMARK  Name = ZINC16294886
REMARK  6 active torsions:
REMARK  status: ('A' for Active; 'I' for Inactive)
REMARK    1  A    between atoms: C_4  and  N_7
REMARK    2  A    between atoms: C_8  and  S_12
REMARK    3  A    between atoms: S_12  and  C_13
REMARK    4  A    between atoms: C_13  and  C_14
REMARK    5  A    between atoms: N_16  and  C_17
REMARK    6  A    between atoms: C_18  and  C_25
REMARK                            x       y       z     vdW  Elec       q    Type
REMARK                         _______ _______ _______ _____ _____    ______ ____
ROOT
ATOM      1  C   UNL     1       7.085  -3.386  -0.873  0.00  0.00    +0.228 C 
ATOM      2  O   UNL     1       6.820  -3.204   0.297  0.00  0.00    -0.275 OA
ATOM      3  N   UNL     1       8.156  -4.128  -1.214  0.00  0.00    -0.279 N 
ATOM      4  H   UNL     1       8.368  -4.273  -2.150  0.00  0.00    +0.155 HD
ENDROOT
BRANCH   3   5
ATOM      5  C   UNL     1       8.957  -4.684  -0.228  0.00  0.00    +0.084 A 
ATOM      6  C   UNL     1      10.089  -5.462  -0.390  0.00  0.00    +0.068 A 
ATOM      7  C   UNL     1      10.759  -5.929   0.822  0.00  0.00    -0.023 A 
ATOM      8  C   UNL     1      10.169  -5.532   1.964  0.00  0.00    -0.004 A 
ATOM      9  S   UNL     1       8.779  -4.563   1.435  0.00  0.00    -0.077 S 
ATOM     10  C   UNL     1      10.895  -6.043   3.178  0.00  0.00    +0.043 C 
ATOM     11  C   UNL     1      11.792  -7.183   2.646  0.00  0.00    +0.010 C 
ATOM     12  C   UNL     1      11.985  -6.770   1.173  0.00  0.00    +0.037 C 
BRANCH   6  13
ATOM     13  C   UNL     1      10.596  -5.803  -1.723  0.00  0.00    +0.244 C 
ATOM     14  O   UNL     1      11.403  -5.077  -2.271  0.00  0.00    -0.270 OA
ATOM     15  N   UNL     1      10.167  -6.922  -2.340  0.00  0.00    -0.325 N 
ATOM     16  H   UNL     1       9.523  -7.501  -1.903  0.00  0.00    +0.145 HD
ATOM     17  H   UNL     1      10.502  -7.148  -3.222  0.00  0.00    +0.145 HD
ENDBRANCH   6  13
ENDBRANCH   3   5
BRANCH   1  18
ATOM     18  C   UNL     1       6.215  -2.781  -1.945  0.00  0.00    +0.173 C 
BRANCH  18  19
ATOM     19  S   UNL     1       4.865  -1.847  -1.172  0.00  0.00    -0.075 S 
BRANCH  19  21
ATOM     20  N   UNL     1       2.839  -0.440  -2.473  0.00  0.00    -0.217 N 
ATOM     21  C   UNL     1       3.951  -1.211  -2.538  0.00  0.00    +0.210 A 
ATOM     22  N   UNL     1       4.220  -1.394  -3.812  0.00  0.00    -0.101 NA
ATOM     23  N   UNL     1       3.355  -0.793  -4.546  0.00  0.00    -0.022 NA
ATOM     24  N   UNL     1       2.481  -0.196  -3.810  0.00  0.00    -0.043 NA
BRANCH  20  28
ATOM     25  C   UNL     1      -0.019   1.526   0.010  0.00  0.00    +0.000 C 
ATOM     26  C   UNL     1       1.417   2.055  -0.000  0.00  0.00    +0.002 C 
ATOM     27  C   UNL     1       2.133   1.562  -1.259  0.00  0.00    +0.027 C 
ATOM     28  C   UNL     1       2.154   0.032  -1.268  0.00  0.00    +0.112 C 
ATOM     29  C   UNL     1       0.718  -0.497  -1.257  0.00  0.00    +0.027 C 
ATOM     30  C   UNL     1       0.002  -0.004   0.002  0.00  0.00    +0.002 C 
ENDBRANCH  20  28
ENDBRANCH  19  21
ENDBRANCH  18  19
ENDBRANCH   1  18
TORSDOF 6
