REMARK  Name = ZINC66513237
REMARK  8 active torsions:
REMARK  status: ('A' for Active; 'I' for Inactive)
REMARK    1  A    between atoms: C_1  and  C_2
REMARK    2  A    between atoms: C_2  and  C_3
REMARK    3  A    between atoms: C_3  and  C_4
REMARK    4  A    between atoms: C_4  and  N_5
REMARK    5  A    between atoms: C_11  and  N_14
REMARK    6  A    between atoms: C_15  and  C_17
REMARK    7  A    between atoms: C_17  and  C_19
REMARK    8  A    between atoms: C_17  and  N_20
REMARK                            x       y       z     vdW  Elec       q    Type
REMARK                         _______ _______ _______ _____ _____    ______ ____
ROOT
ATOM      1  N   UNL     1       2.387  -6.645  -3.786  0.00  0.00    -0.284 N 
ATOM      2  C   UNL     1       2.640  -7.829  -4.379  0.00  0.00    +0.238 C 
ATOM      3  O   UNL     1       2.450  -7.964  -5.569  0.00  0.00    -0.273 OA
ATOM      4  H   UNL     1       2.614  -6.512  -2.853  0.00  0.00    +0.155 HD
ENDROOT
BRANCH   1  11
ATOM      5  N   UNL     1       2.953  -2.251  -3.351  0.00  0.00    +0.385 N 
ATOM      6  C   UNL     1       1.788  -1.951  -4.213  0.00  0.00    -0.042 C 
ATOM      7  C   UNL     1       1.408  -3.265  -4.858  0.00  0.00    -0.061 A 
ATOM      8  C   UNL     1       0.632  -3.557  -5.964  0.00  0.00    +0.002 A 
ATOM      9  C   UNL     1       0.438  -4.871  -6.349  0.00  0.00    +0.002 A 
ATOM     10  C   UNL     1       1.018  -5.897  -5.630  0.00  0.00    +0.023 A 
ATOM     11  C   UNL     1       1.798  -5.608  -4.518  0.00  0.00    +0.035 A 
ATOM     12  C   UNL     1       1.992  -4.288  -4.133  0.00  0.00    -0.041 A 
ATOM     13  C   UNL     1       2.772  -3.676  -2.992  0.00  0.00    -0.040 C 
ATOM     14  H   UNL     1       3.815  -2.121  -3.860  0.00  0.00    -0.081 HD
BRANCH   5  15
ATOM     15  C   UNL     1       2.934  -1.409  -2.147  0.00  0.00    -0.078 C 
BRANCH  15  16
ATOM     16  C   UNL     1       3.247   0.038  -2.531  0.00  0.00    -0.019 C 
BRANCH  16  18
ATOM     17  C   UNL     1       3.539   2.362  -1.662  0.00  0.00    +0.004 C 
ATOM     18  C   UNL     1       3.226   0.914  -1.278  0.00  0.00    -0.005 C 
ENDBRANCH  16  18
ENDBRANCH  15  16
ENDBRANCH   5  15
ENDBRANCH   1  11
BRANCH   2  19
ATOM     19  C   UNL     1       3.158  -8.985  -3.563  0.00  0.00    +0.168 C 
ATOM     20  C   UNL     1       2.148  -9.328  -2.466  0.00  0.00    +0.038 C 
BRANCH  19  21
ATOM     21  N   UNL     1       3.350 -10.149  -4.431  0.00  0.00    -0.212 N 
ATOM     22  C   UNL     1       4.534 -10.770  -4.617  0.00  0.00    +0.247 C 
ATOM     23  O   UNL     1       5.601 -10.485  -4.117  0.00  0.00    -0.273 OA
ATOM     24  C   UNL     1       4.247 -11.896  -5.578  0.00  0.00    +0.113 C 
ATOM     25  C   UNL     1       5.075 -11.749  -6.861  0.00  0.00    +0.035 C 
ATOM     26  C   UNL     1       6.274 -12.709  -6.645  0.00  0.00    +0.003 C 
ATOM     27  C   UNL     1       5.627 -13.906  -5.902  0.00  0.00    +0.003 C 
ATOM     28  C   UNL     1       4.591 -13.254  -4.961  0.00  0.00    +0.035 C 
ATOM     29  N   UNL     1       2.814 -11.782  -5.857  0.00  0.00    -0.285 N 
ATOM     30  C   UNL     1       2.372 -10.732  -5.136  0.00  0.00    +0.310 C 
ATOM     31  O   UNL     1       1.216 -10.355  -5.129  0.00  0.00    -0.252 OA
ATOM     32  H   UNL     1       2.288 -12.351  -6.440  0.00  0.00    +0.151 HD
ENDBRANCH  19  21
ENDBRANCH   2  19
TORSDOF 6
