REMARK  Name = ZINC00168169
REMARK  3 active torsions:
REMARK  status: ('A' for Active; 'I' for Inactive)
REMARK    1  A    between atoms: C_5  and  N_7
REMARK    2  A    between atoms: N_7  and  S_8
REMARK    3  A    between atoms: S_8  and  C_11
REMARK                            x       y       z     vdW  Elec       q    Type
REMARK                         _______ _______ _______ _____ _____    ______ ____
ROOT
ATOM      1  N   UNL     1       1.158  -2.092  -0.019  0.00  0.00    -0.214 N 
ATOM      2  H   UNL     1       1.809  -2.576   0.514  0.00  0.00    +0.174 HD
ENDROOT
BRANCH   1   7
ATOM      3  C   UNL     1       0.260   1.448  -0.421  0.00  0.00    +0.004 A 
ATOM      4  C   UNL     1       1.457   2.074  -0.527  0.00  0.00    +0.031 A 
ATOM      5  C   UNL     1       2.662   1.325  -0.469  0.00  0.00    +0.102 A 
ATOM      6  C   UNL     1       2.574  -0.121  -0.293  0.00  0.00    +0.122 A 
ATOM      7  C   UNL     1       1.282  -0.715  -0.188  0.00  0.00    +0.076 A 
ATOM      8  C   UNL     1       0.170   0.068  -0.253  0.00  0.00    +0.027 A 
ATOM      9  N   UNL     1       3.774  -0.695  -0.255  0.00  0.00    -0.189 NA
ATOM     10  S   UNL     1       4.818   0.462  -0.421  0.00  0.00    +0.117 S 
ATOM     11  N   UNL     1       3.923   1.742  -0.552  0.00  0.00    -0.191 NA
ENDBRANCH   1   7
BRANCH   1  12
ATOM     12  S   UNL     1      -0.099  -2.904  -0.728  0.00  0.00    +0.079 S 
ATOM     13  O   UNL     1       0.126  -4.287  -0.493  0.00  0.00    -0.149 OA
ATOM     14  O   UNL     1      -1.290  -2.246  -0.318  0.00  0.00    -0.149 OA
BRANCH  12  15
ATOM     15  C   UNL     1       0.037  -2.659  -2.467  0.00  0.00    +0.147 A 
ATOM     16  C   UNL     1       0.702  -3.404  -3.384  0.00  0.00    +0.038 A 
ATOM     17  C   UNL     1       0.671  -3.018  -4.711  0.00  0.00    +0.030 A 
ATOM     18  C   UNL     1      -0.024  -1.905  -5.056  0.00  0.00    +0.080 A 
ATOM     19  S   UNL     1      -0.670  -1.371  -3.480  0.00  0.00    -0.057 S 
ATOM     20 CL   UNL     1      -0.237  -1.192  -6.624  0.00  0.00    -0.076 Cl
ENDBRANCH  12  15
ENDBRANCH   1  12
TORSDOF 3
