REMARK  Name = ZINC00716321
REMARK  10 active torsions:
REMARK  status: ('A' for Active; 'I' for Inactive)
REMARK    1  A    between atoms: C_1  and  C_2
REMARK    2  A    between atoms: C_2  and  C_3
REMARK    3  A    between atoms: C_3  and  C_5
REMARK    4  A    between atoms: C_3  and  O_6
REMARK    5  A    between atoms: O_6  and  C_7
REMARK    6  A    between atoms: C_7  and  C_9
REMARK    7  A    between atoms: C_10  and  C_30
REMARK    8  A    between atoms: C_15  and  C_17
REMARK    9  A    between atoms: C_21  and  O_23
REMARK   10  A    between atoms: O_23  and  C_24
REMARK                            x       y       z     vdW  Elec       q    Type
REMARK                         _______ _______ _______ _____ _____    ______ ____
ROOT
ATOM      1  C   UNL     1       3.110   0.621   0.342  0.00  0.00    +0.078 C 
ATOM      2  C   UNL     1       3.811  -0.143   1.207  0.00  0.00    +0.021 C 
ATOM      3  N   UNL     1       5.005   0.283   1.716  0.00  0.00    -0.273 N 
ATOM      4  C   UNL     1       5.564   1.461   1.411  0.00  0.00    +0.304 C 
ATOM      5  O   UNL     1       6.631   1.754   1.915  0.00  0.00    -0.252 OA
ATOM      6  N   UNL     1       4.984   2.332   0.562  0.00  0.00    -0.288 N 
ATOM      7  C   UNL     1       3.695   1.963  -0.048  0.00  0.00    +0.144 C 
ATOM      8  C   UNL     1       3.268  -1.487   1.617  0.00  0.00    +0.061 C 
ATOM      9  H   UNL     1       5.473  -0.299   2.334  0.00  0.00    +0.156 HD
ATOM     10  H   UNL     1       5.407   3.180   0.355  0.00  0.00    +0.151 HD
ENDROOT
BRANCH   7  11
ATOM     11  C   UNL     1       2.694   3.030   0.314  0.00  0.00    -0.019 A 
ATOM     12  C   UNL     1       2.595   3.470   1.621  0.00  0.00    +0.006 A 
ATOM     13  C   UNL     1       1.677   4.448   1.957  0.00  0.00    +0.004 A 
ATOM     14  C   UNL     1       0.856   4.988   0.986  0.00  0.00    +0.046 A 
ATOM     15  C   UNL     1       0.953   4.548  -0.326  0.00  0.00    +0.129 A 
ATOM     16  C   UNL     1       1.879   3.571  -0.661  0.00  0.00    +0.052 A 
BRANCH  15  17
ATOM     17  O   UNL     1       0.146   5.078  -1.283  0.00  0.00    -0.456 OA
BRANCH  17  18
ATOM     18  C   UNL     1      -0.665   6.111  -0.933  0.00  0.00    +0.128 A 
ATOM     19  C   UNL     1      -2.010   5.884  -0.684  0.00  0.00    +0.046 A 
ATOM     20  C   UNL     1      -2.832   6.935  -0.322  0.00  0.00    +0.004 A 
ATOM     21  C   UNL     1      -2.316   8.214  -0.221  0.00  0.00    +0.000 A 
ATOM     22  C   UNL     1      -0.976   8.443  -0.475  0.00  0.00    +0.004 A 
ATOM     23  C   UNL     1      -0.149   7.395  -0.831  0.00  0.00    +0.046 A 
ENDBRANCH  17  18
ENDBRANCH  15  17
ENDBRANCH   7  11
BRANCH   1  24
ATOM     24  C   UNL     1       1.875   0.181  -0.187  0.00  0.00    +0.339 C 
ATOM     25  O   UNL     1       1.489  -0.953   0.031  0.00  0.00    -0.245 OA
BRANCH  24  26
ATOM     26  O   UNL     1       1.123   1.017  -0.933  0.00  0.00    -0.458 OA
BRANCH  26  27
ATOM     27  C   UNL     1      -0.113   0.506  -1.435  0.00  0.00    +0.173 C 
ATOM     28  C   UNL     1      -1.227   0.781  -0.423  0.00  0.00    +0.052 C 
BRANCH  27  30
ATOM     29  C   UNL     1       0.601   0.815  -3.809  0.00  0.00    +0.007 C 
ATOM     30  C   UNL     1      -0.448   1.192  -2.761  0.00  0.00    +0.041 C 
ENDBRANCH  27  30
ENDBRANCH  26  27
ENDBRANCH  24  26
ENDBRANCH   1  24
TORSDOF 7
