REMARK  Name = ZINC63772687
REMARK  12 active torsions:
REMARK  status: ('A' for Active; 'I' for Inactive)
REMARK    1  A    between atoms: C_1  and  O_2
REMARK    2  A    between atoms: O_2  and  C_3
REMARK    3  A    between atoms: C_8  and  C_9
REMARK    4  A    between atoms: C_9  and  N_10
REMARK    5  A    between atoms: C_11  and  C_13
REMARK    6  A    between atoms: C_13  and  O_14
REMARK    7  A    between atoms: O_14  and  C_15
REMARK    8  A    between atoms: C_15  and  C_17
REMARK    9  A    between atoms: C_17  and  C_19
REMARK   10  A    between atoms: C_17  and  N_29
REMARK   11  A    between atoms: C_19  and  C_20
REMARK   12  A    between atoms: C_30  and  C_32
REMARK                            x       y       z     vdW  Elec       q    Type
REMARK                         _______ _______ _______ _____ _____    ______ ____
ROOT
ATOM      1  C   UNL     1      -6.237  -5.497   2.488  0.00  0.00    +0.186 C 
ENDROOT
BRANCH   1   2
ATOM      2  N   UNL     1      -7.663  -5.163   2.526  0.00  0.00    -0.298 N 
ATOM      3  C   UNL     1      -8.428  -5.347   1.431  0.00  0.00    +0.251 C 
ATOM      4  O   UNL     1      -7.933  -5.789   0.411  0.00  0.00    -0.270 OA
ATOM      5  H   UNL     1      -8.057  -4.811   3.339  0.00  0.00    +0.150 HD
BRANCH   3   6
ATOM      6  C   UNL     1      -9.855  -5.013   1.469  0.00  0.00    +0.074 A 
ATOM      7  C   UNL     1     -10.806  -5.130   0.468  0.00  0.00    +0.021 A 
ATOM      8  C   UNL     1     -12.078  -4.732   0.804  0.00  0.00    +0.008 A 
ATOM      9  C   UNL     1     -12.314  -4.266   2.055  0.00  0.00    +0.046 A 
ATOM     10  S   UNL     1     -10.820  -4.359   2.818  0.00  0.00    -0.092 S 
ENDBRANCH   3   6
ENDBRANCH   1   2
BRANCH   1  11
ATOM     11  C   UNL     1      -5.557  -4.672   1.427  0.00  0.00    +0.328 C 
ATOM     12  O   UNL     1      -6.208  -4.169   0.542  0.00  0.00    -0.249 OA
BRANCH  11  13
ATOM     13  O   UNL     1      -4.226  -4.495   1.464  0.00  0.00    -0.454 OA
BRANCH  13  14
ATOM     14  C   UNL     1      -3.648  -3.701   0.426  0.00  0.00    +0.327 C 
BRANCH  14  16
ATOM     15  N   UNL     1      -1.398  -2.912  -0.233  0.00  0.00    -0.308 N 
ATOM     16  C   UNL     1      -2.158  -3.615   0.631  0.00  0.00    +0.251 C 
ATOM     17  O   UNL     1      -1.642  -4.178   1.573  0.00  0.00    -0.272 OA
ATOM     18  H   UNL     1      -1.811  -2.462  -0.986  0.00  0.00    +0.149 HD
BRANCH  15  19
ATOM     19  C   UNL     1       0.051  -2.828  -0.033  0.00  0.00    +0.143 C 
BRANCH  19  25
ATOM     20  C   UNL     1       0.606  -0.607  -1.056  0.00  0.00    +0.125 A 
ATOM     21  C   UNL     1       1.173   0.161  -2.063  0.00  0.00    +0.046 A 
ATOM     22  C   UNL     1       1.786  -0.455  -3.136  0.00  0.00    +0.004 A 
ATOM     23  C   UNL     1       1.836  -1.835  -3.208  0.00  0.00    +0.001 A 
ATOM     24  C   UNL     1       1.271  -2.602  -2.207  0.00  0.00    +0.009 A 
ATOM     25  C   UNL     1       0.661  -1.991  -1.128  0.00  0.00    +0.011 A 
BRANCH  20  27
ATOM     26  C   UNL     1      -0.017   1.425   0.010  0.00  0.00    +0.277 C 
ATOM     27  O   UNL     1       0.002  -0.004   0.002  0.00  0.00    -0.495 OA
ENDBRANCH  20  27
ENDBRANCH  19  25
ENDBRANCH  15  19
ENDBRANCH  14  16
ENDBRANCH  13  14
ENDBRANCH  11  13
ENDBRANCH   1  11
BRANCH   1  28
ATOM     28  C   UNL     1      -6.070  -6.983   2.164  0.00  0.00    +0.067 C 
BRANCH  28  29
ATOM     29  C   UNL     1      -6.642  -7.809   3.287  0.00  0.00    -0.039 C 
ATOM     30  C   UNL     1      -7.885  -8.340   3.354  0.00  0.00    -0.001 A 
ATOM     31  C   UNL     1      -9.031  -8.307   2.438  0.00  0.00    +0.010 A 
ATOM     32  C   UNL     1     -10.170  -8.947   2.788  0.00  0.00    +0.001 A 
ATOM     33  C   UNL     1     -10.283  -9.639   4.002  0.00  0.00    +0.002 A 
ATOM     34  C   UNL     1      -9.273  -9.713   4.896  0.00  0.00    +0.026 A 
ATOM     35  C   UNL     1      -8.029  -9.078   4.630  0.00  0.00    +0.043 A 
ATOM     36  N   UNL     1      -6.920  -9.006   5.324  0.00  0.00    -0.380 N 
ATOM     37  C   UNL     1      -5.942  -8.218   4.564  0.00  0.00    +0.144 C 
ATOM     38  H   UNL     1      -6.769  -9.409   6.193  0.00  0.00    +0.160 HD
ENDBRANCH  28  29
ENDBRANCH   1  28
TORSDOF 11
