REMARK  Name = ZINC13963089
REMARK  8 active torsions:
REMARK  status: ('A' for Active; 'I' for Inactive)
REMARK    1  A    between atoms: C_1  and  C_2
REMARK    2  A    between atoms: C_4  and  C_26
REMARK    3  A    between atoms: C_5  and  C_9
REMARK    4  A    between atoms: C_6  and  C_8
REMARK    5  A    between atoms: C_9  and  C_10
REMARK    6  A    between atoms: N_12  and  C_13
REMARK    7  A    between atoms: C_14  and  C_24
REMARK    8  A    between atoms: C_19  and  C_23
REMARK                            x       y       z     vdW  Elec       q    Type
REMARK                         _______ _______ _______ _____ _____    ______ ____
ROOT
ATOM      1  C   UNL     1       3.493   2.571  -0.017  0.00  0.00    +0.222 C 
ATOM      2  O   UNL     1       3.274   3.764  -0.009  0.00  0.00    -0.275 OA
ATOM      3  N   UNL     1       2.466   1.697  -0.012  0.00  0.00    -0.279 N 
ATOM      4  H   UNL     1       2.642   0.743  -0.018  0.00  0.00    +0.155 HD
ENDROOT
BRANCH   3   5
ATOM      5  C   UNL     1       1.159   2.163   0.003  0.00  0.00    +0.090 A 
ATOM      6  C   UNL     1      -0.017   1.428   0.010  0.00  0.00    +0.084 A 
ATOM      7  C   UNL     1      -1.270   2.164   0.020  0.00  0.00    -0.018 A 
ATOM      8  C   UNL     1      -1.146   3.509   0.031  0.00  0.00    -0.004 A 
ATOM      9  S   UNL     1       0.600   3.803   0.017  0.00  0.00    -0.077 S 
ATOM     10  C   UNL     1      -2.253   4.518   0.046  0.00  0.00    +0.046 C 
ATOM     11  C   UNL     1      -3.562   3.805  -0.323  0.00  0.00    -0.009 C 
ATOM     12  C   UNL     1      -3.677   2.524   0.509  0.00  0.00    +0.008 C 
ATOM     13  C   UNL     1      -2.642   1.502   0.037  0.00  0.00    +0.037 C 
ATOM     14  C   UNL     1      -4.748   4.723  -0.024  0.00  0.00    +0.008 C 
BRANCH   6  15
ATOM     15  C   UNL     1       0.002  -0.004   0.002  0.00  0.00    +0.102 C 
ATOM     16  N   UNL     1       0.018  -1.140  -0.004  0.00  0.00    -0.191 NA
ENDBRANCH   6  15
ENDBRANCH   3   5
BRANCH   1  17
ATOM     17  C   UNL     1       4.912   2.066  -0.033  0.00  0.00    +0.131 C 
BRANCH  17  22
ATOM     18  C   UNL     1       8.555   6.551  -0.044  0.00  0.00    +0.044 C 
ATOM     19  C   UNL     1       7.605   5.382  -0.041  0.00  0.00    -0.050 A 
ATOM     20  C   UNL     1       7.180   4.840   1.157  0.00  0.00    +0.007 A 
ATOM     21  C   UNL     1       6.309   3.766   1.160  0.00  0.00    -0.046 A 
ATOM     22  C   UNL     1       5.862   3.236  -0.036  0.00  0.00    -0.033 A 
ATOM     23  C   UNL     1       6.291   3.775  -1.234  0.00  0.00    -0.046 A 
ATOM     24  C   UNL     1       7.159   4.850  -1.237  0.00  0.00    +0.007 A 
ATOM     25  C   UNL     1       5.809   3.192  -2.538  0.00  0.00    +0.044 C 
ATOM     26  C   UNL     1       5.846   3.175   2.466  0.00  0.00    +0.044 C 
ENDBRANCH  17  22
ENDBRANCH   1  17
TORSDOF 4
