REMARK  Name = ZINC44012594
REMARK  9 active torsions:
REMARK  status: ('A' for Active; 'I' for Inactive)
REMARK    1  A    between atoms: C_1  and  C_2
REMARK    2  A    between atoms: C_2  and  C_4
REMARK    3  A    between atoms: C_2  and  N_13
REMARK    4  A    between atoms: N_16  and  C_17
REMARK    5  A    between atoms: C_21  and  N_23
REMARK    6  A    between atoms: C_24  and  C_26
REMARK    7  A    between atoms: C_26  and  C_27
REMARK    8  A    between atoms: C_26  and  C_28
REMARK    9  A    between atoms: C_26  and  C_29
REMARK                            x       y       z     vdW  Elec       q    Type
REMARK                         _______ _______ _______ _____ _____    ______ ____
ROOT
ATOM      1  N   UNL     1       0.629  -1.835   2.929  0.00  0.00    -0.290 N 
ATOM      2  C   UNL     1       1.971  -1.950   2.901  0.00  0.00    +0.304 C 
ATOM      3  O   UNL     1       2.512  -2.887   3.456  0.00  0.00    -0.252 OA
ATOM      4  N   UNL     1       2.714  -1.027   2.260  0.00  0.00    -0.269 N 
ATOM      5  H   UNL     1       0.197  -1.087   2.487  0.00  0.00    +0.151 HD
ATOM      6  H   UNL     1       2.281  -0.321   1.755  0.00  0.00    +0.156 HD
ENDROOT
BRANCH   4   7
ATOM      7  C   UNL     1       4.111  -1.086   2.322  0.00  0.00    +0.037 A 
ATOM      8  C   UNL     1       4.873  -0.673   1.236  0.00  0.00    +0.023 A 
ATOM      9  C   UNL     1       6.252  -0.731   1.296  0.00  0.00    +0.004 A 
ATOM     10  C   UNL     1       6.878  -1.201   2.436  0.00  0.00    +0.023 A 
ATOM     11  C   UNL     1       6.121  -1.615   3.524  0.00  0.00    +0.035 A 
ATOM     12  C   UNL     1       4.736  -1.552   3.469  0.00  0.00    +0.046 A 
BRANCH  11  13
ATOM     13  N   UNL     1       6.755  -2.091   4.677  0.00  0.00    -0.285 N 
ATOM     14  C   UNL     1       7.922  -1.548   5.077  0.00  0.00    +0.223 C 
ATOM     15  O   UNL     1       8.465  -0.706   4.394  0.00  0.00    -0.275 OA
ATOM     16  H   UNL     1       6.355  -2.811   5.189  0.00  0.00    +0.155 HD
BRANCH  14  17
ATOM     17  C   UNL     1       8.552  -1.987   6.374  0.00  0.00    +0.039 C 
ATOM     18  C   UNL     1       9.859  -1.222   6.591  0.00  0.00    +0.020 C 
ATOM     19  C   UNL     1       7.593  -1.697   7.531  0.00  0.00    +0.020 C 
ATOM     20  C   UNL     1       8.843  -3.488   6.317  0.00  0.00    +0.020 C 
ENDBRANCH  14  17
ENDBRANCH  11  13
ENDBRANCH   4   7
BRANCH   1  22
ATOM     21  C   UNL     1      -0.446  -4.019   2.690  0.00  0.00    +0.036 C 
ATOM     22  C   UNL     1      -0.179  -2.838   3.627  0.00  0.00    +0.137 C 
BRANCH  22  23
ATOM     23  C   UNL     1      -1.489  -2.225   4.048  0.00  0.00    +0.126 A 
ATOM     24  C   UNL     1      -2.098  -2.446   5.221  0.00  0.00    +0.055 A 
ATOM     25  C   UNL     1      -3.331  -1.651   5.198  0.00  0.00    +0.020 A 
ATOM     26  C   UNL     1      -4.379  -1.451   6.096  0.00  0.00    +0.011 A 
ATOM     27  C   UNL     1      -5.411  -0.620   5.758  0.00  0.00    +0.001 A 
ATOM     28  C   UNL     1      -5.422   0.024   4.530  0.00  0.00    +0.004 A 
ATOM     29  C   UNL     1      -4.395  -0.161   3.629  0.00  0.00    +0.047 A 
ATOM     30  C   UNL     1      -3.336  -1.001   3.952  0.00  0.00    +0.135 A 
ATOM     31  O   UNL     1      -2.213  -1.371   3.304  0.00  0.00    -0.458 OA
ENDBRANCH  22  23
ENDBRANCH   1  22
TORSDOF 5
