REMARK  Name = ZINC21800993
REMARK  10 active torsions:
REMARK  status: ('A' for Active; 'I' for Inactive)
REMARK    1  A    between atoms: C_1  and  C_2
REMARK    2  A    between atoms: C_5  and  N_9
REMARK    3  A    between atoms: N_12  and  C_13
REMARK    4  A    between atoms: C_18  and  S_19
REMARK    5  A    between atoms: S_19  and  C_20
REMARK    6  A    between atoms: C_20  and  C_21
REMARK    7  A    between atoms: N_30  and  C_31
REMARK    8  A    between atoms: C_31  and  C_32
REMARK    9  A    between atoms: C_32  and  C_33
REMARK   10  A    between atoms: C_32  and  C_34
REMARK                            x       y       z     vdW  Elec       q    Type
REMARK                         _______ _______ _______ _____ _____    ______ ____
ROOT
ATOM      1  C   UNL     1       0.722   4.649 -10.168  0.00  0.00    +0.048 A 
ATOM      2  C   UNL     1       0.543   5.707 -11.046  0.00  0.00    +0.024 A 
ATOM      3  C   UNL     1      -0.037   6.882 -10.604  0.00  0.00    +0.002 A 
ATOM      4  C   UNL     1      -0.441   7.006  -9.288  0.00  0.00    +0.001 A 
ATOM      5  C   UNL     1      -0.272   5.955  -8.407  0.00  0.00    +0.016 A 
ATOM      6  C   UNL     1       0.315   4.774  -8.840  0.00  0.00    +0.029 A 
ENDROOT
BRANCH   1  10
ATOM      7  N   UNL     1       2.607   2.311 -12.180  0.00  0.00    -0.268 N 
ATOM      8  C   UNL     1       2.133   3.469 -11.681  0.00  0.00    +0.308 C 
ATOM      9  O   UNL     1       2.448   4.526 -12.193  0.00  0.00    -0.252 OA
ATOM     10  N   UNL     1       1.309   3.457 -10.615  0.00  0.00    -0.268 N 
ATOM     11  H   UNL     1       2.251   1.351 -11.777  0.00  0.00    +0.156 HD
ATOM     12  H   UNL     1       1.097   2.511 -10.094  0.00  0.00    +0.156 HD
BRANCH   7  17
ATOM     13  C   UNL     1       6.447   2.382 -16.358  0.00  0.00    +0.044 C 
ATOM     14  C   UNL     1       5.427   2.362 -15.249  0.00  0.00    -0.049 A 
ATOM     15  C   UNL     1       5.312   3.447 -14.398  0.00  0.00    +0.005 A 
ATOM     16  C   UNL     1       4.378   3.433 -13.380  0.00  0.00    +0.025 A 
ATOM     17  C   UNL     1       3.554   2.328 -13.211  0.00  0.00    +0.053 A 
ATOM     18  C   UNL     1       3.675   1.238 -14.063  0.00  0.00    +0.062 A 
ATOM     19  C   UNL     1       4.608   1.260 -15.083  0.00  0.00    +0.025 A 
ATOM     20 CL   UNL     1       2.652  -0.149 -13.852  0.00  0.00    -0.082 Cl
ENDBRANCH   7  17
ENDBRANCH   1  10
BRANCH   6  21
ATOM     21  S   UNL     1       0.538   3.434  -7.718  0.00  0.00    -0.117 S 
BRANCH  21  22
ATOM     22  C   UNL     1      -0.130   4.059  -6.151  0.00  0.00    +0.130 C 
BRANCH  22  23
ATOM     23  C   UNL     1       0.001   2.996  -5.090  0.00  0.00    +0.060 A 
ATOM     24  C   UNL     1       0.965   3.111  -4.129  0.00  0.00    +0.096 A 
ATOM     25  C   UNL     1       1.068   2.107  -3.148  0.00  0.00    +0.275 A 
ATOM     26  O   UNL     1       1.917   2.176  -2.274  0.00  0.00    -0.266 OA
ATOM     27  N   UNL     1       0.212   1.070  -3.195  0.00  0.00    -0.181 N 
ATOM     28  C   UNL     1      -0.734   0.999  -4.181  0.00  0.00    +0.255 A 
ATOM     29  N   UNL     1      -0.817   1.949  -5.100  0.00  0.00    -0.215 NA
ATOM     30  N   UNL     1      -1.447  -0.127  -3.981  0.00  0.00    -0.200 NA
ATOM     31  C   UNL     1      -0.998  -0.764  -2.933  0.00  0.00    +0.219 A 
ATOM     32  N   UNL     1       0.041  -0.070  -2.398  0.00  0.00    -0.263 N 
BRANCH  32  33
ATOM     33  C   UNL     1       0.825  -0.439  -1.216  0.00  0.00    +0.146 C 
BRANCH  33  34
ATOM     34  C   UNL     1       0.113   0.056   0.043  0.00  0.00    +0.004 C 
ATOM     35  C   UNL     1       0.078   1.586   0.042  0.00  0.00    +0.009 C 
ATOM     36  C   UNL     1       0.865  -0.435   1.282  0.00  0.00    +0.009 C 
ENDBRANCH  33  34
ENDBRANCH  32  33
ENDBRANCH  22  23
ENDBRANCH  21  22
ENDBRANCH   6  21
TORSDOF 7
