REMARK  Name = ZINC40309758
REMARK  11 active torsions:
REMARK  status: ('A' for Active; 'I' for Inactive)
REMARK    1  A    between atoms: C_1  and  O_2
REMARK    2  A    between atoms: O_2  and  C_3
REMARK    3  A    between atoms: C_6  and  O_35
REMARK    4  A    between atoms: C_7  and  C_9
REMARK    5  A    between atoms: N_22  and  C_23
REMARK    6  A    between atoms: C_25  and  C_31
REMARK    7  A    between atoms: C_28  and  O_29
REMARK    8  A    between atoms: O_29  and  C_30
REMARK    9  A    between atoms: C_31  and  O_33
REMARK   10  A    between atoms: O_33  and  C_34
REMARK   11  A    between atoms: O_35  and  C_36
REMARK                            x       y       z     vdW  Elec       q    Type
REMARK                         _______ _______ _______ _____ _____    ______ ____
ROOT
ATOM      1  C   UNL     1      -2.618  -4.297  -0.026  0.00  0.00    +0.160 C 
ATOM      2  C   UNL     1      -2.577  -4.835  -1.434  0.00  0.00    +0.064 A 
ATOM      3  C   UNL     1      -1.441  -5.156  -2.091  0.00  0.00    +0.066 A 
ATOM      4  N   UNL     1      -1.781  -5.591  -3.308  0.00  0.00    -0.240 NA
ATOM      5  C   UNL     1      -3.083  -5.556  -3.429  0.00  0.00    +0.197 A 
ATOM      6  N   UNL     1      -3.615  -5.088  -2.276  0.00  0.00    -0.346 N 
ATOM      7  H   UNL     1      -4.557  -4.960  -2.086  0.00  0.00    +0.167 HD
ATOM      8  C   UNL     1      -0.056  -5.032  -1.507  0.00  0.00    +0.076 C 
ATOM      9  C   UNL     1      -0.112  -4.097  -0.293  0.00  0.00    +0.116 C 
ATOM     10  N   UNL     1      -1.268  -4.458   0.544  0.00  0.00    -0.272 N 
ATOM     11  C   UNL     1      -1.097  -4.923   1.798  0.00  0.00    +0.307 C 
ATOM     12  O   UNL     1       0.015  -4.959   2.287  0.00  0.00    -0.252 OA
ATOM     13  N   UNL     1      -2.160  -5.350   2.508  0.00  0.00    -0.266 N 
ATOM     14  H   UNL     1      -3.043  -5.354   2.106  0.00  0.00    +0.156 HD
ENDROOT
BRANCH   1  19
ATOM     15  C   UNL     1      -3.397  -0.811  -1.260  0.00  0.00    +0.121 A 
ATOM     16  C   UNL     1      -3.695  -0.157  -0.073  0.00  0.00    +0.049 A 
ATOM     17  C   UNL     1      -3.644  -0.843   1.125  0.00  0.00    +0.049 A 
ATOM     18  C   UNL     1      -3.295  -2.185   1.142  0.00  0.00    +0.126 A 
ATOM     19  C   UNL     1      -2.997  -2.839  -0.044  0.00  0.00    +0.024 A 
ATOM     20  C   UNL     1      -3.053  -2.155  -1.243  0.00  0.00    +0.055 A 
BRANCH  15  22
ATOM     21  C   UNL     1      -3.807   1.245  -2.382  0.00  0.00    +0.277 C 
ATOM     22  O   UNL     1      -3.446  -0.137  -2.439  0.00  0.00    -0.495 OA
ENDBRANCH  15  22
BRANCH  18  23
ATOM     23  O   UNL     1      -3.245  -2.860   2.321  0.00  0.00    -0.495 OA
ATOM     24  C   UNL     1      -3.563  -2.123   3.504  0.00  0.00    +0.277 C 
ENDBRANCH  18  23
ENDBRANCH   1  19
BRANCH  13  25
ATOM     25  C   UNL     1      -1.990  -5.788   3.829  0.00  0.00    +0.078 A 
ATOM     26  C   UNL     1      -0.745  -6.203   4.265  0.00  0.00    +0.042 A 
ATOM     27  C   UNL     1      -0.580  -6.639   5.583  0.00  0.00    +0.061 A 
ATOM     28  C   UNL     1      -1.673  -6.654   6.453  0.00  0.00    +0.018 A 
ATOM     29  C   UNL     1      -2.911  -6.240   6.012  0.00  0.00    +0.048 A 
ATOM     30  C   UNL     1      -3.076  -5.801   4.706  0.00  0.00    +0.141 A 
BRANCH  30  31
ATOM     31  O   UNL     1      -4.296  -5.388   4.278  0.00  0.00    -0.493 OA
ATOM     32  C   UNL     1      -5.364  -5.427   5.228  0.00  0.00    +0.277 C 
ENDBRANCH  30  31
BRANCH  27  33
ATOM     33  C   UNL     1       0.745  -7.083   6.053  0.00  0.00    +0.339 C 
ATOM     34  O   UNL     1       1.695  -7.070   5.295  0.00  0.00    -0.245 OA
BRANCH  33  35
ATOM     35  O   UNL     1       0.903  -7.504   7.324  0.00  0.00    -0.464 OA
ATOM     36  C   UNL     1       2.214  -7.919   7.712  0.00  0.00    +0.280 C 
ENDBRANCH  33  35
ENDBRANCH  27  33
ENDBRANCH  13  25
TORSDOF 7
