REMARK  Name = ZINC20755245
REMARK  5 active torsions:
REMARK  status: ('A' for Active; 'I' for Inactive)
REMARK    1  A    between atoms: C_1  and  O_2
REMARK    2  A    between atoms: O_2  and  C_3
REMARK    3  A    between atoms: C_7  and  C_9
REMARK    4  A    between atoms: C_20  and  S_25
REMARK    5  A    between atoms: S_25  and  N_28
REMARK                            x       y       z     vdW  Elec       q    Type
REMARK                         _______ _______ _______ _____ _____    ______ ____
ROOT
ATOM      1  C   UNL     1      -8.293   1.166  -1.127  0.00  0.00    +0.105 C 
ATOM      2  C   UNL     1      -8.380   2.166  -2.267  0.00  0.00    +0.029 C 
ATOM      3  C   UNL     1      -9.125   1.722  -3.533  0.00  0.00    +0.033 C 
ATOM      4  C   UNL     1      -8.409   2.535  -4.612  0.00  0.00    -0.030 C 
ATOM      5  C   UNL     1      -7.176   2.828  -4.217  0.00  0.00    -0.023 C 
ATOM      6  C   UNL     1      -6.949   2.220  -2.881  0.00  0.00    +0.049 C 
ATOM      7  C   UNL     1      -6.051   2.841  -1.882  0.00  0.00    -0.018 A 
ATOM      8  C   UNL     1      -5.003   3.662  -2.238  0.00  0.00    +0.034 A 
ATOM      9  C   UNL     1      -4.177   4.199  -1.268  0.00  0.00    +0.106 A 
ATOM     10  C   UNL     1      -4.409   3.923   0.067  0.00  0.00    +0.030 A 
ATOM     11  C   UNL     1      -5.462   3.111   0.434  0.00  0.00    +0.025 A 
ATOM     12  C   UNL     1      -6.298   2.565  -0.533  0.00  0.00    +0.031 A 
ATOM     13  N   UNL     1      -7.380   1.772  -0.134  0.00  0.00    -0.336 N 
ATOM     14  H   UNL     1      -7.546   1.603   0.940  0.00  0.00    +0.147 HD
ENDROOT
BRANCH   1  19
ATOM     15  C   UNL     1      -8.057  -2.315  -2.579  0.00  0.00    +0.120 A 
ATOM     16  C   UNL     1      -6.689  -2.539  -2.532  0.00  0.00    +0.045 A 
ATOM     17  C   UNL     1      -5.847  -1.566  -2.030  0.00  0.00    +0.004 A 
ATOM     18  C   UNL     1      -6.367  -0.368  -1.576  0.00  0.00    +0.006 A 
ATOM     19  C   UNL     1      -7.730  -0.141  -1.623  0.00  0.00    -0.024 A 
ATOM     20  C   UNL     1      -8.577  -1.114  -2.118  0.00  0.00    +0.051 A 
BRANCH  15  22
ATOM     21  C   UNL     1      -8.283  -4.485  -3.524  0.00  0.00    +0.277 C 
ATOM     22  O   UNL     1      -8.887  -3.271  -3.072  0.00  0.00    -0.495 OA
ENDBRANCH  15  22
ENDBRANCH   1  19
BRANCH   9  23
ATOM     23  S   UNL     1      -2.835   5.242  -1.733  0.00  0.00    +0.061 S 
ATOM     24  O   UNL     1      -2.548   6.060  -0.607  0.00  0.00    -0.153 OA
ATOM     25  O   UNL     1      -3.163   5.783  -3.005  0.00  0.00    -0.153 OA
BRANCH  23  26
ATOM     26  N   UNL     1      -1.514   4.268  -1.959  0.00  0.00    -0.177 NA
ATOM     27  C   UNL     1      -1.230   3.688  -3.279  0.00  0.00    +0.109 C 
ATOM     28  C   UNL     1      -1.079   2.171  -3.128  0.00  0.00    +0.017 C 
ATOM     29  C   UNL     1      -0.018   1.870  -2.067  0.00  0.00    +0.003 C 
ATOM     30  C   UNL     1      -0.462   2.448  -0.721  0.00  0.00    +0.017 C 
ATOM     31  C   UNL     1      -0.606   3.968  -0.844  0.00  0.00    +0.109 C 
ENDBRANCH  23  26
ENDBRANCH   9  23
TORSDOF 4
