REMARK  Name = ZINC01329668
REMARK  9 active torsions:
REMARK  status: ('A' for Active; 'I' for Inactive)
REMARK    1  A    between atoms: C_1  and  C_2
REMARK    2  A    between atoms: C_2  and  S_3
REMARK    3  A    between atoms: S_3  and  N_6
REMARK    4  A    between atoms: N_6  and  C_7
REMARK    5  A    between atoms: C_10  and  C_13
REMARK    6  A    between atoms: C_16  and  S_18
REMARK    7  A    between atoms: S_18  and  C_19
REMARK    8  A    between atoms: C_19  and  C_20
REMARK    9  A    between atoms: N_22  and  C_23
REMARK                            x       y       z     vdW  Elec       q    Type
REMARK                         _______ _______ _______ _____ _____    ______ ____
ROOT
ATOM      1  C   UNL     1      -7.277   0.481   0.186  0.00  0.00    +0.249 A 
ATOM      2  N   UNL     1      -6.308  -0.401   0.155  0.00  0.00    -0.106 NA
ATOM      3  N   UNL     1      -5.175   0.207   0.195  0.00  0.00    -0.101 NA
ATOM      4  C   UNL     1      -5.376   1.503   0.263  0.00  0.00    +0.278 A 
ATOM      5  O   UNL     1      -6.708   1.705   0.255  0.00  0.00    -0.411 OA
ENDROOT
BRANCH   1   9
ATOM      6  C   UNL     1     -11.442  -0.354   0.090  0.00  0.00    +0.048 A 
ATOM      7  C   UNL     1     -10.524  -1.398   0.050  0.00  0.00    +0.025 A 
ATOM      8  C   UNL     1      -9.172  -1.131   0.080  0.00  0.00    +0.015 A 
ATOM      9  C   UNL     1      -8.725   0.191   0.152  0.00  0.00    +0.039 A 
ATOM     10  C   UNL     1      -9.650   1.236   0.199  0.00  0.00    +0.015 A 
ATOM     11  C   UNL     1     -11.000   0.962   0.162  0.00  0.00    +0.025 A 
BRANCH   6  12
ATOM     12  N   UNL     1     -12.809  -0.629   0.059  0.00  0.00    -0.221 N 
ATOM     13  H   UNL     1     -13.317  -0.473  -0.752  0.00  0.00    +0.173 HD
BRANCH  12  14
ATOM     14  S   UNL     1     -13.566  -1.220   1.408  0.00  0.00    +0.043 S 
ATOM     15  O   UNL     1     -14.923  -1.384   1.020  0.00  0.00    -0.155 OA
ATOM     16  O   UNL     1     -12.785  -2.340   1.801  0.00  0.00    -0.155 OA
BRANCH  14  18
ATOM     17  C   UNL     1     -13.988  -0.382   3.978  0.00  0.00    +0.030 C 
ATOM     18  C   UNL     1     -13.424   0.103   2.641  0.00  0.00    +0.185 C 
ENDBRANCH  14  18
ENDBRANCH  12  14
ENDBRANCH   6  12
ENDBRANCH   1   9
BRANCH   4  19
ATOM     19  S   UNL     1      -4.133   2.748   0.341  0.00  0.00    -0.056 S 
BRANCH  19  20
ATOM     20  C   UNL     1      -2.648   1.713   0.309  0.00  0.00    +0.174 C 
BRANCH  20  21
ATOM     21  C   UNL     1      -1.424   2.590   0.369  0.00  0.00    +0.224 C 
ATOM     22  O   UNL     1      -1.543   3.795   0.427  0.00  0.00    -0.275 OA
ATOM     23  N   UNL     1      -0.196   2.033   0.358  0.00  0.00    -0.312 N 
ATOM     24  H   UNL     1      -0.101   1.069   0.311  0.00  0.00    +0.149 HD
BRANCH  23  25
ATOM     25  C   UNL     1       0.995   2.885   0.409  0.00  0.00    +0.073 C 
ATOM     26  C   UNL     1       1.348   3.354  -1.003  0.00  0.00    +0.022 C 
ATOM     27  C   UNL     1       2.591   4.244  -0.949  0.00  0.00    +0.002 C 
ATOM     28  C   UNL     1       3.762   3.450  -0.368  0.00  0.00    +0.000 C 
ATOM     29  C   UNL     1       3.409   2.981   1.045  0.00  0.00    +0.002 C 
ATOM     30  C   UNL     1       2.166   2.091   0.991  0.00  0.00    +0.022 C 
ENDBRANCH  23  25
ENDBRANCH  20  21
ENDBRANCH  19  20
ENDBRANCH   4  19
TORSDOF 8
