REMARK  Name = ZINC12638846
REMARK  14 active torsions:
REMARK  status: ('A' for Active; 'I' for Inactive)
REMARK    1  A    between atoms: C_1  and  C_2
REMARK    2  A    between atoms: C_2  and  N_84
REMARK    3  A    between atoms: C_3  and  C_4
REMARK    4  A    between atoms: C_3  and  N_84
REMARK    5  A    between atoms: C_5  and  C_6
REMARK    6  A    between atoms: C_5  and  N_84
REMARK    7  A    between atoms: C_6  and  N_7
REMARK    8  A    between atoms: N_7  and  C_8
REMARK    9  A    between atoms: C_8  and  C_10
REMARK   10  A    between atoms: C_8  and  C_17
REMARK   11  A    between atoms: N_19  and  C_20
REMARK   12  A    between atoms: C_26  and  C_28
REMARK   13  A    between atoms: C_28  and  C_29
REMARK   14  A    between atoms: C_29  and  N_30
REMARK                            x       y       z     vdW  Elec       q    Type
REMARK                         _______ _______ _______ _____ _____    ______ ____
ROOT
ATOM      1  N   UNL     1      -2.388   1.140   0.252  0.00  0.00    -0.288 N 
ATOM      2  C   UNL     1      -3.292   1.198  -0.745  0.00  0.00    +0.218 C 
ATOM      3  O   UNL     1      -3.178   2.030  -1.620  0.00  0.00    -0.276 OA
ENDROOT
BRANCH   1   4
ATOM      4  C   UNL     1      -2.587   0.214   1.369  0.00  0.00    +0.090 C 
BRANCH   4   5
ATOM      5  C   UNL     1      -2.341  -1.220   0.894  0.00  0.00    -0.060 C 
BRANCH   5   6
ATOM      6  N   UNL     1      -2.627  -2.145   2.010  0.00  0.00    +0.380 N 
ATOM      7  H   UNL     1      -2.238  -1.753   2.876  0.00  0.00    -0.082 HD
BRANCH   6   9
ATOM      8  C   UNL     1      -4.359  -3.083   3.460  0.00  0.00    -0.017 C 
ATOM      9  C   UNL     1      -4.087  -2.307   2.170  0.00  0.00    -0.082 C 
ENDBRANCH   6   9
BRANCH   6  10
ATOM     10  C   UNL     1      -1.999  -3.458   1.752  0.00  0.00    -0.082 C 
ATOM     11  C   UNL     1      -0.501  -3.350   2.045  0.00  0.00    -0.017 C 
ENDBRANCH   6  10
ENDBRANCH   5   6
ENDBRANCH   4   5
ENDBRANCH   1   4
BRANCH   1  12
ATOM     12  C   UNL     1      -1.204   2.003   0.219  0.00  0.00    +0.192 C 
BRANCH  12  13
ATOM     13  C   UNL     1      -1.373   3.126   1.209  0.00  0.00    -0.018 A 
ATOM     14  C   UNL     1      -1.865   2.863   2.474  0.00  0.00    +0.009 A 
ATOM     15  C   UNL     1      -2.015   3.891   3.385  0.00  0.00    +0.038 A 
ATOM     16  C   UNL     1      -1.684   5.187   3.027  0.00  0.00    +0.123 A 
ATOM     17  C   UNL     1      -1.197   5.450   1.758  0.00  0.00    +0.038 A 
ATOM     18  C   UNL     1      -1.042   4.419   0.851  0.00  0.00    +0.009 A 
ATOM     19  F   UNL     1      -1.837   6.194   3.915  0.00  0.00    -0.205 F 
ENDBRANCH  12  13
BRANCH  12  20
ATOM     20  C   UNL     1       0.017   1.196   0.578  0.00  0.00    +0.238 C 
ATOM     21  O   UNL     1      -0.091   0.016   0.836  0.00  0.00    -0.273 OA
ATOM     22  N   UNL     1       1.229   1.784   0.607  0.00  0.00    -0.311 N 
ATOM     23  H   UNL     1       1.315   2.728   0.400  0.00  0.00    +0.149 HD
BRANCH  22  24
ATOM     24  C   UNL     1       2.417   0.998   0.950  0.00  0.00    +0.073 C 
ATOM     25  C   UNL     1       2.570   0.943   2.471  0.00  0.00    +0.022 C 
ATOM     26  C   UNL     1       3.810   0.122   2.830  0.00  0.00    +0.002 C 
ATOM     27  C   UNL     1       5.049   0.776   2.216  0.00  0.00    +0.000 C 
ATOM     28  C   UNL     1       4.896   0.831   0.694  0.00  0.00    +0.002 C 
ATOM     29  C   UNL     1       3.656   1.652   0.336  0.00  0.00    +0.022 C 
ENDBRANCH  22  24
ENDBRANCH  12  20
ENDBRANCH   1  12
BRANCH   2  30
ATOM     30  C   UNL     1      -4.447   0.230  -0.772  0.00  0.00    +0.115 C 
BRANCH  30  31
ATOM     31  C   UNL     1      -5.329   0.523  -1.988  0.00  0.00    +0.114 C 
BRANCH  31  32
ATOM     32  N   UNL     1      -6.519  -0.338  -1.947  0.00  0.00    -0.329 N 
ATOM     33  C   UNL     1      -7.449   0.100  -0.904  0.00  0.00    +0.105 C 
ATOM     34  C   UNL     1      -8.653  -0.849  -0.890  0.00  0.00    +0.024 C 
ATOM     35  C   UNL     1      -8.171  -2.214  -0.392  0.00  0.00    +0.038 C 
ATOM     36  C   UNL     1      -6.907  -2.601  -1.118  0.00  0.00    -0.026 A 
ATOM     37  C   UNL     1      -6.161  -1.681  -1.834  0.00  0.00    +0.033 A 
ATOM     38  C   UNL     1      -4.995  -2.097  -2.478  0.00  0.00    +0.023 A 
ATOM     39  C   UNL     1      -4.591  -3.413  -2.409  0.00  0.00    +0.002 A 
ATOM     40  C   UNL     1      -5.343  -4.329  -1.697  0.00  0.00    +0.000 A 
ATOM     41  C   UNL     1      -6.496  -3.923  -1.055  0.00  0.00    +0.005 A 
ENDBRANCH  31  32
ENDBRANCH  30  31
ENDBRANCH   2  30
TORSDOF 12
