REMARK  Name = ZINC35778007
REMARK  15 active torsions:
REMARK  status: ('A' for Active; 'I' for Inactive)
REMARK    1  A    between atoms: C_1  and  C_2
REMARK    2  A    between atoms: C_6  and  O_8
REMARK    3  A    between atoms: O_8  and  C_9
REMARK    4  A    between atoms: C_10  and  C_21
REMARK    5  A    between atoms: C_11  and  C_20
REMARK    6  A    between atoms: N_13  and  C_14
REMARK    7  A    between atoms: C_21  and  N_22
REMARK    8  A    between atoms: N_22  and  C_23
REMARK    9  A    between atoms: N_22  and  C_34
REMARK   10  A    between atoms: C_23  and  C_24
REMARK   11  A    between atoms: C_24  and  C_26
REMARK   12  A    between atoms: C_24  and  O_33
REMARK   13  A    between atoms: C_26  and  C_27
REMARK   14  A    between atoms: C_34  and  C_35
REMARK   15  A    between atoms: C_34  and  C_36
REMARK                            x       y       z     vdW  Elec       q    Type
REMARK                         _______ _______ _______ _____ _____    ______ ____
ROOT
ATOM      1  C   UNL     1       1.270  -5.449   3.263  0.00  0.00    +0.225 A 
ATOM      2  C   UNL     1       0.380  -5.964   4.152  0.00  0.00    +0.021 A 
ATOM      3  C   UNL     1       0.060  -7.260   3.736  0.00  0.00    +0.065 A 
ATOM      4  N   UNL     1       0.727  -7.521   2.642  0.00  0.00    -0.168 NA
ATOM      5  N   UNL     1       1.495  -6.396   2.314  0.00  0.00    -0.200 N 
ATOM      6  C   UNL     1      -0.892  -8.198   4.433  0.00  0.00    +0.068 C 
ENDROOT
BRANCH   5   7
ATOM      7  C   UNL     1       2.346  -6.271   1.207  0.00  0.00    +0.069 A 
ATOM      8  C   UNL     1       2.381  -5.084   0.487  0.00  0.00    +0.028 A 
ATOM      9  C   UNL     1       3.220  -4.964  -0.603  0.00  0.00    +0.002 A 
ATOM     10  C   UNL     1       4.025  -6.024  -0.978  0.00  0.00    +0.000 A 
ATOM     11  C   UNL     1       3.992  -7.208  -0.264  0.00  0.00    +0.002 A 
ATOM     12  C   UNL     1       3.159  -7.332   0.831  0.00  0.00    +0.028 A 
ENDBRANCH   5   7
BRANCH   1  13
ATOM     13  O   UNL     1       1.828  -4.212   3.311  0.00  0.00    -0.438 OA
BRANCH  13  19
ATOM     14  C   UNL     1       5.608  -1.390   4.565  0.00  0.00    +0.044 C 
ATOM     15  C   UNL     1       4.890  -2.715   4.583  0.00  0.00    -0.047 A 
ATOM     16  C   UNL     1       5.444  -3.792   5.251  0.00  0.00    +0.003 A 
ATOM     17  C   UNL     1       4.788  -5.009   5.270  0.00  0.00    +0.004 A 
ATOM     18  C   UNL     1       3.577  -5.152   4.621  0.00  0.00    +0.046 A 
ATOM     19  C   UNL     1       3.019  -4.074   3.950  0.00  0.00    +0.131 A 
ATOM     20  C   UNL     1       3.677  -2.852   3.937  0.00  0.00    +0.049 A 
ENDBRANCH  13  19
ENDBRANCH   1  13
BRANCH   2  21
ATOM     21  C   UNL     1      -0.165  -5.263   5.369  0.00  0.00    -0.035 C 
BRANCH  21  22
ATOM     22  N   UNL     1      -1.628  -5.171   5.268  0.00  0.00    +0.386 N 
ATOM     23  H   UNL     1      -2.009  -6.082   5.061  0.00  0.00    -0.081 HD
BRANCH  22  24
ATOM     24  C   UNL     1      -1.986  -4.235   4.193  0.00  0.00    -0.074 C 
ATOM     25  C   UNL     1      -1.161  -2.955   4.335  0.00  0.00    -0.014 C 
ATOM     26  C   UNL     1      -1.697  -4.881   2.837  0.00  0.00    -0.014 C 
ENDBRANCH  22  24
BRANCH  22  27
ATOM     27  C   UNL     1      -2.178  -4.688   6.541  0.00  0.00    -0.046 C 
BRANCH  27  28
ATOM     28  C   UNL     1      -3.705  -4.764   6.499  0.00  0.00    +0.102 C 
BRANCH  28  29
ATOM     29  O   UNL     1      -4.107  -6.103   6.201  0.00  0.00    -0.393 OA
ATOM     30  H   UNL     1      -3.807  -6.757   6.846  0.00  0.00    +0.210 HD
ENDBRANCH  28  29
BRANCH  28  31
ATOM     31  C   UNL     1      -4.274  -4.351   7.858  0.00  0.00    +0.064 C 
BRANCH  31  32
ATOM     32  C   UNL     1      -5.779  -4.308   7.780  0.00  0.00    -0.045 A 
ATOM     33  C   UNL     1      -6.418  -3.140   7.411  0.00  0.00    +0.004 A 
ATOM     34  C   UNL     1      -7.798  -3.100   7.340  0.00  0.00    +0.000 A 
ATOM     35  C   UNL     1      -8.539  -4.229   7.637  0.00  0.00    +0.000 A 
ATOM     36  C   UNL     1      -7.899  -5.397   8.006  0.00  0.00    +0.000 A 
ATOM     37  C   UNL     1      -6.519  -5.438   8.073  0.00  0.00    +0.004 A 
ENDBRANCH  31  32
ENDBRANCH  28  31
ENDBRANCH  27  28
ENDBRANCH  22  27
ENDBRANCH  21  22
ENDBRANCH   2  21
TORSDOF 11
