REMARK  Name = ZINC66439576
REMARK  17 active torsions:
REMARK  status: ('A' for Active; 'I' for Inactive)
REMARK    1  A    between atoms: C_1  and  C_2
REMARK    2  A    between atoms: C_2  and  C_3
REMARK    3  A    between atoms: C_3  and  C_4
REMARK    4  A    between atoms: C_4  and  O_5
REMARK    5  A    between atoms: O_5  and  C_6
REMARK    6  A    between atoms: C_6  and  C_8
REMARK    7  A    between atoms: C_6  and  C_9
REMARK    8  A    between atoms: N_11  and  C_12
REMARK    9  A    between atoms: N_11  and  C_17
REMARK   10  A    between atoms: C_12  and  C_13
REMARK   11  A    between atoms: C_13  and  O_14
REMARK   12  A    between atoms: O_14  and  C_15
REMARK   13  A    between atoms: C_15  and  C_16
REMARK   14  A    between atoms: C_17  and  C_18
REMARK   15  A    between atoms: C_21  and  C_23
REMARK   16  A    between atoms: C_23  and  O_25
REMARK   17  A    between atoms: O_25  and  C_26
REMARK                            x       y       z     vdW  Elec       q    Type
REMARK                         _______ _______ _______ _____ _____    ______ ____
ROOT
ATOM      1  C   UNL     1      -4.103  -4.418   0.734  0.00  0.00    +0.245 C 
ATOM      2  O   UNL     1      -4.936  -3.589   1.034  0.00  0.00    -0.273 OA
ATOM      3  N   UNL     1      -4.302  -5.715   1.043  0.00  0.00    -0.290 N 
ENDROOT
BRANCH   1   4
ATOM      4  C   UNL     1      -2.846  -3.998   0.017  0.00  0.00    +0.201 C 
ATOM      5  C   UNL     1      -2.952  -4.378  -1.462  0.00  0.00    +0.048 C 
BRANCH   4   6
ATOM      6  O   UNL     1      -2.681  -2.584   0.135  0.00  0.00    -0.368 OA
BRANCH   6   7
ATOM      7  C   UNL     1      -1.317  -2.156   0.128  0.00  0.00    +0.161 C 
BRANCH   7   8
ATOM      8  C   UNL     1      -1.260  -0.632   0.259  0.00  0.00    +0.028 C 
BRANCH   8  10
ATOM      9  C   UNL     1       0.256   1.349   0.382  0.00  0.00    +0.004 C 
ATOM     10  C   UNL     1       0.199  -0.174   0.251  0.00  0.00    -0.001 C 
ENDBRANCH   8  10
ENDBRANCH   7   8
ENDBRANCH   6   7
ENDBRANCH   4   6
ENDBRANCH   1   4
BRANCH   3  11
ATOM     11  C   UNL     1      -3.245  -6.698   0.791  0.00  0.00    +0.136 C 
BRANCH  11  12
ATOM     12  C   UNL     1      -2.268  -6.710   1.967  0.00  0.00    +0.178 C 
BRANCH  12  13
ATOM     13  O   UNL     1      -2.940  -7.171   3.141  0.00  0.00    -0.378 OA
BRANCH  13  14
ATOM     14  C   UNL     1      -2.112  -7.221   4.304  0.00  0.00    +0.156 C 
ATOM     15  C   UNL     1      -2.932  -7.726   5.493  0.00  0.00    +0.034 C 
ENDBRANCH  13  14
ENDBRANCH  12  13
ENDBRANCH  11  12
ENDBRANCH   3  11
BRANCH   3  16
ATOM     16  C   UNL     1      -5.574  -6.142   1.632  0.00  0.00    +0.182 C 
BRANCH  16  17
ATOM     17  C   UNL     1      -6.534  -6.517   0.533  0.00  0.00    +0.123 A 
ATOM     18  C   UNL     1      -6.676  -7.751  -0.001  0.00  0.00    +0.047 A 
ATOM     19  C   UNL     1      -7.670  -7.663  -0.987  0.00  0.00    +0.057 A 
ATOM     20  C   UNL     1      -8.091  -6.363  -1.005  0.00  0.00    +0.212 A 
ATOM     21  O   UNL     1      -7.393  -5.685  -0.070  0.00  0.00    -0.452 OA
BRANCH  20  22
ATOM     22  C   UNL     1      -9.123  -5.805  -1.882  0.00  0.00    +0.375 C 
ATOM     23  O   UNL     1      -9.689  -6.519  -2.687  0.00  0.00    -0.241 OA
BRANCH  22  24
ATOM     24  O   UNL     1      -9.445  -4.497  -1.797  0.00  0.00    -0.462 OA
ATOM     25  C   UNL     1     -10.460  -4.021  -2.683  0.00  0.00    +0.280 C 
ENDBRANCH  22  24
ENDBRANCH  20  22
ENDBRANCH  16  17
ENDBRANCH   3  16
TORSDOF 13
