REMARK  Name = ZINC08900396
REMARK  11 active torsions:
REMARK  status: ('A' for Active; 'I' for Inactive)
REMARK    1  A    between atoms: C_1  and  C_2
REMARK    2  A    between atoms: C_2  and  N_3
REMARK    3  A    between atoms: N_3  and  C_4
REMARK    4  A    between atoms: N_3  and  C_6
REMARK    5  A    between atoms: C_4  and  C_5
REMARK    6  A    between atoms: C_9  and  N_13
REMARK    7  A    between atoms: C_10  and  C_12
REMARK    8  A    between atoms: C_17  and  C_35
REMARK    9  A    between atoms: C_18  and  N_22
REMARK   10  A    between atoms: C_23  and  C_25
REMARK   11  A    between atoms: C_29  and  N_31
REMARK                            x       y       z     vdW  Elec       q    Type
REMARK                         _______ _______ _______ _____ _____    ______ ____
ROOT
ATOM      1  N   UNL     1       0.326  -5.792  -1.511  0.00  0.00    -0.149 N 
ATOM      2  N   UNL     1       0.868  -6.548  -0.621  0.00  0.00    -0.147 NA
ATOM      3  C   UNL     1       0.619  -7.812  -0.925  0.00  0.00    +0.114 A 
ATOM      4  C   UNL     1       0.922  -9.070  -0.374  0.00  0.00    +0.037 A 
ATOM      5  C   UNL     1       0.478 -10.196  -0.990  0.00  0.00    -0.027 A 
ATOM      6  C   UNL     1      -0.278 -10.140  -2.168  0.00  0.00    +0.039 A 
ATOM      7  C   UNL     1      -0.604  -8.951  -2.752  0.00  0.00    +0.055 A 
ATOM      8  C   UNL     1      -0.175  -7.750  -2.162  0.00  0.00    +0.115 A 
ATOM      9  N   UNL     1      -0.294  -6.458  -2.422  0.00  0.00    -0.147 NA
ATOM     10  C   UNL     1       0.808 -11.539  -0.391  0.00  0.00    +0.046 C 
ENDROOT
BRANCH   1  14
ATOM     11  C   UNL     1       0.543  -1.630  -1.442  0.00  0.00    +0.014 A 
ATOM     12  C   UNL     1       0.165  -2.320  -0.305  0.00  0.00    +0.024 A 
ATOM     13  C   UNL     1       0.092  -3.699  -0.324  0.00  0.00    +0.031 A 
ATOM     14  C   UNL     1       0.399  -4.393  -1.488  0.00  0.00    +0.089 A 
ATOM     15  C   UNL     1       0.778  -3.697  -2.628  0.00  0.00    -0.022 A 
ATOM     16  C   UNL     1       0.844  -2.317  -2.603  0.00  0.00    +0.027 A 
ATOM     17  C   UNL     1       1.113  -4.446  -3.893  0.00  0.00    +0.046 C 
BRANCH  11  18
ATOM     18  N   UNL     1       0.616  -0.234  -1.419  0.00  0.00    -0.394 NA
ATOM     19  H   UNL     1       0.901   0.103  -2.326  0.00  0.00    +0.126 HD
BRANCH  18  21
ATOM     20  C   UNL     1      -0.654   1.846  -1.179  0.00  0.00    +0.022 C 
ATOM     21  C   UNL     1      -0.702   0.320  -1.083  0.00  0.00    +0.081 C 
ENDBRANCH  18  21
BRANCH  18  22
ATOM     22  C   UNL     1       1.597   0.188  -0.409  0.00  0.00    +0.081 C 
ATOM     23  C   UNL     1       2.991  -0.283  -0.825  0.00  0.00    +0.022 C 
ENDBRANCH  18  22
ENDBRANCH  11  18
ENDBRANCH   1  14
BRANCH   6  24
ATOM     24  N   UNL     1      -0.708 -11.332  -2.760  0.00  0.00    -0.281 N 
ATOM     25  C   UNL     1      -0.779 -11.431  -4.102  0.00  0.00    +0.248 C 
ATOM     26  O   UNL     1      -0.546 -10.461  -4.796  0.00  0.00    -0.270 OA
ATOM     27  H   UNL     1      -0.956 -12.088  -2.204  0.00  0.00    +0.155 HD
BRANCH  25  28
ATOM     28  C   UNL     1      -1.139 -12.719  -4.730  0.00  0.00    +0.039 A 
ATOM     29  C   UNL     1      -1.413 -13.834  -3.935  0.00  0.00    +0.014 A 
ATOM     30  C   UNL     1      -1.750 -15.033  -4.527  0.00  0.00    +0.023 A 
ATOM     31  C   UNL     1      -1.816 -15.133  -5.907  0.00  0.00    +0.071 A 
ATOM     32  C   UNL     1      -1.545 -14.031  -6.700  0.00  0.00    +0.145 A 
ATOM     33  C   UNL     1      -1.213 -12.825  -6.120  0.00  0.00    +0.047 A 
ATOM     34 CL   UNL     1      -2.240 -16.647  -6.644  0.00  0.00    -0.081 Cl
BRANCH  32  35
ATOM     35  N   UNL     1      -1.617 -14.147  -8.174  0.00  0.00    +0.058 N 
ATOM     36  O   UNL     1      -1.380 -13.185  -8.868  0.00  0.00    -0.126 OA
ATOM     37  O   UNL     1      -1.912 -15.202  -8.684  0.00  0.00    -0.126 OA
ENDBRANCH  32  35
ENDBRANCH  25  28
ENDBRANCH   6  24
TORSDOF 7
