REMARK  Name = ZINC49095908
REMARK  6 active torsions:
REMARK  status: ('A' for Active; 'I' for Inactive)
REMARK    1  A    between atoms: C_1  and  C_2
REMARK    2  A    between atoms: C_5  and  S_9
REMARK    3  A    between atoms: C_6  and  N_8
REMARK    4  A    between atoms: S_9  and  N_12
REMARK    5  A    between atoms: C_15  and  C_19
REMARK    6  A    between atoms: C_16  and  C_18
REMARK                            x       y       z     vdW  Elec       q    Type
REMARK                         _______ _______ _______ _____ _____    ______ ____
ROOT
ATOM      1  S   UNL     1       0.062  -4.535  -0.040  0.00  0.00    +0.103 S 
ATOM      2  O   UNL     1      -0.954  -4.963   0.858  0.00  0.00    -0.146 OA
ATOM      3  O   UNL     1       0.087  -4.928  -1.405  0.00  0.00    -0.146 OA
ENDROOT
BRANCH   1   4
ATOM      4  N   UNL     1       1.505  -5.012   0.617  0.00  0.00    -0.103 NA
ATOM      5  C   UNL     1       1.785  -6.287   0.726  0.00  0.00    +0.192 A 
ATOM      6  N   UNL     1       1.034  -7.382   0.357  0.00  0.00    -0.336 N 
ATOM      7  C   UNL     1       1.546  -8.627   0.576  0.00  0.00    +0.025 A 
ATOM      8  C   UNL     1       2.748  -8.769   1.134  0.00  0.00    +0.009 A 
ATOM      9  S   UNL     1       3.248  -7.073   1.386  0.00  0.00    -0.053 S 
ATOM     10  C   UNL     1       3.496 -10.035   1.463  0.00  0.00    +0.053 C 
ATOM     11  C   UNL     1       0.751  -9.846   0.185  0.00  0.00    +0.064 C 
ATOM     12  H   UNL     1       0.160  -7.269  -0.048  0.00  0.00    +0.168 HD
ENDBRANCH   1   4
BRANCH   1  17
ATOM     13  C   UNL     1      -0.018   1.503   0.010  0.00  0.00    +0.044 C 
ATOM     14  C   UNL     1       0.002  -0.004   0.002  0.00  0.00    -0.049 A 
ATOM     15  C   UNL     1       0.006  -0.688  -1.200  0.00  0.00    +0.005 A 
ATOM     16  C   UNL     1       0.024  -2.071  -1.212  0.00  0.00    +0.031 A 
ATOM     17  C   UNL     1       0.039  -2.773  -0.023  0.00  0.00    +0.133 A 
ATOM     18  C   UNL     1       0.036  -2.089   1.186  0.00  0.00    +0.052 A 
ATOM     19  C   UNL     1       0.023  -0.700   1.194  0.00  0.00    +0.028 A 
BRANCH  18  20
ATOM     20  N   UNL     1       0.051  -2.796   2.390  0.00  0.00    -0.356 N 
ATOM     21  H   UNL     1       0.064  -3.766   2.383  0.00  0.00    +0.142 HD
ATOM     22  H   UNL     1       0.049  -2.318   3.234  0.00  0.00    +0.142 HD
ENDBRANCH  18  20
ENDBRANCH   1  17
TORSDOF 3
