REMARK  Name = ZINC11196610
REMARK  9 active torsions:
REMARK  status: ('A' for Active; 'I' for Inactive)
REMARK    1  A    between atoms: C_1  and  C_2
REMARK    2  A    between atoms: C_5  and  N_8
REMARK    3  A    between atoms: C_9  and  C_30
REMARK    4  A    between atoms: C_12  and  S_13
REMARK    5  A    between atoms: S_13  and  C_14
REMARK    6  A    between atoms: C_14  and  C_15
REMARK    7  A    between atoms: N_17  and  N_18
REMARK    8  A    between atoms: C_19  and  C_21
REMARK    9  A    between atoms: C_25  and  N_27
REMARK                            x       y       z     vdW  Elec       q    Type
REMARK                         _______ _______ _______ _____ _____    ______ ____
ROOT
ATOM      1  S   UNL     1       3.904  10.237   0.014  0.00  0.00    -0.076 S 
ENDROOT
BRANCH   1   6
ATOM      2  N   UNL     1       4.530  12.965   0.026  0.00  0.00    -0.270 N 
ATOM      3  C   UNL     1       3.819  14.146   0.034  0.00  0.00    +0.169 A 
ATOM      4  N   UNL     1       2.545  13.828   0.045  0.00  0.00    -0.128 NA
ATOM      5  N   UNL     1       2.411  12.550   0.040  0.00  0.00    -0.122 NA
ATOM      6  C   UNL     1       3.591  11.970   0.025  0.00  0.00    +0.197 A 
BRANCH   2  11
ATOM      7  C   UNL     1      10.173  12.359  -0.006  0.00  0.00    +0.044 C 
ATOM      8  C   UNL     1       8.675  12.520   0.002  0.00  0.00    -0.050 A 
ATOM      9  C   UNL     1       7.929  12.096  -1.082  0.00  0.00    +0.005 A 
ATOM     10  C   UNL     1       6.556  12.242  -1.077  0.00  0.00    +0.026 A 
ATOM     11  C   UNL     1       5.924  12.815   0.018  0.00  0.00    +0.051 A 
ATOM     12  C   UNL     1       6.676  13.244   1.103  0.00  0.00    +0.026 A 
ATOM     13  C   UNL     1       8.048  13.091   1.095  0.00  0.00    +0.005 A 
ENDBRANCH   2  11
BRANCH   3  14
ATOM     14  C   UNL     1       4.384  15.511   0.036  0.00  0.00    +0.020 A 
ATOM     15  C   UNL     1       5.728  15.715  -0.283  0.00  0.00    +0.011 A 
ATOM     16  C   UNL     1       6.247  16.993  -0.285  0.00  0.00    +0.001 A 
ATOM     17  C   UNL     1       5.442  18.071   0.040  0.00  0.00    +0.000 A 
ATOM     18  C   UNL     1       4.111  17.875   0.362  0.00  0.00    +0.001 A 
ATOM     19  C   UNL     1       3.577  16.603   0.362  0.00  0.00    +0.011 A 
ENDBRANCH   3  14
ENDBRANCH   1   6
BRANCH   1  20
ATOM     20  C   UNL     1       2.206   9.610   0.028  0.00  0.00    +0.174 C 
BRANCH  20  21
ATOM     21  C   UNL     1       2.227   8.103   0.020  0.00  0.00    +0.239 C 
ATOM     22  O   UNL     1       3.285   7.511   0.007  0.00  0.00    -0.273 OA
ATOM     23  N   UNL     1       1.069   7.414   0.028  0.00  0.00    -0.233 N 
ATOM     24  H   UNL     1       0.222   7.887   0.039  0.00  0.00    +0.173 HD
BRANCH  23  25
ATOM     25  N   UNL     1       1.088   6.013   0.022  0.00  0.00    -0.230 N 
ATOM     26  C   UNL     1      -0.070   5.323   0.030  0.00  0.00    +0.260 C 
ATOM     27  O   UNL     1      -1.131   5.916   0.043  0.00  0.00    -0.269 OA
ATOM     28  H   UNL     1       1.934   5.539   0.011  0.00  0.00    +0.173 HD
BRANCH  26  29
ATOM     29  C   UNL     1      -0.050   3.845   0.023  0.00  0.00    +0.040 A 
ATOM     30  C   UNL     1       1.166   3.160   0.007  0.00  0.00    +0.013 A 
ATOM     31  C   UNL     1       1.178   1.781   0.000  0.00  0.00    +0.003 A 
ATOM     32  C   UNL     1      -0.013   1.076   0.008  0.00  0.00    +0.033 A 
ATOM     33  C   UNL     1      -1.222   1.748   0.017  0.00  0.00    +0.127 A 
ATOM     34  C   UNL     1      -1.247   3.128   0.031  0.00  0.00    +0.045 A 
BRANCH  33  35
ATOM     35  N   UNL     1      -2.490   0.986   0.019  0.00  0.00    +0.056 N 
ATOM     36  O   UNL     1      -2.469  -0.232   0.013  0.00  0.00    -0.126 OA
ATOM     37  O   UNL     1      -3.556   1.576   0.028  0.00  0.00    -0.126 OA
ENDBRANCH  33  35
ENDBRANCH  26  29
ENDBRANCH  23  25
ENDBRANCH  20  21
ENDBRANCH   1  20
TORSDOF 8
