REMARK  Name = ZINC19077375
REMARK  10 active torsions:
REMARK  status: ('A' for Active; 'I' for Inactive)
REMARK    1  A    between atoms: C_1  and  C_2
REMARK    2  A    between atoms: C_2  and  C_3
REMARK    3  A    between atoms: C_3  and  C_4
REMARK    4  A    between atoms: C_4  and  N_5
REMARK    5  A    between atoms: C_9  and  S_28
REMARK    6  A    between atoms: C_13  and  S_14
REMARK    7  A    between atoms: S_14  and  C_15
REMARK    8  A    between atoms: C_15  and  C_16
REMARK    9  A    between atoms: N_18  and  C_19
REMARK   10  A    between atoms: S_28  and  N_31
REMARK                            x       y       z     vdW  Elec       q    Type
REMARK                         _______ _______ _______ _____ _____    ______ ____
ROOT
ATOM      1  N   UNL     1      -1.723   4.871  -4.985  0.00  0.00    -0.319 N 
ATOM      2  C   UNL     1      -1.539   4.347  -3.716  0.00  0.00    +0.070 A 
ATOM      3  C   UNL     1      -1.004   4.845  -2.538  0.00  0.00    +0.030 A 
ATOM      4  C   UNL     1      -0.968   4.051  -1.410  0.00  0.00    +0.030 A 
ATOM      5  C   UNL     1      -1.455   2.753  -1.449  0.00  0.00    +0.107 A 
ATOM      6  C   UNL     1      -1.990   2.242  -2.610  0.00  0.00    +0.058 A 
ATOM      7  C   UNL     1      -2.038   3.034  -3.760  0.00  0.00    +0.092 A 
ATOM      8  N   UNL     1      -2.493   2.821  -5.022  0.00  0.00    -0.222 NA
ATOM      9  C   UNL     1      -2.309   3.898  -5.745  0.00  0.00    +0.170 A 
ENDROOT
BRANCH   5  10
ATOM     10  S   UNL     1      -1.393   1.752   0.000  0.00  0.00    +0.056 S 
ATOM     11  O   UNL     1      -2.410   0.769  -0.142  0.00  0.00    -0.153 OA
ATOM     12  O   UNL     1      -1.344   2.643   1.106  0.00  0.00    -0.153 OA
BRANCH  10  13
ATOM     13  N   UNL     1       0.052   0.945  -0.023  0.00  0.00    -0.204 NA
ATOM     14  H   UNL     1       0.066  -0.025  -0.031  0.00  0.00    +0.144 HD
ATOM     15  H   UNL     1       0.885   1.442  -0.032  0.00  0.00    +0.144 HD
ENDBRANCH  10  13
ENDBRANCH   5  10
BRANCH   1  16
ATOM     16  C   UNL     1      -1.357   6.218  -5.430  0.00  0.00    +0.124 C 
BRANCH  16  17
ATOM     17  C   UNL     1      -2.533   7.169  -5.197  0.00  0.00    +0.021 C 
BRANCH  17  19
ATOM     18  C   UNL     1      -3.327   9.527  -5.428  0.00  0.00    +0.004 C 
ATOM     19  C   UNL     1      -2.151   8.576  -5.661  0.00  0.00    -0.002 C 
ENDBRANCH  17  19
ENDBRANCH  16  17
ENDBRANCH   1  16
BRANCH   9  20
ATOM     20  S   UNL     1      -2.751   4.068  -7.442  0.00  0.00    -0.078 S 
BRANCH  20  21
ATOM     21  C   UNL     1      -3.450   2.426  -7.750  0.00  0.00    +0.173 C 
BRANCH  21  22
ATOM     22  C   UNL     1      -3.910   2.337  -9.182  0.00  0.00    +0.228 C 
ATOM     23  O   UNL     1      -3.778   3.289  -9.922  0.00  0.00    -0.275 OA
ATOM     24  N   UNL     1      -4.468   1.199  -9.641  0.00  0.00    -0.283 N 
ATOM     25  H   UNL     1      -4.513   0.416  -9.069  0.00  0.00    +0.155 HD
BRANCH  24  26
ATOM     26  C   UNL     1      -4.980   1.146 -10.939  0.00  0.00    +0.062 A 
ATOM     27  C   UNL     1      -4.372   1.840 -11.940  0.00  0.00    +0.025 A 
ATOM     28  C   UNL     1      -4.858   1.808 -13.246  0.00  0.00    +0.004 A 
ATOM     29  C   UNL     1      -5.956   1.086 -13.578  0.00  0.00    +0.031 A 
ATOM     30  C   UNL     1      -6.643   0.337 -12.587  0.00  0.00    +0.102 A 
ATOM     31  C   UNL     1      -6.136   0.362 -11.219  0.00  0.00    +0.121 A 
ATOM     32  N   UNL     1      -6.870  -0.386 -10.399  0.00  0.00    -0.189 NA
ATOM     33  S   UNL     1      -8.010  -1.008 -11.276  0.00  0.00    +0.117 S 
ATOM     34  N   UNL     1      -7.727  -0.428 -12.704  0.00  0.00    -0.191 NA
ENDBRANCH  24  26
ENDBRANCH  21  22
ENDBRANCH  20  21
ENDBRANCH   9  20
TORSDOF 9
