REMARK  Name = ZINC00115256
REMARK  4 active torsions:
REMARK  status: ('A' for Active; 'I' for Inactive)
REMARK    1  A    between atoms: C_4  and  C_7
REMARK    2  A    between atoms: C_12  and  C_20
REMARK    3  A    between atoms: C_14  and  C_18
REMARK    4  A    between atoms: C_15  and  N_17
REMARK                            x       y       z     vdW  Elec       q    Type
REMARK                         _______ _______ _______ _____ _____    ______ ____
ROOT
ATOM      1  C   UNL     1      -0.019   1.528   0.010  0.00  0.00    +0.034 C 
ATOM      2  C   UNL     1       1.425   2.033  -0.001  0.00  0.00    +0.083 C 
ATOM      3  C   UNL     1       2.138   1.508  -1.225  0.00  0.00    +0.115 C 
ATOM      4  C   UNL     1       1.806   0.316  -1.754  0.00  0.00    +0.042 C 
ATOM      5  C   UNL     1       2.529  -0.213  -2.969  0.00  0.00    +0.074 C 
ATOM      6  C   UNL     1       3.234   0.909  -3.679  0.00  0.00    +0.094 C 
ATOM      7  C   UNL     1       3.479   2.077  -3.039  0.00  0.00    +0.198 C 
ATOM      8  O   UNL     1       3.112   2.266  -1.762  0.00  0.00    -0.445 OA
ATOM      9  C   UNL     1       0.782  -0.473  -1.196  0.00  0.00    +0.164 C 
ATOM     10  O   UNL     1       0.523  -1.552  -1.691  0.00  0.00    -0.292 OA
ATOM     11  C   UNL     1       0.002  -0.004   0.002  0.00  0.00    +0.088 C 
ENDROOT
BRANCH   1  15
ATOM     12  C   UNL     1      -1.998   2.917   3.532  0.00  0.00    +0.000 A 
ATOM     13  C   UNL     1      -2.493   3.249   2.284  0.00  0.00    +0.000 A 
ATOM     14  C   UNL     1      -1.852   2.800   1.145  0.00  0.00    +0.004 A 
ATOM     15  C   UNL     1      -0.717   2.018   1.253  0.00  0.00    -0.043 A 
ATOM     16  C   UNL     1      -0.225   1.682   2.500  0.00  0.00    +0.004 A 
ATOM     17  C   UNL     1      -0.863   2.135   3.640  0.00  0.00    +0.000 A 
ENDBRANCH   1  15
BRANCH   5  18
ATOM     18  C   UNL     1       3.557  -1.259  -2.533  0.00  0.00    +0.002 C 
ATOM     19  C   UNL     1       4.291  -1.797  -3.763  0.00  0.00    +0.004 C 
ATOM     20  C   UNL     1       5.319  -2.843  -3.326  0.00  0.00    +0.000 C 
ATOM     21  C   UNL     1       4.605  -3.994  -2.614  0.00  0.00    +0.000 C 
ATOM     22  C   UNL     1       3.871  -3.456  -1.384  0.00  0.00    +0.000 C 
ATOM     23  C   UNL     1       2.843  -2.410  -1.821  0.00  0.00    +0.004 C 
ENDBRANCH   5  18
BRANCH   7  24
ATOM     24  N   UNL     1       4.118   3.090  -3.711  0.00  0.00    -0.328 N 
ATOM     25  H   UNL     1       4.388   2.965  -4.634  0.00  0.00    +0.145 HD
ATOM     26  H   UNL     1       4.299   3.931  -3.262  0.00  0.00    +0.145 HD
ENDBRANCH   7  24
BRANCH   6  27
ATOM     27  C   UNL     1       3.647   0.742  -5.040  0.00  0.00    +0.100 C 
ATOM     28  N   UNL     1       3.974   0.609  -6.120  0.00  0.00    -0.191 NA
ENDBRANCH   6  27
TORSDOF 4
