REMARK  Name = ZINC42711587
REMARK  9 active torsions:
REMARK  status: ('A' for Active; 'I' for Inactive)
REMARK    1  A    between atoms: C_1  and  C_2
REMARK    2  A    between atoms: C_2  and  C_35
REMARK    3  A    between atoms: C_4  and  N_10
REMARK    4  A    between atoms: C_6  and  C_8
REMARK    5  A    between atoms: C_6  and  C_9
REMARK    6  A    between atoms: C_11  and  C_13
REMARK    7  A    between atoms: N_24  and  C_26
REMARK    8  A    between atoms: C_29  and  O_32
REMARK    9  A    between atoms: O_32  and  C_33
REMARK                            x       y       z     vdW  Elec       q    Type
REMARK                         _______ _______ _______ _____ _____    ______ ____
ROOT
ATOM      1  C   UNL     1       4.312  -0.866  -4.426  0.00  0.00    +0.122 C 
ATOM      2  C   UNL     1       3.292  -0.639  -5.589  0.00  0.00    +0.155 C 
ATOM      3  C   UNL     1       3.891  -1.294  -6.839  0.00  0.00    +0.004 C 
ATOM      4  C   UNL     1       4.905  -0.521  -7.247  0.00  0.00    +0.008 C 
ATOM      5  C   UNL     1       4.948   0.566  -6.234  0.00  0.00    +0.116 C 
ATOM      6  C   UNL     1       5.520  -0.037  -4.899  0.00  0.00    +0.127 C 
ATOM      7  C   UNL     1       5.793   1.201  -4.093  0.00  0.00    +0.227 C 
ATOM      8  O   UNL     1       5.833   1.255  -2.881  0.00  0.00    -0.275 OA
ATOM      9  N   UNL     1       5.988   2.249  -4.933  0.00  0.00    -0.268 N 
ATOM     10  C   UNL     1       5.754   1.821  -6.366  0.00  0.00    +0.153 C 
ATOM     11  O   UNL     1       3.541   0.786  -5.870  0.00  0.00    -0.359 OA
ENDROOT
BRANCH   9  12
ATOM     12  C   UNL     1       6.376   3.532  -4.527  0.00  0.00    +0.037 A 
ATOM     13  C   UNL     1       6.543   4.538  -5.470  0.00  0.00    +0.027 A 
ATOM     14  C   UNL     1       6.925   5.803  -5.069  0.00  0.00    +0.047 A 
ATOM     15  C   UNL     1       7.144   6.069  -3.725  0.00  0.00    +0.120 A 
ATOM     16  C   UNL     1       6.978   5.064  -2.783  0.00  0.00    +0.047 A 
ATOM     17  C   UNL     1       6.590   3.800  -3.182  0.00  0.00    +0.027 A 
BRANCH  15  18
ATOM     18  O   UNL     1       7.521   7.314  -3.331  0.00  0.00    -0.495 OA
ATOM     19  C   UNL     1       7.728   7.517  -1.932  0.00  0.00    +0.277 C 
ENDBRANCH  15  18
ENDBRANCH   9  12
BRANCH   1  21
ATOM     20  N   UNL     1       4.167  -0.879  -1.956  0.00  0.00    -0.312 N 
ATOM     21  C   UNL     1       3.770  -0.334  -3.123  0.00  0.00    +0.220 C 
ATOM     22  O   UNL     1       2.978   0.584  -3.126  0.00  0.00    -0.275 OA
ATOM     23  H   UNL     1       4.801  -1.613  -1.954  0.00  0.00    +0.149 HD
BRANCH  20  27
ATOM     24  C   UNL     1       1.673  -0.823   1.673  0.00  0.00    -0.010 C 
ATOM     25  C   UNL     1       3.201  -0.938   1.713  0.00  0.00    -0.072 C 
ATOM     26  C   UNL     1       3.713  -1.459   0.374  0.00  0.00    +0.009 C 
ATOM     27  C   UNL     1       3.640  -0.361  -0.688  0.00  0.00    +0.070 C 
ATOM     28  C   UNL     1       4.505   0.810  -0.223  0.00  0.00    +0.009 C 
ATOM     29  C   UNL     1       3.999   1.348   1.111  0.00  0.00    -0.072 C 
ATOM     30  N   UNL     1       3.814   0.316   2.115  0.00  0.00    +0.386 N 
ATOM     31  C   UNL     1       2.711   2.149   0.892  0.00  0.00    -0.010 C 
ATOM     32  C   UNL     1       5.062   2.337   1.644  0.00  0.00    -0.010 C 
ATOM     33  C   UNL     1       3.548  -1.997   2.784  0.00  0.00    -0.010 C 
ATOM     34  H   UNL     1       3.264   0.710   2.884  0.00  0.00    -0.084 HD
ATOM     35  H   UNL     1       4.728   0.106   2.530  0.00  0.00    -0.084 HD
ENDBRANCH  20  27
ENDBRANCH   1  21
TORSDOF 4
