REMARK  Name = ZINC57530883
REMARK  15 active torsions:
REMARK  status: ('A' for Active; 'I' for Inactive)
REMARK    1  A    between atoms: C_1  and  C_2
REMARK    2  A    between atoms: C_4  and  C_41
REMARK    3  A    between atoms: C_9  and  C_14
REMARK    4  A    between atoms: C_14  and  C_16
REMARK    5  A    between atoms: C_14  and  N_25
REMARK    6  A    between atoms: N_20  and  C_21
REMARK    7  A    between atoms: C_21  and  C_22
REMARK    8  A    between atoms: C_21  and  C_23
REMARK    9  A    between atoms: C_21  and  C_24
REMARK   10  A    between atoms: N_25  and  C_26
REMARK   11  A    between atoms: N_25  and  C_35
REMARK   12  A    between atoms: C_26  and  C_27
REMARK   13  A    between atoms: C_30  and  O_33
REMARK   14  A    between atoms: O_33  and  C_34
REMARK   15  A    between atoms: C_35  and  C_36
REMARK                            x       y       z     vdW  Elec       q    Type
REMARK                         _______ _______ _______ _____ _____    ______ ____
ROOT
ATOM      1  C   UNL     1       0.046  -4.336   2.931  0.00  0.00    +0.163 C 
ENDROOT
BRANCH   1  10
ATOM      2  C   UNL     1       1.726   1.878  -0.836  0.00  0.00    +0.044 C 
ATOM      3  C   UNL     1       1.341   0.421  -0.808  0.00  0.00    -0.050 A 
ATOM      4  C   UNL     1       1.173  -0.269  -2.002  0.00  0.00    +0.008 A 
ATOM      5  C   UNL     1       0.821  -1.601  -2.000  0.00  0.00    -0.026 A 
ATOM      6  C   UNL     1       0.633  -2.264  -0.792  0.00  0.00    +0.052 A 
ATOM      7  C   UNL     1       0.805  -1.562   0.416  0.00  0.00    -0.001 A 
ATOM      8  C   UNL     1       1.167  -0.211   0.390  0.00  0.00    +0.013 A 
ATOM      9  C   UNL     1       0.605  -2.268   1.683  0.00  0.00    +0.021 A 
ATOM     10  C   UNL     1       0.260  -3.579   1.645  0.00  0.00    +0.042 A 
ATOM     11  C   UNL     1       0.100  -4.237   0.407  0.00  0.00    +0.254 A 
ATOM     12  O   UNL     1      -0.211  -5.416   0.397  0.00  0.00    -0.268 OA
ATOM     13  N   UNL     1       0.282  -3.597  -0.761  0.00  0.00    -0.322 N 
ATOM     14  H   UNL     1       0.163  -4.079  -1.594  0.00  0.00    +0.169 HD
ATOM     15  C   UNL     1       0.640  -2.337  -3.303  0.00  0.00    +0.046 C 
ENDBRANCH   1  10
BRANCH   1  16
ATOM     16  C   UNL     1      -1.397  -4.756   3.033  0.00  0.00    +0.174 A 
ATOM     17  N   UNL     1      -1.981  -5.720   2.364  0.00  0.00    -0.111 NA
ATOM     18  N   UNL     1      -3.215  -5.768   2.730  0.00  0.00    -0.023 NA
ATOM     19  N   UNL     1      -3.434  -4.859   3.616  0.00  0.00    -0.043 NA
ATOM     20  N   UNL     1      -2.336  -4.218   3.833  0.00  0.00    -0.222 N 
BRANCH  20  21
ATOM     21  C   UNL     1      -2.148  -3.110   4.773  0.00  0.00    +0.059 C 
ATOM     22  C   UNL     1      -1.618  -1.887   4.020  0.00  0.00    +0.036 C 
ATOM     23  C   UNL     1      -3.486  -2.764   5.429  0.00  0.00    +0.036 C 
ATOM     24  C   UNL     1      -1.143  -3.520   5.851  0.00  0.00    +0.036 C 
ENDBRANCH  20  21
ENDBRANCH   1  16
BRANCH   1  25
ATOM     25  N   UNL     1       0.905  -5.527   2.946  0.00  0.00    -0.277 NA
BRANCH  25  26
ATOM     26  C   UNL     1       0.835  -6.210   4.245  0.00  0.00    +0.121 C 
BRANCH  26  27
ATOM     27  C   UNL     1      -0.368  -7.118   4.271  0.00  0.00    -0.033 A 
ATOM     28  C   UNL     1      -1.551  -6.680   4.837  0.00  0.00    +0.008 A 
ATOM     29  C   UNL     1      -2.655  -7.510   4.862  0.00  0.00    +0.046 A 
ATOM     30  C   UNL     1      -2.576  -8.784   4.318  0.00  0.00    +0.120 A 
ATOM     31  C   UNL     1      -1.388  -9.220   3.749  0.00  0.00    +0.046 A 
ATOM     32  C   UNL     1      -0.289  -8.385   3.722  0.00  0.00    +0.008 A 
BRANCH  30  33
ATOM     33  O   UNL     1      -3.661  -9.602   4.341  0.00  0.00    -0.495 OA
ATOM     34  C   UNL     1      -3.507 -10.900   3.763  0.00  0.00    +0.277 C 
ENDBRANCH  30  33
ENDBRANCH  26  27
ENDBRANCH  25  26
BRANCH  25  35
ATOM     35  C   UNL     1       2.292  -5.181   2.609  0.00  0.00    +0.160 C 
BRANCH  35  36
ATOM     36  C   UNL     1       3.051  -6.434   2.255  0.00  0.00    +0.119 A 
ATOM     37  C   UNL     1       3.237  -6.917   1.014  0.00  0.00    +0.046 A 
ATOM     38  C   UNL     1       3.999  -8.101   1.145  0.00  0.00    +0.041 A 
ATOM     39  C   UNL     1       4.233  -8.270   2.459  0.00  0.00    +0.195 A 
ATOM     40  O   UNL     1       3.662  -7.254   3.126  0.00  0.00    -0.467 OA
ENDBRANCH  35  36
ENDBRANCH  25  35
ENDBRANCH   1  25
TORSDOF 9
