REMARK  Name = ZINC18935296
REMARK  12 active torsions:
REMARK  status: ('A' for Active; 'I' for Inactive)
REMARK    1  A    between atoms: C_1  and  C_2
REMARK    2  A    between atoms: C_3  and  C_27
REMARK    3  A    between atoms: C_4  and  N_11
REMARK    4  A    between atoms: C_6  and  C_7
REMARK    5  A    between atoms: C_7  and  O_9
REMARK    6  A    between atoms: O_9  and  C_10
REMARK    7  A    between atoms: C_12  and  C_14
REMARK    8  A    between atoms: C_14  and  N_56
REMARK    9  A    between atoms: C_15  and  N_56
REMARK   10  A    between atoms: C_16  and  N_56
REMARK   11  A    between atoms: C_27  and  O_29
REMARK   12  A    between atoms: O_29  and  C_30
REMARK                            x       y       z     vdW  Elec       q    Type
REMARK                         _______ _______ _______ _____ _____    ______ ____
ROOT
ATOM      1  N   UNL     1       0.726  -0.292  -2.552  0.00  0.00    -0.281 N 
ATOM      2  C   UNL     1       0.519  -1.128  -3.589  0.00  0.00    +0.201 C 
ATOM      3  O   UNL     1       0.642  -2.325  -3.436  0.00  0.00    -0.278 OA
ATOM      4  H   UNL     1       0.628   0.665  -2.674  0.00  0.00    +0.155 HD
ENDROOT
BRANCH   1   8
ATOM      5  C   UNL     1       1.969  -0.171   2.309  0.00  0.00    +0.046 C 
ATOM      6  C   UNL     1       1.674  -0.842   0.992  0.00  0.00    -0.014 A 
ATOM      7  C   UNL     1       1.331  -0.102  -0.129  0.00  0.00    +0.091 A 
ATOM      8  C   UNL     1       1.076  -0.798  -1.316  0.00  0.00    +0.087 A 
ATOM      9  S   UNL     1       1.310  -2.452  -0.853  0.00  0.00    -0.066 S 
ATOM     10  C   UNL     1       1.730  -2.204   0.862  0.00  0.00    +0.102 A 
BRANCH  10  11
ATOM     11  C   UNL     1       2.059  -3.205   1.876  0.00  0.00    +0.346 C 
ATOM     12  O   UNL     1       2.325  -2.857   3.011  0.00  0.00    -0.244 OA
BRANCH  11  13
ATOM     13  O   UNL     1       2.068  -4.515   1.552  0.00  0.00    -0.464 OA
ATOM     14  C   UNL     1       2.398  -5.438   2.592  0.00  0.00    +0.280 C 
ENDBRANCH  11  13
ENDBRANCH  10  11
BRANCH   7  15
ATOM     15  C   UNL     1       1.243   1.361  -0.074  0.00  0.00    +0.342 C 
ATOM     16  O   UNL     1       0.187   1.897   0.203  0.00  0.00    -0.245 OA
BRANCH  15  17
ATOM     17  O   UNL     1       2.331   2.112  -0.337  0.00  0.00    -0.464 OA
ATOM     18  C   UNL     1       2.171   3.554  -0.265  0.00  0.00    +0.280 C 
ENDBRANCH  15  17
ENDBRANCH   7  15
ENDBRANCH   1   8
BRANCH   2  19
ATOM     19  C   UNL     1       0.137  -0.576  -4.938  0.00  0.00    +0.019 C 
BRANCH  19  21
ATOM     20  C   UNL     1      -1.300  -2.384  -5.667  0.00  0.00    -0.095 C 
ATOM     21  N   UNL     1      -0.008  -1.701  -5.886  0.00  0.00    +0.388 N 
ATOM     22  H   UNL     1       0.754  -2.370  -5.728  0.00  0.00    -0.081 HD
BRANCH  21  23
ATOM     23  C   UNL     1       0.071  -1.203  -7.276  0.00  0.00    -0.037 C 
ATOM     24  C   UNL     1      -1.125  -0.305  -7.586  0.00  0.00    -0.010 C 
ATOM     25  C   UNL     1      -1.119   0.006  -9.087  0.00  0.00    +0.003 C 
ATOM     26  C   UNL     1      -1.473  -1.271  -9.845  0.00  0.00    +0.035 C 
ATOM     27  C   UNL     1      -0.604  -2.415  -9.391  0.00  0.00    -0.046 A 
ATOM     28  C   UNL     1       0.102  -2.385  -8.209  0.00  0.00    -0.058 A 
ATOM     29  C   UNL     1       0.880  -3.476  -7.845  0.00  0.00    +0.002 A 
ATOM     30  C   UNL     1       0.954  -4.587  -8.659  0.00  0.00    +0.000 A 
ATOM     31  C   UNL     1       0.248  -4.616  -9.847  0.00  0.00    +0.000 A 
ATOM     32  C   UNL     1      -0.527  -3.534 -10.210  0.00  0.00    +0.004 A 
ENDBRANCH  21  23
ENDBRANCH  19  21
ENDBRANCH   2  19
TORSDOF 8
