REMARK  Name = ZINC05265520
REMARK  4 active torsions:
REMARK  status: ('A' for Active; 'I' for Inactive)
REMARK    1  A    between atoms: C_1  and  O_2
REMARK    2  A    between atoms: O_2  and  C_3
REMARK    3  A    between atoms: C_6  and  C_9
REMARK    4  A    between atoms: C_9  and  C_23
REMARK                            x       y       z     vdW  Elec       q    Type
REMARK                         _______ _______ _______ _____ _____    ______ ____
ROOT
ATOM      1  C   UNL     1       1.527   0.036   6.140  0.00  0.00    +0.163 C 
ATOM      2  C   UNL     1       3.039  -0.147   5.981  0.00  0.00    +0.114 C 
ATOM      3  C   UNL     1       3.657  -0.159   7.360  0.00  0.00    +0.121 A 
ATOM      4  N   UNL     1       4.744  -0.744   7.752  0.00  0.00    -0.232 NA
ATOM      5  C   UNL     1       4.949  -0.487   9.060  0.00  0.00    +0.090 A 
ATOM      6  C   UNL     1       5.965  -0.876   9.940  0.00  0.00    +0.030 A 
ATOM      7  C   UNL     1       5.871  -0.428  11.245  0.00  0.00    +0.002 A 
ATOM      8  C   UNL     1       4.825   0.371  11.673  0.00  0.00    +0.002 A 
ATOM      9  C   UNL     1       3.808   0.768  10.820  0.00  0.00    +0.028 A 
ATOM     10  C   UNL     1       3.878   0.329   9.503  0.00  0.00    +0.078 A 
ATOM     11  N   UNL     1       3.077   0.517   8.415  0.00  0.00    -0.250 N 
ATOM     12  C   UNL     1       1.923   1.199   8.274  0.00  0.00    +0.321 C 
ATOM     13  O   UNL     1       1.522   1.924   9.163  0.00  0.00    -0.249 OA
ATOM     14  N   UNL     1       1.222   1.062   7.132  0.00  0.00    -0.279 N 
ATOM     15  H   UNL     1       0.485   1.670   6.963  0.00  0.00    +0.152 HD
ENDROOT
BRANCH   1  19
ATOM     16  C   UNL     1      -0.149   1.182   2.380  0.00  0.00    +0.120 A 
ATOM     17  C   UNL     1       0.991   0.392   2.421  0.00  0.00    +0.046 A 
ATOM     18  C   UNL     1       1.534   0.028   3.638  0.00  0.00    +0.009 A 
ATOM     19  C   UNL     1       0.936   0.440   4.814  0.00  0.00    -0.015 A 
ATOM     20  C   UNL     1      -0.203   1.223   4.776  0.00  0.00    +0.009 A 
ATOM     21  C   UNL     1      -0.747   1.595   3.561  0.00  0.00    +0.046 A 
BRANCH  16  23
ATOM     22  C   UNL     1      -0.013   1.086   0.008  0.00  0.00    +0.277 C 
ATOM     23  O   UNL     1      -0.682   1.547   1.184  0.00  0.00    -0.495 OA
ENDBRANCH  16  23
ENDBRANCH   1  19
BRANCH   1  24
ATOM     24  C   UNL     1       0.905  -1.290   6.583  0.00  0.00    +0.415 C 
ATOM     25  F   UNL     1       1.177  -2.275   5.627  0.00  0.00    -0.168 F 
ATOM     26  F   UNL     1       1.448  -1.672   7.814  0.00  0.00    -0.168 F 
ATOM     27  F   UNL     1      -0.480  -1.136   6.712  0.00  0.00    -0.168 F 
ENDBRANCH   1  24
TORSDOF 3
