REMARK  Name = ZINC09377057
REMARK  9 active torsions:
REMARK  status: ('A' for Active; 'I' for Inactive)
REMARK    1  A    between atoms: C_1  and  C_2
REMARK    2  A    between atoms: C_2  and  C_4
REMARK    3  A    between atoms: C_2  and  N_61
REMARK    4  A    between atoms: N_6  and  C_7
REMARK    5  A    between atoms: C_9  and  S_14
REMARK    6  A    between atoms: S_14  and  N_17
REMARK    7  A    between atoms: C_23  and  C_25
REMARK    8  A    between atoms: C_23  and  C_31
REMARK    9  A    between atoms: C_23  and  N_61
REMARK                            x       y       z     vdW  Elec       q    Type
REMARK                         _______ _______ _______ _____ _____    ______ ____
ROOT
ATOM      1  C   UNL     1      -0.469   5.706  -3.021  0.00  0.00    +0.203 C 
ATOM      2  O   UNL     1       0.178   5.368  -2.052  0.00  0.00    -0.277 OA
ATOM      3  N   UNL     1      -1.300   4.827  -3.616  0.00  0.00    -0.286 N 
ATOM      4  H   UNL     1      -1.756   5.071  -4.437  0.00  0.00    +0.155 HD
ENDROOT
BRANCH   3   5
ATOM      5  C   UNL     1      -1.505   3.564  -3.050  0.00  0.00    +0.054 A 
ATOM      6  C   UNL     1      -1.308   3.371  -1.689  0.00  0.00    +0.053 A 
ATOM      7  C   UNL     1      -1.510   2.123  -1.133  0.00  0.00    +0.107 A 
ATOM      8  C   UNL     1      -1.904   1.064  -1.931  0.00  0.00    +0.030 A 
ATOM      9  C   UNL     1      -2.106   1.253  -3.286  0.00  0.00    +0.024 A 
ATOM     10  C   UNL     1      -1.905   2.499  -3.849  0.00  0.00    +0.062 A 
ATOM     11 CL   UNL     1      -2.154   2.735  -5.550  0.00  0.00    -0.082 Cl
BRANCH   7  12
ATOM     12  S   UNL     1      -1.260   1.877   0.594  0.00  0.00    +0.061 S 
ATOM     13  O   UNL     1      -0.987   0.494   0.772  0.00  0.00    -0.153 OA
ATOM     14  O   UNL     1      -0.362   2.892   1.022  0.00  0.00    -0.153 OA
BRANCH  12  15
ATOM     15  N   UNL     1      -2.705   2.176   1.345  0.00  0.00    -0.177 NA
ATOM     16  C   UNL     1      -3.038   3.526   1.817  0.00  0.00    +0.109 C 
ATOM     17  C   UNL     1      -4.399   3.928   1.228  0.00  0.00    +0.017 C 
ATOM     18  C   UNL     1      -5.438   2.863   1.586  0.00  0.00    +0.003 C 
ATOM     19  C   UNL     1      -5.027   1.521   0.976  0.00  0.00    +0.017 C 
ATOM     20  C   UNL     1      -3.675   1.093   1.558  0.00  0.00    +0.109 C 
ENDBRANCH  12  15
ENDBRANCH   7  12
ENDBRANCH   3   5
BRANCH   1  22
ATOM     21  C   UNL     1      -1.708   7.798  -3.508  0.00  0.00    -0.004 C 
ATOM     22  C   UNL     1      -0.344   7.108  -3.559  0.00  0.00    +0.014 C 
BRANCH  22  23
ATOM     23  N   UNL     1       0.619   7.860  -2.732  0.00  0.00    +0.391 N 
ATOM     24  H   UNL     1       1.364   7.226  -2.419  0.00  0.00    -0.084 HD
ATOM     25  H   UNL     1       0.133   8.247  -1.915  0.00  0.00    -0.084 HD
BRANCH  23  26
ATOM     26  C   UNL     1       1.214   8.961  -3.513  0.00  0.00    -0.037 C 
BRANCH  26  27
ATOM     27  C   UNL     1       1.679  10.041  -2.569  0.00  0.00    -0.061 A 
ATOM     28  C   UNL     1       2.280   9.701  -1.372  0.00  0.00    +0.002 A 
ATOM     29  C   UNL     1       2.710  10.691  -0.509  0.00  0.00    +0.000 A 
ATOM     30  C   UNL     1       2.530  12.022  -0.839  0.00  0.00    +0.000 A 
ATOM     31  C   UNL     1       1.924  12.361  -2.034  0.00  0.00    +0.000 A 
ATOM     32  C   UNL     1       1.498  11.371  -2.899  0.00  0.00    +0.002 A 
ENDBRANCH  26  27
BRANCH  26  33
ATOM     33  C   UNL     1       2.408   8.434  -4.312  0.00  0.00    -0.021 C 
ATOM     34  C   UNL     1       3.802   8.905  -3.893  0.00  0.00    +0.002 C 
ATOM     35  C   UNL     1       3.171   9.434  -5.183  0.00  0.00    +0.002 C 
ENDBRANCH  26  33
ENDBRANCH  23  26
ENDBRANCH  22  23
ENDBRANCH   1  22
TORSDOF 8
