REMARK  Name = ZINC23858728
REMARK  7 active torsions:
REMARK  status: ('A' for Active; 'I' for Inactive)
REMARK    1  A    between atoms: C_1  and  N_2
REMARK    2  A    between atoms: C_10  and  C_12
REMARK    3  A    between atoms: C_12  and  C_14
REMARK    4  A    between atoms: C_12  and  N_28
REMARK    5  A    between atoms: C_14  and  N_15
REMARK    6  A    between atoms: C_16  and  C_18
REMARK    7  A    between atoms: C_21  and  N_25
REMARK                            x       y       z     vdW  Elec       q    Type
REMARK                         _______ _______ _______ _____ _____    ______ ____
ROOT
ATOM      1  C   UNL     1      -0.997   2.299   2.442  0.00  0.00    -0.020 C 
ENDROOT
BRANCH   1  11
ATOM      2  C   UNL     1       4.695   1.899   5.154  0.00  0.00    +0.129 C 
ATOM      3  N   UNL     1       3.974   0.712   4.675  0.00  0.00    -0.333 N 
ATOM      4  C   UNL     1       3.890  -0.309   5.721  0.00  0.00    +0.105 C 
ATOM      5  C   UNL     1       3.106  -1.508   5.175  0.00  0.00    +0.024 C 
ATOM      6  C   UNL     1       1.652  -1.072   4.980  0.00  0.00    +0.038 C 
ATOM      7  C   UNL     1       1.613   0.253   4.261  0.00  0.00    -0.026 A 
ATOM      8  C   UNL     1       2.731   1.061   4.150  0.00  0.00    +0.033 A 
ATOM      9  C   UNL     1       2.629   2.283   3.482  0.00  0.00    +0.023 A 
ATOM     10  C   UNL     1       1.431   2.678   2.928  0.00  0.00    +0.004 A 
ATOM     11  C   UNL     1       0.316   1.867   3.043  0.00  0.00    -0.059 A 
ATOM     12  C   UNL     1       0.409   0.659   3.706  0.00  0.00    +0.007 A 
ENDBRANCH   1  11
BRANCH   1  13
ATOM     13  N   UNL     1      -1.270   3.693   2.813  0.00  0.00    +0.385 N 
ATOM     14  C   UNL     1      -2.663   4.074   2.463  0.00  0.00    -0.078 C 
ATOM     15  C   UNL     1      -2.930   5.307   3.362  0.00  0.00    -0.020 C 
ATOM     16  C   UNL     1      -2.202   4.941   4.676  0.00  0.00    -0.020 C 
ATOM     17  C   UNL     1      -1.156   3.885   4.275  0.00  0.00    -0.078 C 
ATOM     18  H   UNL     1      -0.532   4.299   2.268  0.00  0.00    -0.081 HD
ENDBRANCH   1  13
BRANCH   1  19
ATOM     19  C   UNL     1      -0.922   2.182   0.918  0.00  0.00    +0.094 C 
BRANCH  19  20
ATOM     20  N   UNL     1      -2.249   2.419   0.345  0.00  0.00    -0.313 N 
ATOM     21  C   UNL     1      -2.397   2.526  -0.991  0.00  0.00    +0.245 C 
ATOM     22  O   UNL     1      -1.429   2.425  -1.720  0.00  0.00    -0.270 OA
ATOM     23  H   UNL     1      -3.125   2.511   1.004  0.00  0.00    +0.149 HD
BRANCH  21  24
ATOM     24  C   UNL     1      -3.736   2.765  -1.569  0.00  0.00    +0.055 A 
ATOM     25  C   UNL     1      -4.849   2.882  -0.735  0.00  0.00    +0.017 A 
ATOM     26  C   UNL     1      -6.096   3.105  -1.281  0.00  0.00    +0.033 A 
ATOM     27  C   UNL     1      -6.245   3.215  -2.653  0.00  0.00    +0.128 A 
ATOM     28  C   UNL     1      -5.147   3.101  -3.486  0.00  0.00    +0.053 A 
ATOM     29  C   UNL     1      -3.892   2.882  -2.952  0.00  0.00    +0.055 A 
ATOM     30 CL   UNL     1      -2.513   2.747  -3.998  0.00  0.00    -0.083 Cl
BRANCH  27  31
ATOM     31  N   UNL     1      -7.586   3.455  -3.231  0.00  0.00    +0.056 N 
ATOM     32  O   UNL     1      -8.555   3.557  -2.500  0.00  0.00    -0.126 OA
ATOM     33  O   UNL     1      -7.721   3.552  -4.438  0.00  0.00    -0.126 OA
ENDBRANCH  27  31
ENDBRANCH  21  24
ENDBRANCH  19  20
ENDBRANCH   1  19
TORSDOF 6
