REMARK  Name = ZINC35745679
REMARK  9 active torsions:
REMARK  status: ('A' for Active; 'I' for Inactive)
REMARK    1  A    between atoms: C_1  and  C_2
REMARK    2  A    between atoms: C_2  and  C_3
REMARK    3  A    between atoms: C_2  and  C_29
REMARK    4  A    between atoms: C_2  and  O_31
REMARK    5  A    between atoms: C_3  and  N_4
REMARK    6  A    between atoms: N_4  and  C_5
REMARK    7  A    between atoms: N_4  and  C_23
REMARK    8  A    between atoms: C_5  and  C_6
REMARK    9  A    between atoms: C_12  and  C_17
REMARK                            x       y       z     vdW  Elec       q    Type
REMARK                         _______ _______ _______ _____ _____    ______ ____
ROOT
ATOM      1  C   UNL     1       2.197   0.062   3.542  0.00  0.00    +0.094 A 
ATOM      2  N   UNL     1       3.073  -0.278   4.521  0.00  0.00    -0.312 N 
ATOM      3  H   UNL     1       2.835  -0.977   5.150  0.00  0.00    +0.170 HD
ATOM      4  C   UNL     1       4.266   0.335   4.635  0.00  0.00    +0.260 A 
ATOM      5  O   UNL     1       5.043   0.017   5.520  0.00  0.00    -0.267 OA
ATOM      6  C   UNL     1       4.609   1.365   3.703  0.00  0.00    +0.080 A 
ATOM      7  C   UNL     1       5.824   2.166   3.619  0.00  0.00    +0.004 A 
ATOM      8  C   UNL     1       5.926   3.095   2.637  0.00  0.00    +0.056 A 
ATOM      9  S   UNL     1       4.380   2.942   1.763  0.00  0.00    -0.076 S 
ATOM     10  C   UNL     1       3.640   1.649   2.726  0.00  0.00    +0.116 A 
ATOM     11  N   UNL     1       2.483   0.994   2.673  0.00  0.00    -0.229 NA
ENDROOT
BRANCH   7  12
ATOM     12  C   UNL     1       6.927   1.969   4.589  0.00  0.00    -0.017 A 
ATOM     13  C   UNL     1       6.660   1.946   5.957  0.00  0.00    +0.008 A 
ATOM     14  C   UNL     1       7.691   1.762   6.856  0.00  0.00    +0.001 A 
ATOM     15  C   UNL     1       8.987   1.600   6.402  0.00  0.00    +0.000 A 
ATOM     16  C   UNL     1       9.259   1.623   5.046  0.00  0.00    +0.001 A 
ATOM     17  C   UNL     1       8.235   1.801   4.137  0.00  0.00    +0.008 A 
ENDBRANCH   7  12
BRANCH   1  18
ATOM     18  C   UNL     1       0.873  -0.652   3.452  0.00  0.00    -0.003 C 
BRANCH  18  19
ATOM     19  N   UNL     1       0.105  -0.120   2.318  0.00  0.00    +0.388 N 
ATOM     20  H   UNL     1      -0.060   0.866   2.457  0.00  0.00    -0.081 HD
BRANCH  19  21
ATOM     21  C   UNL     1      -1.182  -0.823   2.225  0.00  0.00    -0.068 C 
ATOM     22  C   UNL     1      -1.879  -0.438   0.918  0.00  0.00    -0.015 C 
ATOM     23  C   UNL     1      -3.219  -1.170   0.821  0.00  0.00    -0.002 C 
ATOM     24  C   UNL     1      -4.103  -0.776   2.006  0.00  0.00    -0.000 C 
ATOM     25  C   UNL     1      -3.405  -1.160   3.312  0.00  0.00    -0.002 C 
ATOM     26  C   UNL     1      -2.065  -0.428   3.410  0.00  0.00    -0.015 C 
ENDBRANCH  19  21
BRANCH  19  27
ATOM     27  C   UNL     1       0.863  -0.319   1.076  0.00  0.00    -0.039 C 
BRANCH  27  29
ATOM     28  C   UNL     1       0.348  -2.755   1.289  0.00  0.00    +0.044 C 
ATOM     29  C   UNL     1       1.460  -1.728   1.064  0.00  0.00    +0.067 C 
BRANCH  29  30
ATOM     30  C   UNL     1       2.117  -1.984  -0.268  0.00  0.00    -0.003 C 
ATOM     31  C   UNL     1       3.397  -2.259  -0.325  0.00  0.00    +0.006 C 
ENDBRANCH  29  30
BRANCH  29  32
ATOM     32  O   UNL     1       2.432  -1.843   2.105  0.00  0.00    -0.387 OA
ATOM     33  H   UNL     1       3.156  -1.206   2.038  0.00  0.00    +0.210 HD
ENDBRANCH  29  32
ENDBRANCH  27  29
ENDBRANCH  19  27
ENDBRANCH  18  19
ENDBRANCH   1  18
TORSDOF 8
