REMARK  Name = ZINC39944297
REMARK  17 active torsions:
REMARK  status: ('A' for Active; 'I' for Inactive)
REMARK    1  A    between atoms: C_1  and  C_2
REMARK    2  A    between atoms: C_2  and  O_3
REMARK    3  A    between atoms: O_3  and  C_4
REMARK    4  A    between atoms: C_4  and  C_6
REMARK    5  A    between atoms: C_6  and  C_7
REMARK    6  A    between atoms: C_7  and  C_8
REMARK    7  A    between atoms: C_9  and  C_20
REMARK    8  A    between atoms: C_10  and  C_19
REMARK    9  A    between atoms: C_12  and  C_14
REMARK   10  A    between atoms: C_14  and  O_16
REMARK   11  A    between atoms: O_16  and  C_17
REMARK   12  A    between atoms: C_17  and  C_18
REMARK   13  A    between atoms: C_20  and  O_22
REMARK   14  A    between atoms: O_22  and  C_23
REMARK   15  A    between atoms: C_23  and  C_24
REMARK   16  A    between atoms: C_23  and  C_25
REMARK   17  A    between atoms: C_23  and  C_26
REMARK                            x       y       z     vdW  Elec       q    Type
REMARK                         _______ _______ _______ _____ _____    ______ ____
ROOT
ATOM      1  C   UNL     1       2.142  -4.442  -3.704  0.00  0.00    -0.019 C 
ATOM      2  C   UNL     1       3.432  -4.828  -3.802  0.00  0.00    +0.081 C 
ATOM      3  C   UNL     1       3.685  -5.313  -5.167  0.00  0.00    +0.048 C 
ATOM      4  N   UNL     1       2.620  -5.239  -5.890  0.00  0.00    -0.269 NA
ATOM      5  C   UNL     1       1.534  -4.695  -5.066  0.00  0.00    +0.240 C 
ATOM      6  C   UNL     1       5.014  -5.828  -5.656  0.00  0.00    +0.066 C 
ENDROOT
BRANCH   5   7
ATOM      7  C   UNL     1       1.030  -3.404  -5.660  0.00  0.00    +0.336 C 
ATOM      8  O   UNL     1       1.692  -2.820  -6.484  0.00  0.00    -0.248 OA
BRANCH   7   9
ATOM      9  O   UNL     1      -0.153  -2.904  -5.271  0.00  0.00    -0.463 OA
BRANCH   9  10
ATOM     10  C   UNL     1      -0.568  -1.677  -5.875  0.00  0.00    +0.229 C 
ATOM     11  C   UNL     1      -1.930  -1.266  -5.312  0.00  0.00    +0.048 C 
ENDBRANCH   9  10
ENDBRANCH   7   9
ENDBRANCH   5   7
BRANCH   2  12
ATOM     12  C   UNL     1       4.428  -4.771  -2.714  0.00  0.00    +0.341 C 
ATOM     13  O   UNL     1       4.109  -4.350  -1.620  0.00  0.00    -0.245 OA
BRANCH  12  14
ATOM     14  O   UNL     1       5.690  -5.187  -2.934  0.00  0.00    -0.455 OA
BRANCH  14  15
ATOM     15  C   UNL     1       6.601  -5.104  -1.837  0.00  0.00    +0.106 C 
ATOM     16  C   UNL     1       6.084  -5.959  -0.678  0.00  0.00    +0.055 C 
ATOM     17  C   UNL     1       7.975  -5.616  -2.275  0.00  0.00    +0.055 C 
ATOM     18  C   UNL     1       6.721  -3.648  -1.382  0.00  0.00    +0.055 C 
ENDBRANCH  14  15
ENDBRANCH  12  14
ENDBRANCH   2  12
BRANCH   1  19
ATOM     19  C   UNL     1       1.449  -3.882  -2.489  0.00  0.00    +0.045 C 
BRANCH  19  20
ATOM     20  C   UNL     1       1.468  -2.353  -2.550  0.00  0.00    +0.125 C 
BRANCH  20  21
ATOM     21  C   UNL     1       0.775  -1.794  -1.334  0.00  0.00    +0.307 C 
ATOM     22  O   UNL     1       0.314  -2.540  -0.504  0.00  0.00    -0.251 OA
BRANCH  21  23
ATOM     23  O   UNL     1       0.671  -0.465  -1.174  0.00  0.00    -0.465 OA
BRANCH  23  25
ATOM     24  C   UNL     1      -0.019   1.526   0.010  0.00  0.00    +0.048 C 
ATOM     25  C   UNL     1       0.002  -0.004   0.002  0.00  0.00    +0.229 C 
ENDBRANCH  23  25
ENDBRANCH  21  23
ENDBRANCH  20  21
ENDBRANCH  19  20
ENDBRANCH   1  19
TORSDOF 11
