REMARK  Name = ZINC26128938
REMARK  5 active torsions:
REMARK  status: ('A' for Active; 'I' for Inactive)
REMARK    1  A    between atoms: N_7  and  C_11
REMARK    2  A    between atoms: C_11  and  C_12
REMARK    3  A    between atoms: C_12  and  S_13
REMARK    4  A    between atoms: S_13  and  C_14
REMARK    5  A    between atoms: C_18  and  N_20
REMARK                            x       y       z     vdW  Elec       q    Type
REMARK                         _______ _______ _______ _____ _____    ______ ____
ROOT
ATOM      1  S   UNL     1      -3.092   3.579   1.479  0.00  0.00    -0.084 S 
ENDROOT
BRANCH   1   2
ATOM      2  C   UNL     1      -3.333   3.747   3.217  0.00  0.00    +0.192 A 
ATOM      3  N   UNL     1      -2.495   3.142   4.046  0.00  0.00    -0.207 NA
ATOM      4  C   UNL     1      -2.642   3.251   5.364  0.00  0.00    +0.122 A 
ATOM      5  C   UNL     1      -3.700   4.004   5.867  0.00  0.00    +0.086 A 
ATOM      6  C   UNL     1      -4.562   4.620   4.966  0.00  0.00    +0.122 A 
ATOM      7  N   UNL     1      -4.350   4.471   3.660  0.00  0.00    -0.207 NA
ATOM      8  N   UNL     1      -1.758   2.620   6.224  0.00  0.00    -0.343 N 
ATOM      9  H   UNL     1      -1.887   2.715   7.313  0.00  0.00    +0.144 HD
ATOM     10  H   UNL     1      -0.927   2.023   5.819  0.00  0.00    +0.144 HD
BRANCH   6  11
ATOM     11  N   UNL     1      -5.628   5.380   5.421  0.00  0.00    -0.343 N 
ATOM     12  H   UNL     1      -6.306   5.864   4.702  0.00  0.00    +0.144 HD
ATOM     13  H   UNL     1      -5.797   5.499   6.502  0.00  0.00    +0.144 HD
ENDBRANCH   6  11
ENDBRANCH   1   2
BRANCH   1  14
ATOM     14  C   UNL     1      -1.618   2.529   1.466  0.00  0.00    +0.099 C 
BRANCH  14  15
ATOM     15  C   UNL     1      -1.210   2.241   0.020  0.00  0.00    +0.140 C 
BRANCH  15  22
ATOM     16  C   UNL     1      -0.651  -2.308  -0.003  0.00  0.00    +0.002 A 
ATOM     17  C   UNL     1       0.680  -2.686  -0.018  0.00  0.00    +0.004 A 
ATOM     18  C   UNL     1       1.677  -1.730  -0.023  0.00  0.00    +0.048 A 
ATOM     19  C   UNL     1       1.344  -0.384  -0.013  0.00  0.00    +0.157 A 
ATOM     20  C   UNL     1       0.002  -0.004   0.002  0.00  0.00    +0.090 A 
ATOM     21  C   UNL     1      -0.993  -0.969   0.007  0.00  0.00    +0.030 A 
ATOM     22  N   UNL     1      -0.017   1.390   0.010  0.00  0.00    -0.273 N 
ATOM     23  C   UNL     1       1.263   1.813  -0.000  0.00  0.00    +0.421 A 
ATOM     24  O   UNL     1       1.619   2.976   0.002  0.00  0.00    -0.223 OA
ATOM     25  O   UNL     1       2.084   0.751  -0.014  0.00  0.00    -0.407 OA
ENDBRANCH  15  22
ENDBRANCH  14  15
ENDBRANCH   1  14
TORSDOF 5
