REMARK  Name = ZINC36305687
REMARK  18 active torsions:
REMARK  status: ('A' for Active; 'I' for Inactive)
REMARK    1  A    between atoms: C_1  and  C_2
REMARK    2  A    between atoms: C_2  and  C_3
REMARK    3  A    between atoms: C_3  and  C_4
REMARK    4  A    between atoms: C_4  and  C_6
REMARK    5  A    between atoms: C_4  and  O_34
REMARK    6  A    between atoms: C_6  and  N_7
REMARK    7  A    between atoms: N_7  and  C_8
REMARK    8  A    between atoms: N_7  and  C_30
REMARK    9  A    between atoms: C_8  and  C_9
REMARK   10  A    between atoms: C_10  and  C_24
REMARK   11  A    between atoms: N_12  and  C_23
REMARK   12  A    between atoms: C_13  and  O_14
REMARK   13  A    between atoms: O_14  and  C_15
REMARK   14  A    between atoms: C_20  and  O_21
REMARK   15  A    between atoms: O_21  and  C_22
REMARK   16  A    between atoms: C_30  and  C_31
REMARK   17  A    between atoms: C_31  and  C_32
REMARK   18  A    between atoms: C_31  and  C_33
REMARK                            x       y       z     vdW  Elec       q    Type
REMARK                         _______ _______ _______ _____ _____    ______ ____
ROOT
ATOM      1  C   UNL     1       2.922  -5.958  -3.741  0.00  0.00    +0.025 A 
ATOM      2  C   UNL     1       4.047  -6.483  -3.078  0.00  0.00    +0.098 A 
ATOM      3  N   UNL     1       4.256  -7.701  -3.528  0.00  0.00    -0.168 NA
ATOM      4  N   UNL     1       3.276  -7.990  -4.486  0.00  0.00    -0.235 N 
ATOM      5  C   UNL     1       2.465  -6.907  -4.597  0.00  0.00    +0.221 A 
ATOM      6  C   UNL     1       3.147  -9.242  -5.235  0.00  0.00    +0.176 C 
ENDROOT
BRANCH   2   7
ATOM      7  C   UNL     1       4.857  -5.783  -2.050  0.00  0.00    +0.002 A 
ATOM      8  C   UNL     1       5.249  -6.453  -0.893  0.00  0.00    +0.010 A 
ATOM      9  C   UNL     1       6.003  -5.798   0.060  0.00  0.00    +0.001 A 
ATOM     10  C   UNL     1       6.369  -4.478  -0.133  0.00  0.00    +0.000 A 
ATOM     11  C   UNL     1       5.982  -3.807  -1.279  0.00  0.00    +0.001 A 
ATOM     12  C   UNL     1       5.234  -4.455  -2.241  0.00  0.00    +0.010 A 
ENDBRANCH   2   7
BRANCH   1  13
ATOM     13  C   UNL     1       2.327  -4.589  -3.533  0.00  0.00    -0.035 C 
BRANCH  13  14
ATOM     14  N   UNL     1       1.086  -4.707  -2.756  0.00  0.00    +0.384 N 
ATOM     15  H   UNL     1       0.476  -5.379  -3.197  0.00  0.00    -0.081 HD
BRANCH  14  16
ATOM     16  C   UNL     1       0.416  -3.401  -2.700  0.00  0.00    -0.047 C 
BRANCH  16  17
ATOM     17  C   UNL     1      -0.959  -3.560  -2.049  0.00  0.00    +0.098 C 
BRANCH  17  18
ATOM     18  O   UNL     1      -1.777  -4.403  -2.864  0.00  0.00    -0.394 OA
ATOM     19  H   UNL     1      -1.921  -4.065  -3.758  0.00  0.00    +0.210 HD
ENDBRANCH  17  18
BRANCH  17  20
ATOM     20  C   UNL     1      -1.620  -2.187  -1.912  0.00  0.00    +0.029 C 
BRANCH  20  22
ATOM     21  C   UNL     1      -3.600  -0.957  -1.013  0.00  0.00    +0.004 C 
ATOM     22  C   UNL     1      -2.939  -2.330  -1.150  0.00  0.00    -0.001 C 
ENDBRANCH  20  22
ENDBRANCH  17  20
ENDBRANCH  16  17
ENDBRANCH  14  16
BRANCH  14  23
ATOM     23  C   UNL     1       1.402  -5.154  -1.393  0.00  0.00    -0.075 C 
BRANCH  23  24
ATOM     24  C   UNL     1       1.531  -6.679  -1.373  0.00  0.00    -0.034 C 
ATOM     25  C   UNL     1       2.000  -7.133   0.011  0.00  0.00    +0.005 C 
ATOM     26  C   UNL     1       0.173  -7.310  -1.683  0.00  0.00    +0.005 C 
ENDBRANCH  23  24
ENDBRANCH  14  23
ENDBRANCH  13  14
ENDBRANCH   1  13
BRANCH   5  27
ATOM     27  O   UNL     1       1.390  -6.793  -5.418  0.00  0.00    -0.434 OA
BRANCH  27  28
ATOM     28  C   UNL     1       1.605  -6.384  -6.697  0.00  0.00    +0.172 A 
ATOM     29  C   UNL     1       2.898  -6.198  -7.159  0.00  0.00    +0.050 A 
ATOM     30  C   UNL     1       3.114  -5.782  -8.460  0.00  0.00    +0.004 A 
ATOM     31  C   UNL     1       2.043  -5.552  -9.302  0.00  0.00    +0.004 A 
ATOM     32  C   UNL     1       0.750  -5.736  -8.848  0.00  0.00    +0.049 A 
ATOM     33  C   UNL     1       0.526  -6.157  -7.547  0.00  0.00    +0.162 A 
BRANCH  33  34
ATOM     34  O   UNL     1      -0.745  -6.345  -7.101  0.00  0.00    -0.491 OA
ATOM     35  C   UNL     1      -1.802  -6.093  -8.028  0.00  0.00    +0.277 C 
ENDBRANCH  33  34
ENDBRANCH  27  28
ENDBRANCH   5  27
TORSDOF 13
