REMARK  Name = ZINC09111689
REMARK  5 active torsions:
REMARK  status: ('A' for Active; 'I' for Inactive)
REMARK    1  A    between atoms: N_12  and  C_16
REMARK    2  A    between atoms: C_16  and  C_17
REMARK    3  A    between atoms: N_19  and  C_20
REMARK    4  A    between atoms: C_22  and  C_32
REMARK    5  A    between atoms: C_25  and  N_26
REMARK                            x       y       z     vdW  Elec       q    Type
REMARK                         _______ _______ _______ _____ _____    ______ ____
ROOT
ATOM      1  C   UNL     1      -1.215  -3.411  -2.559  0.00  0.00    +0.235 C 
ATOM      2  O   UNL     1      -0.422  -3.758  -1.710  0.00  0.00    -0.274 OA
ATOM      3  N   UNL     1      -1.571  -4.266  -3.538  0.00  0.00    -0.283 N 
ATOM      4  H   UNL     1      -2.263  -4.018  -4.171  0.00  0.00    +0.155 HD
ENDROOT
BRANCH   3   5
ATOM      5  C   UNL     1      -0.940  -5.513  -3.643  0.00  0.00    +0.055 A 
ATOM      6  C   UNL     1       0.336  -5.692  -3.131  0.00  0.00    +0.037 A 
ATOM      7  C   UNL     1       0.955  -6.925  -3.231  0.00  0.00    +0.057 A 
ATOM      8  C   UNL     1       0.308  -7.979  -3.850  0.00  0.00    +0.014 A 
ATOM      9  C   UNL     1      -0.962  -7.808  -4.368  0.00  0.00    +0.025 A 
ATOM     10  C   UNL     1      -1.592  -6.576  -4.268  0.00  0.00    +0.051 A 
BRANCH  10  11
ATOM     11  N   UNL     1      -2.877  -6.401  -4.791  0.00  0.00    -0.328 N 
ATOM     12  C   UNL     1      -3.852  -7.242  -4.084  0.00  0.00    +0.105 C 
ATOM     13  C   UNL     1      -5.263  -6.918  -4.582  0.00  0.00    +0.019 C 
ATOM     14  C   UNL     1      -5.338  -7.175  -6.089  0.00  0.00    +0.003 C 
ATOM     15  C   UNL     1      -4.280  -6.323  -6.797  0.00  0.00    +0.019 C 
ATOM     16  C   UNL     1      -2.898  -6.664  -6.235  0.00  0.00    +0.105 C 
ENDBRANCH  10  11
BRANCH   7  17
ATOM     17  C   UNL     1       2.339  -7.118  -2.669  0.00  0.00    +0.417 C 
ATOM     18  F   UNL     1       2.754  -8.435  -2.893  0.00  0.00    -0.166 F 
ATOM     19  F   UNL     1       3.225  -6.237  -3.298  0.00  0.00    -0.166 F 
ATOM     20  F   UNL     1       2.324  -6.862  -1.294  0.00  0.00    -0.166 F 
ENDBRANCH   7  17
ENDBRANCH   3   5
BRANCH   1  21
ATOM     21  C   UNL     1      -1.802  -2.023  -2.521  0.00  0.00    +0.214 C 
BRANCH  21  33
ATOM     22  C   UNL     1       3.883  -0.683   1.645  0.00  0.00    +0.000 A 
ATOM     23  C   UNL     1       3.019  -1.763   1.643  0.00  0.00    +0.000 A 
ATOM     24  C   UNL     1       1.748  -1.627   1.123  0.00  0.00    +0.006 A 
ATOM     25  C   UNL     1       1.330  -0.413   0.603  0.00  0.00    -0.012 A 
ATOM     26  C   UNL     1       2.197   0.668   0.604  0.00  0.00    -0.042 A 
ATOM     27  C   UNL     1       3.471   0.529   1.126  0.00  0.00    +0.004 A 
ATOM     28  C   UNL     1       1.517   1.870  -0.018  0.00  0.00    +0.038 C 
ATOM     29  C   UNL     1       0.009   1.534  -0.008  0.00  0.00    +0.045 C 
ATOM     30  C   UNL     1       0.020  -0.000  -0.010  0.00  0.00    +0.138 C 
ATOM     31  C   UNL     1      -0.138  -0.545  -1.406  0.00  0.00    +0.251 C 
ATOM     32  O   UNL     1       0.588  -0.351  -2.358  0.00  0.00    -0.272 OA
ATOM     33  N   UNL     1      -1.260  -1.296  -1.370  0.00  0.00    -0.215 N 
ATOM     34  C   UNL     1      -1.816  -1.292  -0.151  0.00  0.00    +0.310 C 
ATOM     35  O   UNL     1      -2.833  -1.896   0.130  0.00  0.00    -0.252 OA
ATOM     36  N   UNL     1      -1.121  -0.543   0.728  0.00  0.00    -0.281 N 
ATOM     37  H   UNL     1      -1.333  -0.395   1.663  0.00  0.00    +0.152 HD
ENDBRANCH  21  33
ENDBRANCH   1  21
TORSDOF 5
