REMARK  Name = ZINC36584805
REMARK  11 active torsions:
REMARK  status: ('A' for Active; 'I' for Inactive)
REMARK    1  A    between atoms: CD1_1  and  CG1_2
REMARK    2  A    between atoms: CG1_2  and  CB_3
REMARK    3  A    between atoms: CB_3  and  CG2_5
REMARK    4  A    between atoms: CB_3  and  CA_6
REMARK    5  A    between atoms: CA_6  and  C_8
REMARK    6  A    between atoms: CA_6  and  N_10
REMARK    7  A    between atoms: C_8  and  O_9
REMARK    8  A    between atoms: C_11  and  C_13
REMARK    9  A    between atoms: C_20  and  N_21
REMARK   10  A    between atoms: N_21  and  S_22
REMARK   11  A    between atoms: S_22  and  C_25
REMARK                            x       y       z     vdW  Elec       q    Type
REMARK                         _______ _______ _______ _____ _____    ______ ____
ROOT
ATOM      1  C   UNK A   0       2.504  -4.223  -3.793  0.00  0.00    +0.038 A 
ATOM      2  C   UNK A   0       2.654  -3.380  -4.903  0.00  0.00    +0.015 A 
ATOM      3  C   UNK A   0       3.284  -3.797  -6.028  0.00  0.00    +0.030 A 
ATOM      4  C   UNK A   0       3.818  -5.106  -6.124  0.00  0.00    +0.080 A 
ATOM      5  C   UNK A   0       3.654  -5.939  -4.990  0.00  0.00    +0.042 A 
ATOM      6  C   UNK A   0       3.024  -5.521  -3.851  0.00  0.00    +0.030 A 
ATOM      7  S   UNK A   0       4.441  -7.445  -5.509  0.00  0.00    -0.049 S 
ATOM      8  C   UNK A   0       4.922  -6.896  -7.141  0.00  0.00    +0.202 A 
ATOM      9  N   UNK A   0       4.467  -5.662  -7.166  0.00  0.00    -0.222 NA
ENDROOT
BRANCH   1  11
ATOM     10  N   ILE A   1       1.316  -2.496  -2.534  0.00  0.00    -0.306 N 
ATOM     11  C   UNK A   0       1.813  -3.748  -2.579  0.00  0.00    +0.244 C 
ATOM     12  O   UNK A   0       1.693  -4.485  -1.620  0.00  0.00    -0.270 OA
ATOM     13  H   ILE A   1       1.412  -1.908  -3.299  0.00  0.00    +0.149 HD
BRANCH  10  14
ATOM     14  CA  ILE A   1       0.630  -2.023  -1.329  0.00  0.00    +0.101 C 
BRANCH  14  15
ATOM     15  CB  ILE A   1       0.718  -0.497  -1.257  0.00  0.00    +0.008 C 
ATOM     16  CG2 ILE A   1       2.187  -0.073  -1.207  0.00  0.00    +0.009 C 
BRANCH  15  18
ATOM     17  CD1 ILE A   1      -0.019   1.526   0.010  0.00  0.00    +0.004 C 
ATOM     18  CG1 ILE A   1       0.002  -0.004   0.002  0.00  0.00    +0.002 C 
ENDBRANCH  15  18
ENDBRANCH  14  15
BRANCH  14  19
ATOM     19  C   ILE A   1      -0.839  -2.448  -1.378  0.00  0.00    +0.178 C 
BRANCH  19  20
ATOM     20  O   ILE A   1      -1.489  -1.788  -2.466  0.00  0.00    -0.393 OA
ATOM     21  H   ILE A   1      -2.425  -2.010  -2.558  0.00  0.00    +0.209 HD
ENDBRANCH  19  20
ENDBRANCH  14  19
ENDBRANCH  10  14
ENDBRANCH   1  11
BRANCH   8  22
ATOM     22  N   UNK A   0       5.597  -7.589  -8.122  0.00  0.00    -0.070 NA
BRANCH  22  23
ATOM     23  S   UNK A   0       5.932  -6.859  -9.570  0.00  0.00    +0.093 S 
ATOM     24  O   UNK A   0       4.683  -6.629 -10.207  0.00  0.00    -0.148 OA
ATOM     25  O   UNK A   0       6.850  -5.811  -9.293  0.00  0.00    -0.148 OA
BRANCH  23  26
ATOM     26  C   UNK A   0       6.793  -8.035 -10.560  0.00  0.00    +0.111 A 
ATOM     27  C   UNK A   0       8.173  -8.107 -10.504  0.00  0.00    +0.031 A 
ATOM     28  C   UNK A   0       8.849  -9.029 -11.279  0.00  0.00    +0.040 A 
ATOM     29  C   UNK A   0       8.145  -9.882 -12.112  0.00  0.00    +0.124 A 
ATOM     30  C   UNK A   0       6.763  -9.809 -12.167  0.00  0.00    +0.040 A 
ATOM     31  C   UNK A   0       6.088  -8.890 -11.387  0.00  0.00    +0.031 A 
ATOM     32  F   UNK A   0       8.805 -10.784 -12.871  0.00  0.00    -0.205 F 
ENDBRANCH  23  26
ENDBRANCH  22  23
ENDBRANCH   8  22
TORSDOF 9
