REMARK  Name = ZINC63985878
REMARK  9 active torsions:
REMARK  status: ('A' for Active; 'I' for Inactive)
REMARK    1  A    between atoms: C_1  and  O_2
REMARK    2  A    between atoms: O_2  and  C_3
REMARK    3  A    between atoms: C_3  and  C_4
REMARK    4  A    between atoms: C_4  and  C_5
REMARK    5  A    between atoms: C_5  and  N_6
REMARK    6  A    between atoms: N_9  and  C_29
REMARK    7  A    between atoms: N_15  and  C_18
REMARK    8  A    between atoms: C_18  and  C_19
REMARK    9  A    between atoms: C_29  and  C_30
REMARK                            x       y       z     vdW  Elec       q    Type
REMARK                         _______ _______ _______ _____ _____    ______ ____
ROOT
ATOM      1  N   UNL     1      -2.804  -4.428   0.224  0.00  0.00    -0.271 N 
ATOM      2  C   UNL     1      -2.784  -5.351  -0.757  0.00  0.00    +0.312 C 
ATOM      3  O   UNL     1      -2.843  -5.082  -1.940  0.00  0.00    -0.252 OA
ATOM      4  N   UNL     1      -2.690  -6.599  -0.281  0.00  0.00    -0.220 N 
ATOM      5  C   UNL     1      -2.640  -6.615   1.067  0.00  0.00    +0.247 C 
ATOM      6  O   UNL     1      -2.553  -7.586   1.787  0.00  0.00    -0.273 OA
ATOM      7  C   UNL     1      -2.707  -5.166   1.489  0.00  0.00    +0.112 C 
ATOM      8  C   UNL     1      -1.443  -4.769   2.246  0.00  0.00    +0.017 C 
ATOM      9  C   UNL     1      -1.564  -3.312   2.703  0.00  0.00    -0.076 C 
ATOM     10  N   UNL     1      -2.742  -3.164   3.566  0.00  0.00    +0.381 N 
ATOM     11  C   UNL     1      -3.961  -3.458   2.802  0.00  0.00    -0.076 C 
ATOM     12  C   UNL     1      -3.942  -4.920   2.350  0.00  0.00    +0.017 C 
ATOM     13  H   UNL     1      -2.671  -3.804   4.343  0.00  0.00    -0.082 HD
ENDROOT
BRANCH   1  14
ATOM     14  C   UNL     1      -2.899  -2.976   0.060  0.00  0.00    +0.112 C 
BRANCH  14  15
ATOM     15  C   UNL     1      -4.269  -2.616  -0.519  0.00  0.00    +0.047 C 
BRANCH  15  16
ATOM     16  C   UNL     1      -4.416  -1.094  -0.572  0.00  0.00    +0.161 C 
BRANCH  16  18
ATOM     17  C   UNL     1      -5.936   0.648  -1.206  0.00  0.00    +0.193 C 
ATOM     18  O   UNL     1      -5.696  -0.757  -1.112  0.00  0.00    -0.383 OA
ENDBRANCH  16  18
ENDBRANCH  15  16
ENDBRANCH  14  15
ENDBRANCH   1  14
BRANCH  10  19
ATOM     19  C   UNL     1      -2.804  -1.787   4.074  0.00  0.00    -0.050 C 
BRANCH  19  20
ATOM     20  C   UNL     1      -1.616  -1.532   5.003  0.00  0.00    +0.086 C 
ATOM     21  C   UNL     1      -1.753  -0.180   5.666  0.00  0.00    +0.005 C 
ATOM     22  C   UNL     1      -1.811  -0.418   6.996  0.00  0.00    -0.004 A 
ATOM     23  C   UNL     1      -1.942   0.467   8.160  0.00  0.00    +0.010 A 
ATOM     24  C   UNL     1      -1.972  -0.078   9.398  0.00  0.00    +0.001 A 
ATOM     25  C   UNL     1      -1.882  -1.462   9.596  0.00  0.00    +0.002 A 
ATOM     26  C   UNL     1      -1.760  -2.339   8.577  0.00  0.00    +0.026 A 
ATOM     27  C   UNL     1      -1.718  -1.876   7.233  0.00  0.00    +0.043 A 
ATOM     28  N   UNL     1      -1.605  -2.516   6.092  0.00  0.00    -0.380 N 
ATOM     29  H   UNL     1      -1.528  -3.477   5.986  0.00  0.00    +0.160 HD
ENDBRANCH  19  20
ENDBRANCH  10  19
BRANCH   4  30
ATOM     30  C   UNL     1      -2.647  -7.799  -1.121  0.00  0.00    +0.153 C 
BRANCH  30  31
ATOM     31  C   UNL     1      -1.215  -8.124  -1.460  0.00  0.00    -0.029 A 
ATOM     32  C   UNL     1      -0.639  -7.575  -2.605  0.00  0.00    +0.006 A 
ATOM     33  C   UNL     1       0.651  -7.849  -2.940  0.00  0.00    +0.009 A 
ATOM     34  C   UNL     1       1.417  -8.696  -2.122  0.00  0.00    -0.018 A 
ATOM     35  C   UNL     1       2.753  -9.001  -2.435  0.00  0.00    +0.008 A 
ATOM     36  C   UNL     1       3.465  -9.826  -1.619  0.00  0.00    +0.001 A 
ATOM     37  C   UNL     1       2.889 -10.374  -0.474  0.00  0.00    +0.001 A 
ATOM     38  C   UNL     1       1.599 -10.101  -0.139  0.00  0.00    +0.008 A 
ATOM     39  C   UNL     1       0.832  -9.254  -0.958  0.00  0.00    -0.018 A 
ATOM     40  C   UNL     1      -0.502  -8.944  -0.641  0.00  0.00    +0.013 A 
ENDBRANCH  30  31
ENDBRANCH   4  30
TORSDOF 8
