REMARK  Name = ZINC04083947
REMARK  11 active torsions:
REMARK  status: ('A' for Active; 'I' for Inactive)
REMARK    1  A    between atoms: C_1  and  C_2
REMARK    2  A    between atoms: C_2  and  C_3
REMARK    3  A    between atoms: C_3  and  C_4
REMARK    4  A    between atoms: C_4  and  O_5
REMARK    5  A    between atoms: O_5  and  C_6
REMARK    6  A    between atoms: C_6  and  C_8
REMARK    7  A    between atoms: C_9  and  C_26
REMARK    8  A    between atoms: C_14  and  C_16
REMARK    9  A    between atoms: C_18  and  O_24
REMARK   10  A    between atoms: C_19  and  O_23
REMARK   11  A    between atoms: O_24  and  C_25
REMARK                            x       y       z     vdW  Elec       q    Type
REMARK                         _______ _______ _______ _____ _____    ______ ____
ROOT
ATOM      1  C   UNL     1       2.339  -4.222  -3.573  0.00  0.00    +0.078 C 
ATOM      2  C   UNL     1       2.561  -5.535  -3.796  0.00  0.00    +0.021 C 
ATOM      3  N   UNL     1       3.081  -5.970  -4.981  0.00  0.00    -0.273 N 
ATOM      4  C   UNL     1       3.406  -5.156  -5.993  0.00  0.00    +0.304 C 
ATOM      5  O   UNL     1       3.863  -5.638  -7.011  0.00  0.00    -0.252 OA
ATOM      6  N   UNL     1       3.242  -3.821  -5.920  0.00  0.00    -0.288 N 
ATOM      7  C   UNL     1       2.681  -3.250  -4.684  0.00  0.00    +0.144 C 
ATOM      8  C   UNL     1       2.230  -6.536  -2.719  0.00  0.00    +0.061 C 
ATOM      9  H   UNL     1       3.223  -6.923  -5.096  0.00  0.00    +0.156 HD
ATOM     10  H   UNL     1       3.484  -3.249  -6.666  0.00  0.00    +0.151 HD
ENDROOT
BRANCH   7  11
ATOM     11  C   UNL     1       3.677  -2.257  -4.143  0.00  0.00    -0.018 A 
ATOM     12  C   UNL     1       3.276  -0.965  -3.854  0.00  0.00    +0.055 A 
ATOM     13  C   UNL     1       4.190  -0.051  -3.357  0.00  0.00    +0.163 A 
ATOM     14  C   UNL     1       5.511  -0.435  -3.147  0.00  0.00    +0.173 A 
ATOM     15  C   UNL     1       5.907  -1.732  -3.438  0.00  0.00    +0.063 A 
ATOM     16  C   UNL     1       4.987  -2.641  -3.930  0.00  0.00    +0.025 A 
ATOM     17 BR   UNL     1       7.700  -2.259  -3.155  0.00  0.00    -0.046 Br
BRANCH  14  18
ATOM     18  O   UNL     1       6.412   0.459  -2.659  0.00  0.00    -0.503 OA
ATOM     19  H   UNL     1       6.471   0.471  -1.694  0.00  0.00    +0.292 HD
ENDBRANCH  14  18
BRANCH  13  20
ATOM     20  O   UNL     1       3.797   1.220  -3.073  0.00  0.00    -0.491 OA
ATOM     21  C   UNL     1       2.406   1.514  -3.208  0.00  0.00    +0.277 C 
ENDBRANCH  13  20
ENDBRANCH   7  11
BRANCH   1  22
ATOM     22  C   UNL     1       1.800  -3.769  -2.346  0.00  0.00    +0.339 C 
ATOM     23  O   UNL     1       0.621  -3.476  -2.270  0.00  0.00    -0.245 OA
BRANCH  22  24
ATOM     24  O   UNL     1       2.592  -3.663  -1.259  0.00  0.00    -0.461 OA
BRANCH  24  25
ATOM     25  C   UNL     1       1.961  -3.308  -0.027  0.00  0.00    +0.232 C 
BRANCH  25  26
ATOM     26  C   UNL     1       3.024  -3.131   1.059  0.00  0.00    +0.041 C 
BRANCH  26  28
ATOM     27  C   UNL     1       3.424  -2.459   3.432  0.00  0.00    +0.004 C 
ATOM     28  C   UNL     1       2.361  -2.636   2.346  0.00  0.00    -0.000 C 
ENDBRANCH  26  28
ENDBRANCH  25  26
ENDBRANCH  24  25
ENDBRANCH  22  24
ENDBRANCH   1  22
TORSDOF 8
