REMARK  Name = ZINC00058306
REMARK  4 active torsions:
REMARK  status: ('A' for Active; 'I' for Inactive)
REMARK    1  A    between atoms: C_1  and  C_2
REMARK    2  A    between atoms: C_6  and  C_7
REMARK    3  A    between atoms: C_21  and  N_25
REMARK    4  A    between atoms: C_22  and  C_23
REMARK                            x       y       z     vdW  Elec       q    Type
REMARK                         _______ _______ _______ _____ _____    ______ ____
ROOT
ATOM      1  C   UNL     1       1.218   3.632   0.007  0.00  0.00    +0.112 C 
ATOM      2  C   UNL     1       1.175   2.128   0.002  0.00  0.00    +0.093 A 
ATOM      3  C   UNL     1      -0.018   1.467   0.010  0.00  0.00    +0.152 A 
ATOM      4  C   UNL     1       0.002  -0.004   0.002  0.00  0.00    +0.060 A 
ATOM      5  C   UNL     1      -1.184  -0.741   0.008  0.00  0.00    +0.015 A 
ATOM      6  C   UNL     1      -1.129  -2.118   0.000  0.00  0.00    +0.001 A 
ATOM      7  C   UNL     1       0.095  -2.770  -0.015  0.00  0.00    +0.004 A 
ATOM      8  C   UNL     1       1.274  -2.054  -0.021  0.00  0.00    +0.047 A 
ATOM      9  C   UNL     1       1.241  -0.665  -0.012  0.00  0.00    +0.143 A 
ATOM     10  O   UNL     1       2.384   0.053  -0.018  0.00  0.00    -0.422 OA
ATOM     11  C   UNL     1       2.374   1.395  -0.011  0.00  0.00    +0.345 A 
ATOM     12  O   UNL     1       3.435   1.995  -0.017  0.00  0.00    -0.245 OA
ATOM     13  O   UNL     1      -1.190   2.129   0.030  0.00  0.00    -0.440 OA
ATOM     14  C   UNL     1      -1.230   3.418   0.409  0.00  0.00    +0.199 C 
ATOM     15  C   UNL     1      -0.116   4.188   0.423  0.00  0.00    +0.099 C 
ENDROOT
BRANCH   1  21
ATOM     16  C   UNL     1       3.645   5.337  -0.790  0.00  0.00    +0.044 C 
ATOM     17  C   UNL     1       2.608   4.877  -1.782  0.00  0.00    -0.039 A 
ATOM     18  C   UNL     1       2.716   5.215  -3.118  0.00  0.00    +0.011 A 
ATOM     19  C   UNL     1       1.765   4.786  -3.983  0.00  0.00    +0.046 A 
ATOM     20  S   UNL     1       0.674   3.868  -2.908  0.00  0.00    -0.100 S 
ATOM     21  C   UNL     1       1.555   4.126  -1.377  0.00  0.00    +0.006 A 
ENDBRANCH   1  21
BRANCH  14  22
ATOM     22  N   UNL     1      -2.427   3.965   0.797  0.00  0.00    -0.328 N 
ATOM     23  H   UNL     1      -2.469   4.893   1.076  0.00  0.00    +0.145 HD
ATOM     24  H   UNL     1      -3.232   3.423   0.791  0.00  0.00    +0.145 HD
ENDBRANCH  14  22
BRANCH  15  25
ATOM     25  C   UNL     1      -0.209   5.554   0.842  0.00  0.00    +0.101 C 
ATOM     26  N   UNL     1      -0.284   6.638   1.174  0.00  0.00    -0.191 NA
ENDBRANCH  15  25
TORSDOF 3
