REMARK  Name = ZINC09585502
REMARK  10 active torsions:
REMARK  status: ('A' for Active; 'I' for Inactive)
REMARK    1  A    between atoms: C_1  and  N_65
REMARK    2  A    between atoms: C_2  and  N_65
REMARK    3  A    between atoms: C_3  and  C_9
REMARK    4  A    between atoms: C_3  and  N_65
REMARK    5  A    between atoms: C_9  and  N_10
REMARK    6  A    between atoms: C_11  and  C_13
REMARK    7  A    between atoms: C_13  and  C_14
REMARK    8  A    between atoms: N_16  and  C_28
REMARK    9  A    between atoms: C_18  and  C_19
REMARK   10  A    between atoms: C_22  and  N_25
REMARK                            x       y       z     vdW  Elec       q    Type
REMARK                         _______ _______ _______ _____ _____    ______ ____
ROOT
ATOM      1  C   UNL     1      -1.932   2.637   0.702  0.00  0.00    +0.007 A 
ATOM      2  C   UNL     1      -0.751   2.023   0.935  0.00  0.00    +0.119 A 
ATOM      3  N   UNL     1       0.202   2.984   1.051  0.00  0.00    -0.239 N 
ATOM      4  N   UNL     1      -0.417   4.230   0.889  0.00  0.00    -0.166 NA
ATOM      5  C   UNL     1      -1.701   4.026   0.682  0.00  0.00    +0.097 A 
ENDROOT
BRANCH   5   6
ATOM      6  C   UNL     1      -2.725   5.077   0.461  0.00  0.00    +0.003 A 
ATOM      7  C   UNL     1      -3.785   4.847  -0.414  0.00  0.00    +0.012 A 
ATOM      8  C   UNL     1      -4.738   5.826  -0.611  0.00  0.00    +0.033 A 
ATOM      9  C   UNL     1      -4.636   7.037   0.049  0.00  0.00    +0.126 A 
ATOM     10  C   UNL     1      -3.583   7.273   0.914  0.00  0.00    +0.033 A 
ATOM     11  C   UNL     1      -2.627   6.299   1.123  0.00  0.00    +0.012 A 
BRANCH   9  12
ATOM     12  N   UNL     1      -5.658   8.085  -0.172  0.00  0.00    +0.056 N 
ATOM     13  O   UNL     1      -5.570   9.153   0.407  0.00  0.00    -0.126 OA
ATOM     14  O   UNL     1      -6.586   7.880  -0.934  0.00  0.00    -0.126 OA
ENDBRANCH   9  12
ENDBRANCH   5   6
BRANCH   3  15
ATOM     15  C   UNL     1       1.565   2.766   1.290  0.00  0.00    +0.065 A 
ATOM     16  C   UNL     1       2.048   1.472   1.437  0.00  0.00    +0.028 A 
ATOM     17  C   UNL     1       3.393   1.261   1.667  0.00  0.00    +0.002 A 
ATOM     18  C   UNL     1       4.257   2.337   1.764  0.00  0.00    +0.000 A 
ATOM     19  C   UNL     1       3.779   3.626   1.623  0.00  0.00    +0.002 A 
ATOM     20  C   UNL     1       2.435   3.844   1.387  0.00  0.00    +0.028 A 
ENDBRANCH   3  15
BRANCH   1  21
ATOM     21  C   UNL     1      -3.261   1.956   0.502  0.00  0.00    +0.134 C 
BRANCH  21  23
ATOM     22  N   UNL     1      -4.654   1.185  -1.392  0.00  0.00    -0.316 N 
ATOM     23  C   UNL     1      -3.517   1.776  -0.972  0.00  0.00    +0.217 C 
ATOM     24  O   UNL     1      -2.700   2.163  -1.780  0.00  0.00    -0.275 OA
ATOM     25  H   UNL     1      -5.307   0.876  -0.745  0.00  0.00    +0.149 HD
BRANCH  22  26
ATOM     26  C   UNL     1      -4.902   1.010  -2.825  0.00  0.00    +0.092 C 
BRANCH  26  27
ATOM     27  C   UNL     1      -6.236   0.290  -3.027  0.00  0.00    -0.050 C 
ATOM     28  C   UNL     1      -6.433  -0.011  -4.514  0.00  0.00    -0.010 C 
ATOM     29  C   UNL     1      -6.437   1.300  -5.303  0.00  0.00    -0.001 C 
ATOM     30  C   UNL     1      -7.578   2.190  -4.808  0.00  0.00    -0.000 C 
ATOM     31  C   UNL     1      -7.381   2.491  -3.320  0.00  0.00    -0.001 C 
ATOM     32  C   UNL     1      -7.377   1.180  -2.531  0.00  0.00    -0.010 C 
BRANCH  27  35
ATOM     33  C   UNL     1      -7.537  -1.640  -2.357  0.00  0.00    -0.096 C 
ATOM     34  C   UNL     1      -5.153  -1.855  -2.724  0.00  0.00    -0.096 C 
ATOM     35  N   UNL     1      -6.228  -0.962  -2.241  0.00  0.00    +0.381 N 
ATOM     36  H   UNL     1      -6.055  -0.736  -1.255  0.00  0.00    -0.082 HD
ENDBRANCH  27  35
ENDBRANCH  26  27
ENDBRANCH  22  26
ENDBRANCH  21  23
ENDBRANCH   1  21
TORSDOF 8
