REMARK  Name = ZINC66057331
REMARK  8 active torsions:
REMARK  status: ('A' for Active; 'I' for Inactive)
REMARK    1  A    between atoms: C_1  and  C_2
REMARK    2  A    between atoms: C_2  and  C_3
REMARK    3  A    between atoms: C_3  and  C_23
REMARK    4  A    between atoms: N_6  and  C_10
REMARK    5  A    between atoms: C_10  and  C_11
REMARK    6  A    between atoms: N_13  and  C_14
REMARK    7  A    between atoms: C_15  and  C_22
REMARK    8  A    between atoms: C_17  and  C_21
REMARK                            x       y       z     vdW  Elec       q    Type
REMARK                         _______ _______ _______ _____ _____    ______ ____
ROOT
ATOM      1  C   UNL     1      -2.359  -4.091  -3.945  0.00  0.00    +0.235 C 
ATOM      2  O   UNL     1      -3.397  -3.652  -4.394  0.00  0.00    -0.274 OA
ATOM      3  N   UNL     1      -2.387  -5.042  -2.989  0.00  0.00    -0.283 N 
ATOM      4  H   UNL     1      -1.560  -5.444  -2.682  0.00  0.00    +0.155 HD
ENDROOT
BRANCH   3   5
ATOM      5  C   UNL     1      -3.610  -5.447  -2.442  0.00  0.00    +0.055 A 
ATOM      6  C   UNL     1      -4.276  -6.547  -2.966  0.00  0.00    -0.028 A 
ATOM      7  C   UNL     1      -5.482  -6.945  -2.423  0.00  0.00    +0.008 A 
ATOM      8  C   UNL     1      -6.026  -6.250  -1.358  0.00  0.00    -0.049 A 
ATOM      9  C   UNL     1      -5.366  -5.155  -0.833  0.00  0.00    +0.025 A 
ATOM     10  C   UNL     1      -4.156  -4.754  -1.368  0.00  0.00    +0.063 A 
ATOM     11 CL   UNL     1      -3.323  -3.384  -0.704  0.00  0.00    -0.082 Cl
ATOM     12  C   UNL     1      -7.343  -6.688  -0.770  0.00  0.00    +0.044 C 
ATOM     13  C   UNL     1      -3.684  -7.304  -4.127  0.00  0.00    +0.046 C 
ENDBRANCH   3   5
BRANCH   1  14
ATOM     14  C   UNL     1      -1.038  -3.573  -4.454  0.00  0.00    +0.214 C 
BRANCH  14  18
ATOM     15  C   UNL     1      -1.635  -0.579  -6.569  0.00  0.00    +0.110 C 
ATOM     16  C   UNL     1      -1.406  -1.238  -5.223  0.00  0.00    +0.247 C 
ATOM     17  O   UNL     1      -1.351  -0.693  -4.141  0.00  0.00    -0.273 OA
ATOM     18  N   UNL     1      -1.276  -2.554  -5.479  0.00  0.00    -0.215 N 
ATOM     19  C   UNL     1      -1.391  -2.817  -6.787  0.00  0.00    +0.310 C 
ATOM     20  O   UNL     1      -1.309  -3.932  -7.261  0.00  0.00    -0.252 OA
ATOM     21  N   UNL     1      -1.605  -1.707  -7.516  0.00  0.00    -0.285 N 
ATOM     22  C   UNL     1      -0.517   0.417  -6.882  0.00  0.00    +0.041 C 
ATOM     23  H   UNL     1      -1.719  -1.659  -8.478  0.00  0.00    +0.151 HD
BRANCH  15  25
ATOM     24  C   UNL     1      -3.304   0.568  -8.032  0.00  0.00    +0.006 C 
ATOM     25  C   UNL     1      -2.998   0.116  -6.603  0.00  0.00    +0.031 C 
ENDBRANCH  15  25
ENDBRANCH  14  18
ENDBRANCH   1  14
TORSDOF 4
