REMARK  Name = ZINC20933388
REMARK  7 active torsions:
REMARK  status: ('A' for Active; 'I' for Inactive)
REMARK    1  A    between atoms: C_1  and  O_2
REMARK    2  A    between atoms: O_2  and  C_3
REMARK    3  A    between atoms: C_8  and  C_9
REMARK    4  A    between atoms: C_10  and  C_11
REMARK    5  A    between atoms: N_12  and  N_13
REMARK    6  A    between atoms: C_14  and  C_16
REMARK    7  A    between atoms: C_18  and  N_24
REMARK                            x       y       z     vdW  Elec       q    Type
REMARK                         _______ _______ _______ _____ _____    ______ ____
ROOT
ATOM      1  N   UNL     1       3.546   1.882  -0.022  0.00  0.00    -0.202 N 
ATOM      2  C   UNL     1       4.722   1.224  -0.036  0.00  0.00    +0.283 C 
ATOM      3  O   UNL     1       4.738   0.008  -0.043  0.00  0.00    -0.267 OA
ATOM      4  H   UNL     1       3.531   2.982  -0.016  0.00  0.00    +0.178 HD
ENDROOT
BRANCH   2   5
ATOM      5  C   UNL     1       5.993   1.981  -0.044  0.00  0.00    +0.149 A 
ATOM      6  C   UNL     1       7.204   1.295  -0.054  0.00  0.00    +0.094 A 
ATOM      7  C   UNL     1       8.394   2.024  -0.066  0.00  0.00    +0.067 A 
ATOM      8  C   UNL     1       8.317   3.416  -0.058  0.00  0.00    +0.100 A 
ATOM      9  C   UNL     1       7.073   4.026  -0.043  0.00  0.00    +0.150 A 
ATOM     10  N   UNL     1       5.968   3.310  -0.037  0.00  0.00    -0.228 NA
ATOM     11 CL   UNL     1       6.971   5.759  -0.034  0.00  0.00    -0.060 Cl
ATOM     12 CL   UNL     1       9.765   4.374  -0.066  0.00  0.00    -0.078 Cl
ATOM     13 CL   UNL     1       7.234  -0.441  -0.056  0.00  0.00    -0.079 Cl
BRANCH   7  14
ATOM     14  N   UNL     1       9.628   1.377  -0.081  0.00  0.00    -0.356 N 
ATOM     15  H   UNL     1      10.557   1.965  -0.090  0.00  0.00    +0.142 HD
ATOM     16  H   UNL     1       9.672   0.277  -0.082  0.00  0.00    +0.142 HD
ENDBRANCH   7  14
ENDBRANCH   2   5
BRANCH   1  18
ATOM     17  C   UNL     1       1.205   1.801   0.000  0.00  0.00    +0.130 C 
ATOM     18  N   UNL     1       2.342   1.165  -0.014  0.00  0.00    -0.188 NA
BRANCH  17  20
ATOM     19  C   UNL     1      -1.190   1.735   0.017  0.00  0.00    +0.013 C 
ATOM     20  C   UNL     1      -0.013   1.076   0.008  0.00  0.00    +0.022 C 
BRANCH  19  26
ATOM     21  C   UNL     1      -3.681   1.663   0.034  0.00  0.00    +0.127 A 
ATOM     22  C   UNL     1      -4.865   0.944   0.032  0.00  0.00    +0.046 A 
ATOM     23  C   UNL     1      -4.837  -0.438   0.024  0.00  0.00    +0.004 A 
ATOM     24  C   UNL     1      -3.628  -1.115   0.014  0.00  0.00    +0.001 A 
ATOM     25  C   UNL     1      -2.440  -0.416   0.011  0.00  0.00    +0.011 A 
ATOM     26  C   UNL     1      -2.454   0.982   0.019  0.00  0.00    +0.017 A 
BRANCH  21  28
ATOM     27  C   UNL     1      -4.993   3.644   0.062  0.00  0.00    +0.277 C 
ATOM     28  O   UNL     1      -3.708   3.020   0.047  0.00  0.00    -0.495 OA
ENDBRANCH  21  28
ENDBRANCH  19  26
ENDBRANCH  17  20
ENDBRANCH   1  18
TORSDOF 6
