REMARK  Name = ZINC14999095
REMARK  13 active torsions:
REMARK  status: ('A' for Active; 'I' for Inactive)
REMARK    1  A    between atoms: C_1  and  C_2
REMARK    2  A    between atoms: C_2  and  C_4
REMARK    3  A    between atoms: C_2  and  O_20
REMARK    4  A    between atoms: C_4  and  N_5
REMARK    5  A    between atoms: C_6  and  C_8
REMARK    6  A    between atoms: N_10  and  C_19
REMARK    7  A    between atoms: O_20  and  C_21
REMARK    8  A    between atoms: C_25  and  C_27
REMARK    9  A    between atoms: C_27  and  N_66
REMARK   10  A    between atoms: C_28  and  N_66
REMARK   11  A    between atoms: C_29  and  C_30
REMARK   12  A    between atoms: C_29  and  N_66
REMARK   13  A    between atoms: N_33  and  C_35
REMARK                            x       y       z     vdW  Elec       q    Type
REMARK                         _______ _______ _______ _____ _____    ______ ____
ROOT
ATOM      1  C   UNL     1       1.696   6.225  -1.264  0.00  0.00    +0.053 C 
ATOM      2  C   UNL     1       1.192   5.866   0.135  0.00  0.00    +0.187 C 
ENDROOT
BRANCH   2   3
ATOM      3  C   UNL     1       1.028   7.143   0.962  0.00  0.00    +0.148 C 
BRANCH   3   4
ATOM      4  N   UNL     1       0.661   6.792   2.336  0.00  0.00    -0.308 N 
ATOM      5  C   UNL     1       0.464   7.763   3.250  0.00  0.00    +0.249 C 
ATOM      6  O   UNL     1       0.590   8.931   2.933  0.00  0.00    -0.270 OA
ATOM      7  H   UNL     1       0.561   5.861   2.588  0.00  0.00    +0.149 HD
BRANCH   5   8
ATOM      8  C   UNL     1       0.095   7.410   4.630  0.00  0.00    +0.100 A 
ATOM      9  C   UNL     1      -0.051   6.090   5.001  0.00  0.00    +0.102 A 
ATOM     10  N   UNL     1      -0.386   5.731   6.247  0.00  0.00    -0.349 N 
ATOM     11  C   UNL     1      -0.609   6.647   7.253  0.00  0.00    +0.052 A 
ATOM     12  C   UNL     1      -0.955   6.221   8.533  0.00  0.00    +0.026 A 
ATOM     13  C   UNL     1      -1.175   7.146   9.530  0.00  0.00    +0.002 A 
ATOM     14  C   UNL     1      -1.057   8.505   9.275  0.00  0.00    +0.001 A 
ATOM     15  C   UNL     1      -0.716   8.949   8.016  0.00  0.00    +0.014 A 
ATOM     16  C   UNL     1      -0.490   8.023   6.997  0.00  0.00    +0.046 A 
ATOM     17  C   UNL     1      -0.118   8.460   5.639  0.00  0.00    +0.201 A 
ATOM     18  O   UNL     1       0.004   9.641   5.362  0.00  0.00    -0.286 OA
ATOM     19  C   UNL     1      -0.519   4.305   6.555  0.00  0.00    +0.149 C 
ENDBRANCH   5   8
ENDBRANCH   3   4
ENDBRANCH   2   3
BRANCH   2  20
ATOM     20  O   UNL     1      -0.069   5.201   0.032  0.00  0.00    -0.488 OA
BRANCH  20  21
ATOM     21  C   UNL     1      -0.042   3.860  -0.190  0.00  0.00    +0.121 A 
ATOM     22  C   UNL     1       1.166   3.217  -0.417  0.00  0.00    +0.045 A 
ATOM     23  C   UNL     1       1.190   1.855  -0.642  0.00  0.00    +0.004 A 
ATOM     24  C   UNL     1       0.011   1.131  -0.641  0.00  0.00    +0.002 A 
ATOM     25  C   UNL     1      -1.194   1.771  -0.421  0.00  0.00    -0.060 A 
ATOM     26  C   UNL     1      -1.223   3.133  -0.190  0.00  0.00    +0.047 A 
BRANCH  25  27
ATOM     27  C   UNL     1      -2.478   0.981  -0.426  0.00  0.00    -0.043 C 
BRANCH  27  29
ATOM     28  C   UNL     1      -1.755  -0.472   1.371  0.00  0.00    -0.095 C 
ATOM     29  N   UNL     1      -2.763   0.524   0.950  0.00  0.00    +0.383 N 
ATOM     30  H   UNL     1      -2.719   1.331   1.585  0.00  0.00    -0.081 HD
BRANCH  29  31
ATOM     31  C   UNL     1      -4.116  -0.066   1.017  0.00  0.00    -0.040 C 
BRANCH  31  32
ATOM     32  C   UNL     1      -4.465  -0.319   2.461  0.00  0.00    -0.026 A 
ATOM     33  C   UNL     1      -5.089   0.585   3.327  0.00  0.00    +0.136 A 
ATOM     34  N   UNL     1      -5.225   0.006   4.493  0.00  0.00    -0.180 NA
ATOM     35  N   UNL     1      -4.691  -1.286   4.405  0.00  0.00    -0.274 N 
ATOM     36  C   UNL     1      -4.236  -1.462   3.147  0.00  0.00    +0.109 A 
ATOM     37  C   UNL     1      -4.640  -2.273   5.487  0.00  0.00    +0.172 C 
ENDBRANCH  31  32
ENDBRANCH  29  31
ENDBRANCH  27  29
ENDBRANCH  25  27
ENDBRANCH  20  21
ENDBRANCH   2  20
TORSDOF 9
