REMARK  Name = ZINC40570930
REMARK  9 active torsions:
REMARK  status: ('A' for Active; 'I' for Inactive)
REMARK    1  A    between atoms: C_1  and  C_2
REMARK    2  A    between atoms: C_8  and  C_12
REMARK    3  A    between atoms: N_16  and  C_17
REMARK    4  A    between atoms: C_20  and  S_23
REMARK    5  A    between atoms: S_23  and  N_26
REMARK    6  A    between atoms: N_26  and  C_27
REMARK    7  A    between atoms: C_27  and  C_28
REMARK    8  A    between atoms: C_28  and  C_29
REMARK    9  A    between atoms: C_28  and  C_30
REMARK                            x       y       z     vdW  Elec       q    Type
REMARK                         _______ _______ _______ _____ _____    ______ ____
ROOT
ATOM      1  C   UNL     1      -4.707  -3.618  -2.893  0.00  0.00    +0.063 C 
ATOM      2  C   UNL     1      -3.446  -3.638  -2.068  0.00  0.00    +0.015 A 
ATOM      3  C   UNL     1      -2.309  -3.168  -2.612  0.00  0.00    +0.047 A 
ATOM      4  C   UNL     1      -1.104  -3.174  -1.859  0.00  0.00    +0.050 A 
ATOM      5  C   UNL     1      -1.154  -3.708  -0.484  0.00  0.00    +0.022 A 
ATOM      6  C   UNL     1      -0.017  -3.749   0.321  0.00  0.00    +0.012 A 
ATOM      7  C   UNL     1      -0.107  -4.255   1.600  0.00  0.00    +0.013 A 
ATOM      8  C   UNL     1      -1.320  -4.721   2.086  0.00  0.00    +0.057 A 
ATOM      9  C   UNL     1      -2.452  -4.687   1.300  0.00  0.00    +0.038 A 
ATOM     10  C   UNL     1      -2.382  -4.179   0.007  0.00  0.00    +0.049 A 
ATOM     11  N   UNL     1      -3.502  -4.127  -0.799  0.00  0.00    -0.358 N 
ATOM     12  N   UNL     1       0.027  -2.716  -2.375  0.00  0.00    -0.355 N 
ATOM     13  H   UNL     1      -4.349  -4.450  -0.453  0.00  0.00    +0.166 HD
ATOM     14  H   UNL     1       0.858  -2.810  -1.883  0.00  0.00    +0.166 HD
ENDROOT
BRANCH  12  15
ATOM     15  C   UNL     1       0.024  -2.113  -3.599  0.00  0.00    +0.040 A 
ATOM     16  C   UNL     1      -0.799  -1.007  -3.835  0.00  0.00    +0.027 A 
ATOM     17  C   UNL     1      -0.796  -0.403  -5.074  0.00  0.00    +0.030 A 
ATOM     18  C   UNL     1       0.017  -0.888  -6.083  0.00  0.00    +0.105 A 
ATOM     19  C   UNL     1       0.834  -1.982  -5.857  0.00  0.00    +0.030 A 
ATOM     20  C   UNL     1       0.847  -2.594  -4.622  0.00  0.00    +0.027 A 
BRANCH  18  21
ATOM     21  S   UNL     1       0.013  -0.109  -7.664  0.00  0.00    +0.058 S 
ATOM     22  O   UNL     1       0.453  -1.084  -8.598  0.00  0.00    -0.153 OA
ATOM     23  O   UNL     1      -1.238   0.554  -7.786  0.00  0.00    -0.153 OA
BRANCH  21  24
ATOM     24  N   UNL     1       1.173   1.073  -7.630  0.00  0.00    -0.190 NA
ATOM     25  H   UNL     1       0.918   2.005  -7.708  0.00  0.00    +0.148 HD
BRANCH  24  26
ATOM     26  C   UNL     1       2.584   0.709  -7.484  0.00  0.00    +0.109 C 
BRANCH  26  27
ATOM     27  C   UNL     1       3.461   1.908  -7.852  0.00  0.00    -0.002 C 
ATOM     28  C   UNL     1       3.227   3.038  -6.847  0.00  0.00    +0.008 C 
ATOM     29  C   UNL     1       4.933   1.493  -7.820  0.00  0.00    +0.008 C 
ENDBRANCH  26  27
ENDBRANCH  24  26
ENDBRANCH  21  24
ENDBRANCH  18  21
ENDBRANCH  12  15
BRANCH   8  30
ATOM     30  C   UNL     1      -1.400  -5.271   3.486  0.00  0.00    +0.417 C 
ATOM     31  F   UNL     1      -0.138  -5.206   4.086  0.00  0.00    -0.166 F 
ATOM     32  F   UNL     1      -2.311  -4.516   4.232  0.00  0.00    -0.166 F 
ATOM     33  F   UNL     1      -1.826  -6.603   3.440  0.00  0.00    -0.166 F 
ENDBRANCH   8  30
TORSDOF 6
