REMARK  Name = ZINC05559506
REMARK  5 active torsions:
REMARK  status: ('A' for Active; 'I' for Inactive)
REMARK    1  A    between atoms: C_1  and  C_2
REMARK    2  A    between atoms: C_2  and  C_3
REMARK    3  A    between atoms: C_2  and  C_4
REMARK    4  A    between atoms: N_10  and  N_11
REMARK    5  A    between atoms: C_12  and  C_13
REMARK                            x       y       z     vdW  Elec       q    Type
REMARK                         _______ _______ _______ _____ _____    ______ ____
ROOT
ATOM      1  C   UNL     1       0.002  -0.004   0.002  0.00  0.00    +0.010 A 
ATOM      2  C   UNL     1      -0.017   1.408  -0.009  0.00  0.00    -0.009 A 
ATOM      3  C   UNL     1      -1.230   2.117  -0.006  0.00  0.00    +0.009 A 
ATOM      4  C   UNL     1      -1.214   3.477  -0.021  0.00  0.00    +0.001 A 
ATOM      5  C   UNL     1      -0.019   4.194  -0.029  0.00  0.00    +0.001 A 
ATOM      6  C   UNL     1       1.187   3.569  -0.026  0.00  0.00    +0.008 A 
ATOM      7  C   UNL     1       1.240   2.158  -0.016  0.00  0.00    -0.017 A 
ATOM      8  C   UNL     1       2.463   1.485  -0.013  0.00  0.00    +0.017 A 
ATOM      9  C   UNL     1       2.492   0.090  -0.003  0.00  0.00    -0.017 A 
ATOM     10  C   UNL     1       1.244  -0.676   0.005  0.00  0.00    -0.009 A 
ATOM     11  C   UNL     1       1.310  -2.079   0.015  0.00  0.00    +0.009 A 
ATOM     12  C   UNL     1       2.523  -2.696   0.017  0.00  0.00    +0.001 A 
ATOM     13  C   UNL     1       3.712  -1.969   0.009  0.00  0.00    +0.001 A 
ATOM     14  C   UNL     1       3.717  -0.611  -0.001  0.00  0.00    +0.008 A 
ENDROOT
BRANCH   1  16
ATOM     15  N   UNL     1      -2.356  -0.111   0.124  0.00  0.00    -0.155 NA
ATOM     16  C   UNL     1      -1.211  -0.738   0.010  0.00  0.00    +0.144 C 
BRANCH  15  22
ATOM     17  C   UNL     1      -7.190   0.723   0.457  0.00  0.00    +0.143 C 
ATOM     18  C   UNL     1      -6.044   1.722   0.474  0.00  0.00    +0.232 C 
ATOM     19  O   UNL     1      -6.231   2.915   0.579  0.00  0.00    -0.274 OA
ATOM     20  N   UNL     1      -4.831   1.207   0.366  0.00  0.00    -0.263 N 
ATOM     21  C   UNL     1      -4.611  -0.147   0.245  0.00  0.00    +0.183 C 
ATOM     22  N   UNL     1      -3.459  -0.779   0.131  0.00  0.00    -0.127 NA
ATOM     23  S   UNL     1      -6.255  -0.847   0.273  0.00  0.00    -0.075 S 
ATOM     24  H   UNL     1      -3.951   1.868   0.370  0.00  0.00    +0.157 HD
BRANCH  17  26
ATOM     25  C   UNL     1      -9.314   0.015  -0.652  0.00  0.00    +0.009 C 
ATOM     26  C   UNL     1      -8.111   0.957  -0.742  0.00  0.00    +0.005 C 
ATOM     27  C   UNL     1      -8.598   2.407  -0.735  0.00  0.00    +0.009 C 
ENDBRANCH  17  26
ENDBRANCH  15  22
ENDBRANCH   1  16
TORSDOF 3
