REMARK  Name = ZINC08440999
REMARK  7 active torsions:
REMARK  status: ('A' for Active; 'I' for Inactive)
REMARK    1  A    between atoms: C_1  and  C_2
REMARK    2  A    between atoms: C_3  and  C_29
REMARK    3  A    between atoms: C_5  and  N_21
REMARK    4  A    between atoms: C_6  and  C_7
REMARK    5  A    between atoms: C_7  and  C_9
REMARK    6  A    between atoms: C_7  and  N_52
REMARK    7  A    between atoms: C_22  and  C_24
REMARK                            x       y       z     vdW  Elec       q    Type
REMARK                         _______ _______ _______ _____ _____    ______ ____
ROOT
ATOM      1  C   UNL     1      -3.447   2.741   4.362  0.00  0.00    +0.045 C 
ATOM      2  C   UNL     1      -1.976   2.556   4.632  0.00  0.00    -0.037 A 
ATOM      3  C   UNL     1      -1.559   1.800   5.676  0.00  0.00    -0.008 A 
ATOM      4  S   UNL     1       0.217   1.921   5.538  0.00  0.00    -0.078 S 
ATOM      5  C   UNL     1       0.288   2.967   4.093  0.00  0.00    +0.074 A 
ATOM      6  C   UNL     1      -1.033   3.152   3.814  0.00  0.00    -0.025 A 
ATOM      7  C   UNL     1      -2.381   1.054   6.694  0.00  0.00    +0.052 C 
ENDROOT
BRANCH   5   8
ATOM      8  N   UNL     1       1.406   3.466   3.422  0.00  0.00    -0.273 N 
ATOM      9  C   UNL     1       2.640   3.259   3.922  0.00  0.00    +0.284 C 
ATOM     10  O   UNL     1       2.780   2.637   4.960  0.00  0.00    -0.266 OA
ATOM     11  H   UNL     1       1.295   3.961   2.595  0.00  0.00    +0.156 HD
BRANCH   9  12
ATOM     12  C   UNL     1       3.814   3.783   3.218  0.00  0.00    +0.189 A 
ATOM     13  C   UNL     1       5.114   3.646   3.613  0.00  0.00    +0.054 A 
ATOM     14  C   UNL     1       5.900   4.296   2.649  0.00  0.00    +0.042 A 
ATOM     15  C   UNL     1       5.056   4.796   1.720  0.00  0.00    +0.196 A 
ATOM     16  O   UNL     1       3.801   4.480   2.063  0.00  0.00    -0.458 OA
ENDBRANCH   9  12
ENDBRANCH   5   8
BRANCH   6  17
ATOM     17  C   UNL     1      -1.459   3.995   2.640  0.00  0.00    -0.004 C 
BRANCH  17  18
ATOM     18  C   UNL     1      -1.274   5.452   2.975  0.00  0.00    -0.057 A 
ATOM     19  C   UNL     1      -0.045   6.055   2.782  0.00  0.00    +0.004 A 
ATOM     20  C   UNL     1       0.124   7.393   3.084  0.00  0.00    +0.020 A 
ATOM     21  C   UNL     1      -0.934   8.127   3.589  0.00  0.00    +0.041 A 
ATOM     22  C   UNL     1      -2.163   7.522   3.787  0.00  0.00    +0.020 A 
ATOM     23  C   UNL     1      -2.332   6.185   3.480  0.00  0.00    +0.004 A 
ATOM     24 CL   UNL     1      -0.721   9.806   3.976  0.00  0.00    -0.084 Cl
ENDBRANCH  17  18
BRANCH  17  30
ATOM     25  C   UNL     1      -0.633   2.202   1.237  0.00  0.00    -0.049 C 
ATOM     26  C   UNL     1       0.277   1.886   0.046  0.00  0.00    +0.141 C 
ATOM     27  O   UNL     1      -0.172   2.616  -1.098  0.00  0.00    -0.383 OA
ATOM     28  C   UNL     1      -0.191   4.033  -0.906  0.00  0.00    +0.141 C 
ATOM     29  C   UNL     1      -1.106   4.371   0.274  0.00  0.00    -0.049 C 
ATOM     30  N   UNL     1      -0.615   3.661   1.473  0.00  0.00    +0.390 N 
ATOM     31  H   UNL     1       0.350   3.956   1.664  0.00  0.00    -0.080 HD
ENDBRANCH  17  30
ENDBRANCH   6  17
TORSDOF 5
