REMARK  Name = ZINC67413585
REMARK  8 active torsions:
REMARK  status: ('A' for Active; 'I' for Inactive)
REMARK    1  A    between atoms: C_1  and  C_2
REMARK    2  A    between atoms: C_5  and  C_8
REMARK    3  A    between atoms: C_8  and  C_10
REMARK    4  A    between atoms: C_8  and  N_25
REMARK    5  A    between atoms: C_10  and  N_11
REMARK    6  A    between atoms: N_14  and  N_15
REMARK    7  A    between atoms: C_16  and  C_18
REMARK    8  A    between atoms: C_22  and  C_24
REMARK                            x       y       z     vdW  Elec       q    Type
REMARK                         _______ _______ _______ _____ _____    ______ ____
ROOT
ATOM      1  N   UNL     1       2.335  -4.280  -0.895  0.00  0.00    -0.299 N 
ATOM      2  C   UNL     1       3.651  -4.571  -0.890  0.00  0.00    +0.316 C 
ATOM      3  O   UNL     1       4.157  -5.084   0.089  0.00  0.00    -0.251 OA
ATOM      4  N   UNL     1       4.406  -4.293  -1.971  0.00  0.00    -0.218 N 
ATOM      5  H   UNL     1       1.931  -3.871  -1.677  0.00  0.00    +0.150 HD
ATOM      6  H   UNL     1       5.354  -4.502  -1.968  0.00  0.00    +0.174 HD
ENDROOT
BRANCH   4   7
ATOM      7  N   UNL     1       3.824  -3.702  -3.100  0.00  0.00    -0.229 N 
ATOM      8  C   UNL     1       4.579  -3.423  -4.181  0.00  0.00    +0.260 C 
ATOM      9  O   UNL     1       5.766  -3.686  -4.177  0.00  0.00    -0.269 OA
ATOM     10  H   UNL     1       2.877  -3.493  -3.103  0.00  0.00    +0.173 HD
BRANCH   8  11
ATOM     11  C   UNL     1       3.964  -2.800  -5.372  0.00  0.00    +0.038 A 
ATOM     12  C   UNL     1       2.603  -2.492  -5.378  0.00  0.00    +0.013 A 
ATOM     13  C   UNL     1       2.035  -1.910  -6.492  0.00  0.00    +0.001 A 
ATOM     14  C   UNL     1       2.812  -1.631  -7.603  0.00  0.00    +0.003 A 
ATOM     15  C   UNL     1       4.162  -1.933  -7.603  0.00  0.00    -0.050 A 
ATOM     16  C   UNL     1       4.744  -2.510  -6.493  0.00  0.00    +0.016 A 
ATOM     17  C   UNL     1       5.001  -1.627  -8.817  0.00  0.00    +0.044 C 
ENDBRANCH   8  11
ENDBRANCH   4   7
BRANCH   1  18
ATOM     18  C   UNL     1       1.514  -4.583   0.280  0.00  0.00    +0.095 C 
BRANCH  18  19
ATOM     19  C   UNL     1       0.099  -4.040   0.067  0.00  0.00    -0.020 C 
BRANCH  19  24
ATOM     20  C   UNL     1       0.267   1.731  -0.191  0.00  0.00    +0.044 C 
ATOM     21  C   UNL     1       0.223   0.226  -0.124  0.00  0.00    -0.050 A 
ATOM     22  C   UNL     1       0.152  -0.516  -1.288  0.00  0.00    +0.003 A 
ATOM     23  C   UNL     1       0.112  -1.896  -1.226  0.00  0.00    +0.002 A 
ATOM     24  C   UNL     1       0.144  -2.535  -0.001  0.00  0.00    -0.059 A 
ATOM     25  C   UNL     1       0.216  -1.793   1.164  0.00  0.00    +0.002 A 
ATOM     26  C   UNL     1       0.260  -0.412   1.102  0.00  0.00    +0.003 A 
ENDBRANCH  19  24
BRANCH  19  27
ATOM     27  N   UNL     1      -0.758  -4.455   1.185  0.00  0.00    +0.385 N 
ATOM     28  C   UNL     1      -2.140  -3.947   0.987  0.00  0.00    -0.078 C 
ATOM     29  C   UNL     1      -2.994  -4.891   1.870  0.00  0.00    -0.020 C 
ATOM     30  C   UNL     1      -2.303  -6.261   1.681  0.00  0.00    -0.020 C 
ATOM     31  C   UNL     1      -0.872  -5.929   1.221  0.00  0.00    -0.078 C 
ATOM     32  H   UNL     1      -0.383  -4.113   2.057  0.00  0.00    -0.081 HD
ENDBRANCH  19  27
ENDBRANCH  18  19
ENDBRANCH   1  18
TORSDOF 6
