REMARK  Name = ZINC06550977
REMARK  8 active torsions:
REMARK  status: ('A' for Active; 'I' for Inactive)
REMARK    1  A    between atoms: C_1  and  C_2
REMARK    2  A    between atoms: C_5  and  C_8
REMARK    3  A    between atoms: C_8  and  C_10
REMARK    4  A    between atoms: C_12  and  C_31
REMARK    5  A    between atoms: C_14  and  N_15
REMARK    6  A    between atoms: C_16  and  C_18
REMARK    7  A    between atoms: C_18  and  N_57
REMARK    8  A    between atoms: C_24  and  C_26
REMARK                            x       y       z     vdW  Elec       q    Type
REMARK                         _______ _______ _______ _____ _____    ______ ____
ROOT
ATOM      1  N   UNL     1       1.768  -0.950  -0.825  0.00  0.00    -0.281 N 
ATOM      2  C   UNL     1       3.085  -1.178  -0.650  0.00  0.00    +0.201 C 
ATOM      3  O   UNL     1       3.877  -0.264  -0.743  0.00  0.00    -0.278 OA
ATOM      4  H   UNL     1       1.136  -1.682  -0.750  0.00  0.00    +0.155 HD
ENDROOT
BRANCH   1   9
ATOM      5  C   UNL     1       0.011   0.758  -1.323  0.00  0.00    +0.051 A 
ATOM      6  C   UNL     1      -0.170   2.162  -1.611  0.00  0.00    +0.024 A 
ATOM      7  C   UNL     1       0.933   2.930  -1.639  0.00  0.00    -0.011 A 
ATOM      8  S   UNL     1       2.246   1.779  -1.291  0.00  0.00    -0.078 S 
ATOM      9  C   UNL     1       1.319   0.328  -1.111  0.00  0.00    +0.083 A 
ATOM     10  C   UNL     1       1.034   4.410  -1.908  0.00  0.00    +0.051 C 
BRANCH   5  11
ATOM     11  C   UNL     1      -1.123  -0.167  -1.263  0.00  0.00    +0.195 C 
ATOM     12  O   UNL     1      -1.618  -0.591  -2.291  0.00  0.00    -0.287 OA
BRANCH  11  17
ATOM     13  C   UNL     1      -3.252  -1.781   3.835  0.00  0.00    +0.044 C 
ATOM     14  C   UNL     1      -2.694  -1.359   2.500  0.00  0.00    -0.050 A 
ATOM     15  C   UNL     1      -3.170  -1.942   1.339  0.00  0.00    +0.004 A 
ATOM     16  C   UNL     1      -2.664  -1.559   0.114  0.00  0.00    +0.012 A 
ATOM     17  C   UNL     1      -1.670  -0.582   0.048  0.00  0.00    +0.022 A 
ATOM     18  C   UNL     1      -1.189  -0.002   1.223  0.00  0.00    +0.012 A 
ATOM     19  C   UNL     1      -1.709  -0.389   2.441  0.00  0.00    +0.004 A 
ENDBRANCH  11  17
ENDBRANCH   5  11
ENDBRANCH   1   9
BRANCH   2  20
ATOM     20  C   UNL     1       3.574  -2.569  -0.339  0.00  0.00    +0.019 C 
BRANCH  20  28
ATOM     21  C   UNL     1       5.687  -2.224  -1.471  0.00  0.00    -0.059 C 
ATOM     22  C   UNL     1       7.191  -2.040  -1.241  0.00  0.00    +0.089 C 
ATOM     23  N   UNL     1       7.711  -3.240  -0.569  0.00  0.00    -0.299 N 
ATOM     24  C   UNL     1       7.024  -3.713   0.642  0.00  0.00    +0.089 C 
ATOM     25  C   UNL     1       5.527  -3.831   0.338  0.00  0.00    -0.059 C 
ATOM     26  C   UNL     1       8.789  -3.891  -1.052  0.00  0.00    +0.282 C 
ATOM     27  O   UNL     1       9.128  -4.952  -0.563  0.00  0.00    -0.267 OA
ATOM     28  N   UNL     1       5.043  -2.532  -0.175  0.00  0.00    +0.387 N 
ATOM     29  H   UNL     1       5.284  -1.796   0.499  0.00  0.00    -0.081 HD
BRANCH  26  30
ATOM     30  C   UNL     1       9.552  -3.319  -2.166  0.00  0.00    +0.189 A 
ATOM     31  C   UNL     1      10.579  -3.926  -2.830  0.00  0.00    +0.054 A 
ATOM     32  C   UNL     1      11.013  -3.024  -3.814  0.00  0.00    +0.042 A 
ATOM     33  C   UNL     1      10.241  -1.919  -3.709  0.00  0.00    +0.196 A 
ATOM     34  O   UNL     1       9.358  -2.103  -2.718  0.00  0.00    -0.458 OA
ENDBRANCH  26  30
ENDBRANCH  20  28
ENDBRANCH   2  20
TORSDOF 6
