REMARK  Name = ZINC37037564
REMARK  6 active torsions:
REMARK  status: ('A' for Active; 'I' for Inactive)
REMARK    1  A    between atoms: C_1  and  C_2
REMARK    2  A    between atoms: C_5  and  N_9
REMARK    3  A    between atoms: C_10  and  C_12
REMARK    4  A    between atoms: C_12  and  S_13
REMARK    5  A    between atoms: S_13  and  C_14
REMARK    6  A    between atoms: C_19  and  N_20
REMARK                            x       y       z     vdW  Elec       q    Type
REMARK                         _______ _______ _______ _____ _____    ______ ____
ROOT
ATOM      1  N   UNL     1       0.057  -4.171  -0.023  0.00  0.00    -0.284 N 
ATOM      2  C   UNL     1      -0.042  -4.839  -1.190  0.00  0.00    +0.227 C 
ATOM      3  O   UNL     1      -0.055  -4.230  -2.238  0.00  0.00    -0.275 OA
ATOM      4  H   UNL     1       0.149  -4.660   0.809  0.00  0.00    +0.155 HD
ENDROOT
BRANCH   1   9
ATOM      5  C   UNL     1      -0.064   1.502   0.016  0.00  0.00    +0.044 C 
ATOM      6  C   UNL     1      -0.031  -0.005   0.006  0.00  0.00    -0.049 A 
ATOM      7  C   UNL     1      -0.622  -0.701  -1.033  0.00  0.00    +0.005 A 
ATOM      8  C   UNL     1      -0.594  -2.082  -1.045  0.00  0.00    +0.025 A 
ATOM      9  C   UNL     1       0.028  -2.772  -0.014  0.00  0.00    +0.052 A 
ATOM     10  C   UNL     1       0.621  -2.070   1.029  0.00  0.00    +0.062 A 
ATOM     11  C   UNL     1       0.595  -0.688   1.032  0.00  0.00    +0.025 A 
ATOM     12 CL   UNL     1       1.401  -2.928   2.321  0.00  0.00    -0.082 Cl
ENDBRANCH   1   9
BRANCH   2  13
ATOM     13  C   UNL     1      -0.136  -6.343  -1.191  0.00  0.00    +0.170 C 
BRANCH  13  14
ATOM     14  S   UNL     1      -0.257  -6.940  -2.899  0.00  0.00    -0.114 S 
BRANCH  14  15
ATOM     15  C   UNL     1      -0.358  -8.691  -2.733  0.00  0.00    +0.029 A 
ATOM     16  C   UNL     1      -0.339  -9.273  -1.474  0.00  0.00    +0.018 A 
ATOM     17  C   UNL     1      -0.418 -10.647  -1.345  0.00  0.00    +0.021 A 
ATOM     18  C   UNL     1      -0.518 -11.446  -2.470  0.00  0.00    +0.043 A 
ATOM     19  C   UNL     1      -0.539 -10.874  -3.730  0.00  0.00    +0.043 A 
ATOM     20  C   UNL     1      -0.465  -9.497  -3.867  0.00  0.00    +0.040 A 
ATOM     21 CL   UNL     1      -0.616 -13.171  -2.300  0.00  0.00    -0.083 Cl
BRANCH  20  22
ATOM     22  N   UNL     1      -0.491  -8.916  -5.141  0.00  0.00    -0.357 N 
ATOM     23  H   UNL     1      -0.435  -7.952  -5.235  0.00  0.00    +0.142 HD
ATOM     24  H   UNL     1      -0.565  -9.477  -5.928  0.00  0.00    +0.142 HD
ENDBRANCH  20  22
ENDBRANCH  14  15
ENDBRANCH  13  14
ENDBRANCH   2  13
TORSDOF 5
