REMARK  Name = ZINC14470624
REMARK  3 active torsions:
REMARK  status: ('A' for Active; 'I' for Inactive)
REMARK    1  A    between atoms: C_6  and  C_7
REMARK    2  A    between atoms: C_16  and  C_19
REMARK    3  A    between atoms: C_23  and  N_25
REMARK                            x       y       z     vdW  Elec       q    Type
REMARK                         _______ _______ _______ _____ _____    ______ ____
ROOT
ATOM      1  C   UNL     1      -3.779  -3.570   1.363  0.00  0.00    +0.020 A 
ATOM      2  C   UNL     1      -3.044  -2.424   1.557  0.00  0.00    +0.024 A 
ATOM      3  C   UNL     1      -3.175  -1.344   0.688  0.00  0.00    +0.031 A 
ATOM      4  C   UNL     1      -4.074  -1.428  -0.386  0.00  0.00    -0.018 A 
ATOM      5  C   UNL     1      -4.803  -2.574  -0.587  0.00  0.00    +0.025 A 
ATOM      6  C   UNL     1      -4.665  -3.658   0.285  0.00  0.00    +0.052 A 
ATOM      7  C   UNL     1      -4.199  -0.245  -1.266  0.00  0.00    +0.049 C 
ATOM      8  C   UNL     1      -4.602  -0.363  -2.690  0.00  0.00    -0.023 C 
ATOM      9  C   UNL     1      -4.020   0.613  -3.377  0.00  0.00    -0.030 C 
ATOM     10  C   UNL     1      -3.140   1.453  -2.449  0.00  0.00    +0.033 C 
ATOM     11  C   UNL     1      -2.797   0.426  -1.366  0.00  0.00    +0.029 C 
ATOM     12  C   UNL     1      -2.514   0.979   0.019  0.00  0.00    +0.105 C 
ATOM     13  N   UNL     1      -2.404  -0.201   0.904  0.00  0.00    -0.336 N 
ATOM     14  H   UNL     1      -1.784  -0.179   1.651  0.00  0.00    +0.147 HD
ENDROOT
BRANCH  12  15
ATOM     15  C   UNL     1      -1.219   1.751   0.017  0.00  0.00    -0.025 A 
ATOM     16  C   UNL     1      -0.013   1.076   0.008  0.00  0.00    +0.007 A 
ATOM     17  C   UNL     1       1.175   1.783   0.000  0.00  0.00    +0.022 A 
ATOM     18  C   UNL     1       1.156   3.167   0.008  0.00  0.00    +0.071 A 
ATOM     19  C   UNL     1      -0.052   3.841   0.022  0.00  0.00    +0.145 A 
ATOM     20  C   UNL     1      -1.239   3.133   0.030  0.00  0.00    +0.039 A 
ATOM     21 CL   UNL     1       2.647   4.055  -0.003  0.00  0.00    -0.081 Cl
BRANCH  19  22
ATOM     22  N   UNL     1      -0.073   5.321   0.030  0.00  0.00    +0.058 N 
ATOM     23  O   UNL     1      -1.136   5.915   0.043  0.00  0.00    -0.126 OA
ATOM     24  O   UNL     1       0.973   5.945   0.024  0.00  0.00    -0.126 OA
ENDBRANCH  19  22
ENDBRANCH  12  15
BRANCH   6  25
ATOM     25  C   UNL     1      -5.427  -4.852   0.076  0.00  0.00    +0.099 C 
ATOM     26  N   UNL     1      -6.031  -5.800  -0.090  0.00  0.00    -0.191 NA
ENDBRANCH   6  25
TORSDOF 3
