REMARK  Name = ZINC04286723
REMARK  8 active torsions:
REMARK  status: ('A' for Active; 'I' for Inactive)
REMARK    1  A    between atoms: C_1  and  C_2
REMARK    2  A    between atoms: C_2  and  C_31
REMARK    3  A    between atoms: C_13  and  C_15
REMARK    4  A    between atoms: C_15  and  O_16
REMARK    5  A    between atoms: O_16  and  C_17
REMARK    6  A    between atoms: C_17  and  C_19
REMARK    7  A    between atoms: C_19  and  C_20
REMARK    8  A    between atoms: C_20  and  C_21
REMARK                            x       y       z     vdW  Elec       q    Type
REMARK                         _______ _______ _______ _____ _____    ______ ____
ROOT
ATOM      1  C   UNL     1      -5.041   1.003   0.236  0.00  0.00    +0.042 C 
ATOM      2  C   UNL     1      -3.754   1.815   0.395  0.00  0.00    +0.113 C 
ATOM      3  C   UNL     1      -3.977   3.218  -0.107  0.00  0.00    +0.241 C 
ATOM      4  O   UNL     1      -5.078   3.719  -0.017  0.00  0.00    -0.273 OA
ATOM      5  N   UNL     1      -2.967   3.923  -0.645  0.00  0.00    -0.282 N 
ATOM      6  C   UNL     1      -1.701   3.351  -0.811  0.00  0.00    +0.055 A 
ATOM      7  C   UNL     1      -0.599   4.139  -1.103  0.00  0.00    +0.025 A 
ATOM      8  C   UNL     1       0.641   3.552  -1.272  0.00  0.00    +0.002 A 
ATOM      9  C   UNL     1       0.788   2.182  -1.153  0.00  0.00    +0.002 A 
ATOM     10  C   UNL     1      -0.306   1.387  -0.860  0.00  0.00    +0.025 A 
ATOM     11  C   UNL     1      -1.550   1.968  -0.692  0.00  0.00    +0.059 A 
ATOM     12  N   UNL     1      -2.679   1.190  -0.390  0.00  0.00    -0.253 N 
ATOM     13  C   UNL     1      -2.773  -0.089  -0.805  0.00  0.00    +0.258 C 
ATOM     14  O   UNL     1      -3.703  -0.777  -0.441  0.00  0.00    -0.271 OA
ATOM     15  C   UNL     1      -3.354   1.855   1.871  0.00  0.00    +0.042 C 
ATOM     16  H   UNL     1      -3.122   4.837  -0.932  0.00  0.00    +0.155 HD
ENDROOT
BRANCH  13  17
ATOM     17  C   UNL     1      -1.724  -0.663  -1.722  0.00  0.00    +0.328 C 
BRANCH  17  18
ATOM     18  O   UNL     1      -2.257  -1.834  -2.394  0.00  0.00    -0.455 OA
BRANCH  18  19
ATOM     19  C   UNL     1      -1.442  -2.468  -3.252  0.00  0.00    +0.308 C 
ATOM     20  O   UNL     1      -0.321  -2.058  -3.435  0.00  0.00    -0.251 OA
BRANCH  19  21
ATOM     21  C   UNL     1      -1.926  -3.692  -3.986  0.00  0.00    +0.125 C 
BRANCH  21  22
ATOM     22  C   UNL     1      -0.812  -4.216  -4.894  0.00  0.00    +0.048 C 
BRANCH  22  23
ATOM     23  C   UNL     1      -1.296  -5.440  -5.629  0.00  0.00    -0.022 A 
ATOM     24  C   UNL     1      -1.105  -6.717  -5.264  0.00  0.00    +0.087 A 
ATOM     25  N   UNL     1      -1.690  -7.555  -6.175  0.00  0.00    -0.360 N 
ATOM     26  H   UNL     1      -1.687  -8.523  -6.123  0.00  0.00    +0.165 HD
ATOM     27  C   UNL     1      -2.279  -6.817  -7.177  0.00  0.00    +0.047 A 
ATOM     28  C   UNL     1      -2.058  -5.460  -6.879  0.00  0.00    +0.003 A 
ATOM     29  C   UNL     1      -2.549  -4.471  -7.733  0.00  0.00    +0.010 A 
ATOM     30  C   UNL     1      -3.244  -4.826  -8.855  0.00  0.00    +0.001 A 
ATOM     31  C   UNL     1      -3.464  -6.163  -9.153  0.00  0.00    +0.002 A 
ATOM     32  C   UNL     1      -2.988  -7.156  -8.325  0.00  0.00    +0.026 A 
ENDBRANCH  22  23
ENDBRANCH  21  22
ENDBRANCH  19  21
ENDBRANCH  18  19
ENDBRANCH  17  18
ENDBRANCH  13  17
TORSDOF 6
