REMARK  Name = ZINC66620634
REMARK  5 active torsions:
REMARK  status: ('A' for Active; 'I' for Inactive)
REMARK    1  A    between atoms: C_1  and  C_2
REMARK    2  A    between atoms: C_6  and  C_8
REMARK    3  A    between atoms: C_14  and  C_16
REMARK    4  A    between atoms: N_18  and  C_28
REMARK    5  A    between atoms: C_20  and  C_21
REMARK                            x       y       z     vdW  Elec       q    Type
REMARK                         _______ _______ _______ _____ _____    ______ ____
ROOT
ATOM      1  C   UNL     1       0.241  -2.697   2.495  0.00  0.00    +0.203 A 
ATOM      2  N   UNL     1       0.331  -2.107   3.695  0.00  0.00    -0.190 NA
ATOM      3  C   UNL     1       0.176  -3.004   4.642  0.00  0.00    +0.244 A 
ATOM      4  N   UNL     1      -0.020  -4.204   4.054  0.00  0.00    -0.111 NA
ATOM      5  N   UNL     1       0.021  -3.981   2.668  0.00  0.00    -0.124 NA
ATOM      6  N   UNL     1       0.208  -2.761   6.007  0.00  0.00    -0.249 N 
ATOM      7  C   UNL     1       0.034  -3.776   6.876  0.00  0.00    +0.254 C 
ATOM      8  O   UNL     1      -0.152  -4.905   6.464  0.00  0.00    -0.270 OA
ATOM      9  H   UNL     1       0.356  -1.861   6.336  0.00  0.00    +0.158 HD
ENDROOT
BRANCH   1  15
ATOM     10  C   UNL     1       0.943   1.429   0.010  0.00  0.00    +0.065 C 
ATOM     11  C   UNL     1       0.696  -0.058   0.002  0.00  0.00    +0.039 A 
ATOM     12  C   UNL     1       0.593  -0.725  -1.205  0.00  0.00    +0.023 A 
ATOM     13  C   UNL     1       0.365  -2.094  -1.208  0.00  0.00    +0.004 A 
ATOM     14  C   UNL     1       0.249  -2.747   0.007  0.00  0.00    +0.031 A 
ATOM     15  C   UNL     1       0.363  -2.012   1.185  0.00  0.00    +0.110 A 
ATOM     16  N   UNL     1       0.586  -0.704   1.144  0.00  0.00    -0.249 NA
ENDBRANCH   1  15
BRANCH   7  17
ATOM     17  C   UNL     1       0.067  -3.518   8.325  0.00  0.00    +0.082 A 
ATOM     18  C   UNL     1       0.154  -2.288   8.945  0.00  0.00    +0.121 A 
ATOM     19  N   UNL     1       0.157  -2.494  10.271  0.00  0.00    -0.273 N 
ATOM     20  N   UNL     1       0.071  -3.864  10.535  0.00  0.00    -0.171 NA
ATOM     21  C   UNL     1       0.009  -4.518   9.397  0.00  0.00    +0.106 A 
ATOM     22  C   UNL     1       0.237  -1.442  11.287  0.00  0.00    +0.172 C 
BRANCH  21  23
ATOM     23  C   UNL     1      -0.095  -5.987   9.229  0.00  0.00    +0.021 A 
ATOM     24  C   UNL     1       0.794  -6.660   8.393  0.00  0.00    +0.011 A 
ATOM     25  C   UNL     1       0.693  -8.028   8.241  0.00  0.00    +0.001 A 
ATOM     26  C   UNL     1      -0.290  -8.732   8.915  0.00  0.00    +0.001 A 
ATOM     27  C   UNL     1      -1.176  -8.070   9.745  0.00  0.00    +0.020 A 
ATOM     28  C   UNL     1      -1.081  -6.701   9.910  0.00  0.00    +0.050 A 
ATOM     29 CL   UNL     1      -2.189  -5.872  10.958  0.00  0.00    -0.083 Cl
ENDBRANCH  21  23
ENDBRANCH   7  17
TORSDOF 3
