REMARK  Name = ZINC17329589
REMARK  10 active torsions:
REMARK  status: ('A' for Active; 'I' for Inactive)
REMARK    1  A    between atoms: C_1  and  S_2
REMARK    2  A    between atoms: S_2  and  C_3
REMARK    3  A    between atoms: C_3  and  C_4
REMARK    4  A    between atoms: C_4  and  C_5
REMARK    5  A    between atoms: C_5  and  C_7
REMARK    6  A    between atoms: C_5  and  N_22
REMARK    7  A    between atoms: N_9  and  N_10
REMARK    8  A    between atoms: C_11  and  C_13
REMARK    9  A    between atoms: C_17  and  N_19
REMARK   10  A    between atoms: C_23  and  C_25
REMARK                            x       y       z     vdW  Elec       q    Type
REMARK                         _______ _______ _______ _____ _____    ______ ____
ROOT
ATOM      1  C   UNL     1       3.483   2.068  -0.621  0.00  0.00    +0.249 C 
ATOM      2  O   UNL     1       3.200   3.184  -1.002  0.00  0.00    -0.272 OA
ATOM      3  N   UNL     1       4.748   1.616  -0.739  0.00  0.00    -0.233 N 
ATOM      4  H   UNL     1       4.974   0.724  -0.434  0.00  0.00    +0.173 HD
ENDROOT
BRANCH   3   5
ATOM      5  N   UNL     1       5.734   2.436  -1.302  0.00  0.00    -0.230 N 
ATOM      6  C   UNL     1       6.999   1.985  -1.421  0.00  0.00    +0.260 C 
ATOM      7  O   UNL     1       7.283   0.866  -1.039  0.00  0.00    -0.269 OA
ATOM      8  H   UNL     1       5.507   3.329  -1.607  0.00  0.00    +0.173 HD
BRANCH   6   9
ATOM      9  C   UNL     1       8.040   2.850  -2.015  0.00  0.00    +0.040 A 
ATOM     10  C   UNL     1       7.715   4.133  -2.460  0.00  0.00    +0.013 A 
ATOM     11  C   UNL     1       8.693   4.936  -3.009  0.00  0.00    +0.003 A 
ATOM     12  C   UNL     1       9.990   4.470  -3.130  0.00  0.00    +0.033 A 
ATOM     13  C   UNL     1      10.317   3.198  -2.696  0.00  0.00    +0.127 A 
ATOM     14  C   UNL     1       9.350   2.385  -2.140  0.00  0.00    +0.045 A 
BRANCH  13  15
ATOM     15  N   UNL     1      11.707   2.707  -2.829  0.00  0.00    +0.056 N 
ATOM     16  O   UNL     1      11.996   1.586  -2.448  0.00  0.00    -0.126 OA
ATOM     17  O   UNL     1      12.561   3.422  -3.320  0.00  0.00    -0.126 OA
ENDBRANCH  13  15
ENDBRANCH   6   9
ENDBRANCH   3   5
BRANCH   1  18
ATOM     18  C   UNL     1       2.422   1.186  -0.015  0.00  0.00    +0.161 C 
BRANCH  18  19
ATOM     19  N   UNL     1       1.143   1.901   0.001  0.00  0.00    -0.300 N 
ATOM     20  C   UNL     1      -0.014   1.211   0.009  0.00  0.00    +0.246 C 
ATOM     21  O   UNL     1       0.002  -0.004   0.002  0.00  0.00    -0.270 OA
ATOM     22  H   UNL     1       1.130   2.871   0.007  0.00  0.00    +0.150 HD
BRANCH  20  23
ATOM     23  C   UNL     1      -1.304   1.933   0.019  0.00  0.00    +0.051 A 
ATOM     24  C   UNL     1      -1.327   3.329   0.032  0.00  0.00    +0.014 A 
ATOM     25  C   UNL     1      -2.534   3.996   0.036  0.00  0.00    +0.001 A 
ATOM     26  C   UNL     1      -3.721   3.285   0.037  0.00  0.00    +0.001 A 
ATOM     27  C   UNL     1      -3.708   1.903   0.030  0.00  0.00    +0.016 A 
ATOM     28  C   UNL     1      -2.506   1.221   0.021  0.00  0.00    +0.030 A 
ATOM     29 BR   UNL     1      -2.488  -0.669   0.011  0.00  0.00    -0.050 Br
ENDBRANCH  20  23
ENDBRANCH  18  19
BRANCH  18  30
ATOM     30  C   UNL     1       2.819   0.820   1.417  0.00  0.00    +0.042 C 
BRANCH  30  31
ATOM     31  C   UNL     1       1.807  -0.175   1.988  0.00  0.00    +0.071 C 
BRANCH  31  33
ATOM     32  C   UNL     1       0.995  -1.778   4.212  0.00  0.00    +0.084 C 
ATOM     33  S   UNL     1       2.278  -0.609   3.686  0.00  0.00    -0.164 S 
ENDBRANCH  31  33
ENDBRANCH  30  31
ENDBRANCH  18  30
ENDBRANCH   1  18
TORSDOF 9
