REMARK  Name = ZINC03913674
REMARK  1 active torsions:
REMARK  status: ('A' for Active; 'I' for Inactive)
REMARK    1  A    between atoms: C_1  and  C_2
REMARK                            x       y       z     vdW  Elec       q    Type
REMARK                         _______ _______ _______ _____ _____    ______ ____
ROOT
ATOM      1  C   UNL     1      -0.019   1.526   0.010  0.00  0.00    +0.007 C 
ATOM      2  C   UNL     1       0.002  -0.004   0.002  0.00  0.00    -0.011 C 
ATOM      3  C   UNL     1       0.717  -0.497  -1.258  0.00  0.00    +0.022 C 
ATOM      4  C   UNL     1       0.705  -2.029  -1.280  0.00  0.00    +0.107 C 
ATOM      5  N   UNL     1       1.285  -2.525  -0.025  0.00  0.00    -0.308 N 
ATOM      6  C   UNL     1       0.731  -2.043   1.248  0.00  0.00    +0.107 C 
ATOM      7  C   UNL     1       0.742  -0.511   1.242  0.00  0.00    +0.022 C 
ATOM      8  C   UNL     1       2.337  -3.433  -0.040  0.00  0.00    +0.186 A 
ATOM      9  N   UNL     1       2.963  -3.969  -1.069  0.00  0.00    -0.124 NA
ATOM     10  N   UNL     1       3.993  -4.857  -0.858  0.00  0.00    -0.125 NA
ATOM     11  C   UNL     1       4.348  -5.168   0.373  0.00  0.00    +0.180 A 
ATOM     12  S   UNL     1       3.209  -4.179   1.329  0.00  0.00    -0.016 S 
ATOM     13  N   UNL     1       5.346  -6.031   0.810  0.00  0.00    -0.336 N 
ATOM     14  H   UNL     1       5.896  -6.503   0.165  0.00  0.00    +0.144 HD
ATOM     15  H   UNL     1       5.493  -6.162   1.760  0.00  0.00    +0.144 HD
ENDROOT
TORSDOF 0
