REMARK  Name = ZINC63529258
REMARK  9 active torsions:
REMARK  status: ('A' for Active; 'I' for Inactive)
REMARK    1  A    between atoms: C_1  and  O_2
REMARK    2  A    between atoms: O_2  and  C_3
REMARK    3  A    between atoms: C_9  and  C_12
REMARK    4  A    between atoms: C_12  and  C_13
REMARK    5  A    between atoms: C_13  and  N_14
REMARK    6  A    between atoms: C_15  and  C_28
REMARK    7  A    between atoms: N_19  and  C_22
REMARK    8  A    between atoms: C_28  and  C_29
REMARK    9  A    between atoms: N_31  and  C_32
REMARK                            x       y       z     vdW  Elec       q    Type
REMARK                         _______ _______ _______ _____ _____    ______ ____
ROOT
ATOM      1  N   UNL     1       1.803  -6.751  -0.454  0.00  0.00    -0.300 N 
ATOM      2  C   UNL     1       2.083  -8.169  -0.169  0.00  0.00    +0.171 C 
ATOM      3  C   UNL     1       1.825  -8.856  -1.496  0.00  0.00    +0.246 C 
ATOM      4  O   UNL     1       1.929 -10.039  -1.740  0.00  0.00    -0.273 OA
ATOM      5  N   UNL     1       1.456  -7.878  -2.346  0.00  0.00    -0.220 N 
ATOM      6  C   UNL     1       1.440  -6.682  -1.747  0.00  0.00    +0.147 C 
ATOM      7  S   UNL     1       1.009  -5.227  -2.539  0.00  0.00    -0.018 S 
ENDROOT
BRANCH   5   8
ATOM      8  C   UNL     1       1.125  -8.089  -3.692  0.00  0.00    +0.043 A 
ATOM      9  C   UNL     1       1.941  -7.586  -4.696  0.00  0.00    +0.024 A 
ATOM     10  C   UNL     1       1.612  -7.795  -6.021  0.00  0.00    +0.002 A 
ATOM     11  C   UNL     1       0.472  -8.506  -6.348  0.00  0.00    +0.000 A 
ATOM     12  C   UNL     1      -0.343  -9.008  -5.350  0.00  0.00    +0.002 A 
ATOM     13  C   UNL     1      -0.016  -8.807  -4.024  0.00  0.00    +0.024 A 
ENDBRANCH   5   8
BRANCH   1  14
ATOM     14  C   UNL     1       1.895  -5.634   0.490  0.00  0.00    +0.112 C 
BRANCH  14  15
ATOM     15  C   UNL     1       0.520  -5.375   1.109  0.00  0.00    +0.052 C 
BRANCH  15  22
ATOM     16  C   UNL     1      -0.288  -0.875   0.671  0.00  0.00    +0.121 A 
ATOM     17  C   UNL     1      -0.077  -0.127   1.843  0.00  0.00    +0.047 A 
ATOM     18  C   UNL     1       0.331  -0.691   3.000  0.00  0.00    +0.029 A 
ATOM     19  C   UNL     1       0.569  -2.136   3.062  0.00  0.00    +0.043 A 
ATOM     20  N   UNL     1       0.960  -2.919   4.037  0.00  0.00    -0.380 N 
ATOM     21  C   UNL     1       1.030  -4.295   3.533  0.00  0.00    +0.144 C 
ATOM     22  C   UNL     1       0.615  -4.226   2.080  0.00  0.00    -0.040 C 
ATOM     23  C   UNL     1       0.346  -2.925   1.828  0.00  0.00    +0.002 A 
ATOM     24  C   UNL     1      -0.102  -2.216   0.625  0.00  0.00    +0.055 A 
ATOM     25  H   UNL     1       1.169  -2.636   4.941  0.00  0.00    +0.160 HD
BRANCH  16  27
ATOM     26  C   UNL     1      -0.883   1.184  -0.359  0.00  0.00    +0.277 C 
ATOM     27  O   UNL     1      -0.699  -0.230  -0.453  0.00  0.00    -0.495 OA
ENDBRANCH  16  27
ENDBRANCH  15  22
ENDBRANCH  14  15
ENDBRANCH   1  14
BRANCH   2  28
ATOM     28  C   UNL     1       3.540  -8.353   0.262  0.00  0.00    +0.128 C 
BRANCH  28  29
ATOM     29  C   UNL     1       3.760  -9.781   0.691  0.00  0.00    +0.219 C 
ATOM     30  O   UNL     1       2.820 -10.546   0.758  0.00  0.00    -0.275 OA
ATOM     31  N   UNL     1       5.000 -10.209   0.999  0.00  0.00    -0.285 N 
ATOM     32  H   UNL     1       5.741  -9.583   1.005  0.00  0.00    +0.155 HD
BRANCH  31  33
ATOM     33  C   UNL     1       5.218 -11.556   1.310  0.00  0.00    +0.033 A 
ATOM     34  C   UNL     1       6.396 -12.178   0.918  0.00  0.00    +0.023 A 
ATOM     35  C   UNL     1       6.609 -13.507   1.227  0.00  0.00    +0.002 A 
ATOM     36  C   UNL     1       5.651 -14.218   1.926  0.00  0.00    +0.000 A 
ATOM     37  C   UNL     1       4.476 -13.601   2.317  0.00  0.00    +0.002 A 
ATOM     38  C   UNL     1       4.260 -12.271   2.017  0.00  0.00    +0.023 A 
ENDBRANCH  31  33
ENDBRANCH  28  29
ENDBRANCH   2  28
TORSDOF 8
