REMARK  Name = ZINC66934740
REMARK  12 active torsions:
REMARK  status: ('A' for Active; 'I' for Inactive)
REMARK    1  A    between atoms: C_1  and  C_2
REMARK    2  A    between atoms: C_2  and  O_3
REMARK    3  A    between atoms: O_3  and  C_4
REMARK    4  A    between atoms: C_4  and  C_5
REMARK    5  A    between atoms: C_5  and  N_6
REMARK    6  A    between atoms: N_6  and  C_7
REMARK    7  A    between atoms: N_6  and  S_17
REMARK    8  A    between atoms: C_7  and  C_8
REMARK    9  A    between atoms: C_11  and  C_13
REMARK   10  A    between atoms: C_13  and  O_15
REMARK   11  A    between atoms: O_15  and  C_16
REMARK   12  A    between atoms: S_17  and  C_20
REMARK                            x       y       z     vdW  Elec       q    Type
REMARK                         _______ _______ _______ _____ _____    ______ ____
ROOT
ATOM      1  N   UNL     1      -3.467  -2.064  -1.208  0.00  0.00    -0.171 NA
ENDROOT
BRANCH   1   2
ATOM      2  S   UNL     1      -4.125  -0.545  -1.167  0.00  0.00    +0.035 S 
ATOM      3  O   UNL     1      -5.295  -0.635  -1.968  0.00  0.00    -0.158 OA
ATOM      4  O   UNL     1      -4.217  -0.227   0.215  0.00  0.00    -0.158 OA
BRANCH   2   5
ATOM      5  C   UNL     1      -2.895   0.518  -1.972  0.00  0.00    +0.148 C 
ATOM      6  C   UNL     1      -1.542   0.409  -1.240  0.00  0.00    +0.028 C 
ATOM      7  C   UNL     1      -0.966   1.846  -1.291  0.00  0.00    +0.002 C 
ATOM      8  C   UNL     1      -2.224   2.727  -1.091  0.00  0.00    +0.002 C 
ATOM      9  C   UNL     1      -3.329   1.991  -1.878  0.00  0.00    +0.028 C 
ENDBRANCH   2   5
ENDBRANCH   1   2
BRANCH   1  10
ATOM     10  C   UNL     1      -2.744  -2.581  -0.043  0.00  0.00    +0.137 C 
BRANCH  10  11
ATOM     11  C   UNL     1      -3.725  -2.795   1.112  0.00  0.00    +0.177 C 
BRANCH  11  12
ATOM     12  O   UNL     1      -4.685  -3.788   0.744  0.00  0.00    -0.379 OA
BRANCH  12  14
ATOM     13  C   UNL     1      -6.604  -5.154   1.280  0.00  0.00    +0.034 C 
ATOM     14  C   UNL     1      -5.718  -3.984   1.711  0.00  0.00    +0.156 C 
ENDBRANCH  12  14
ENDBRANCH  11  12
ENDBRANCH  10  11
ENDBRANCH   1  10
BRANCH   1  15
ATOM     15  C   UNL     1      -3.607  -2.890  -2.409  0.00  0.00    +0.183 C 
BRANCH  15  16
ATOM     16  C   UNL     1      -4.798  -3.801  -2.256  0.00  0.00    +0.122 A 
ATOM     17  C   UNL     1      -6.063  -3.513  -2.633  0.00  0.00    +0.047 A 
ATOM     18  C   UNL     1      -6.854  -4.626  -2.313  0.00  0.00    +0.057 A 
ATOM     19  C   UNL     1      -6.021  -5.551  -1.749  0.00  0.00    +0.212 A 
ATOM     20  O   UNL     1      -4.775  -5.032  -1.729  0.00  0.00    -0.452 OA
BRANCH  19  21
ATOM     21  C   UNL     1      -6.410  -6.874  -1.257  0.00  0.00    +0.375 C 
ATOM     22  O   UNL     1      -7.569  -7.234  -1.333  0.00  0.00    -0.241 OA
BRANCH  21  23
ATOM     23  O   UNL     1      -5.483  -7.694  -0.720  0.00  0.00    -0.462 OA
ATOM     24  C   UNL     1      -5.934  -8.970  -0.260  0.00  0.00    +0.280 C 
ENDBRANCH  21  23
ENDBRANCH  19  21
ENDBRANCH  15  16
ENDBRANCH   1  15
TORSDOF 10
