REMARK  Name = ZINC30291482
REMARK  6 active torsions:
REMARK  status: ('A' for Active; 'I' for Inactive)
REMARK    1  A    between atoms: C_1  and  C_2
REMARK    2  A    between atoms: C_2  and  C_4
REMARK    3  A    between atoms: C_9  and  N_10
REMARK    4  A    between atoms: N_10  and  C_11
REMARK    5  A    between atoms: C_11  and  C_12
REMARK    6  A    between atoms: N_17  and  C_18
REMARK                            x       y       z     vdW  Elec       q    Type
REMARK                         _______ _______ _______ _____ _____    ______ ____
ROOT
ATOM      1  C   UNL     1      -7.175   1.149   2.126  0.00  0.00    +0.237 C 
ATOM      2  O   UNL     1      -6.782   1.856   3.028  0.00  0.00    -0.274 OA
ATOM      3  N   UNL     1      -6.344   0.821   1.116  0.00  0.00    -0.239 N 
ATOM      4  C   UNL     1      -5.077   1.280   1.110  0.00  0.00    +0.306 C 
ATOM      5  O   UNL     1      -4.683   1.989   2.015  0.00  0.00    -0.252 OA
ATOM      6  N   UNL     1      -4.247   0.953   0.100  0.00  0.00    -0.294 N 
ATOM      7  H   UNL     1      -6.701   0.180   0.297  0.00  0.00    +0.159 HD
ATOM      8  H   UNL     1      -4.603   0.311  -0.719  0.00  0.00    +0.151 HD
ENDROOT
BRANCH   6   9
ATOM      9  C   UNL     1      -2.869   1.451   0.093  0.00  0.00    +0.037 C 
ATOM     10  C   UNL     1      -2.147   0.936  -1.153  0.00  0.00    +0.029 C 
ATOM     11  C   UNL     1      -0.708   1.457  -1.160  0.00  0.00    -0.008 C 
ATOM     12  C   UNL     1       0.019   0.963   0.092  0.00  0.00    +0.007 C 
ATOM     13  C   UNL     1      -0.703   1.477   1.339  0.00  0.00    -0.008 C 
ATOM     14  C   UNL     1      -2.142   0.957   1.345  0.00  0.00    +0.029 C 
ATOM     15  C   UNL     1      -0.715   3.007   1.326  0.00  0.00    +0.007 C 
ATOM     16  C   UNL     1      -1.442   3.502   0.074  0.00  0.00    -0.008 C 
ATOM     17  C   UNL     1      -0.719   2.987  -1.172  0.00  0.00    +0.007 C 
ATOM     18  C   UNL     1      -2.881   2.981   0.081  0.00  0.00    +0.029 C 
ENDBRANCH   6   9
BRANCH   1  19
ATOM     19  C   UNL     1      -8.592   0.636   2.132  0.00  0.00    +0.198 C 
BRANCH  19  20
ATOM     20  N   UNL     1      -9.284   1.129   3.326  0.00  0.00    -0.335 N 
ATOM     21  H   UNL     1      -8.753   1.771   4.044  0.00  0.00    +0.147 HD
BRANCH  20  27
ATOM     22  C   UNL     1     -11.243   1.160   4.749  0.00  0.00    +0.038 A 
ATOM     23  C   UNL     1     -12.581   0.806   4.962  0.00  0.00    +0.013 A 
ATOM     24  C   UNL     1     -13.264   0.097   3.999  0.00  0.00    +0.001 A 
ATOM     25  C   UNL     1     -12.635  -0.269   2.819  0.00  0.00    +0.002 A 
ATOM     26  C   UNL     1     -11.319   0.076   2.591  0.00  0.00    +0.023 A 
ATOM     27  C   UNL     1     -10.609   0.786   3.551  0.00  0.00    +0.038 A 
BRANCH  22  29
ATOM     28  C   UNL     1     -11.150   2.203   7.102  0.00  0.00    +0.091 C 
ATOM     29  C   UNL     1     -10.508   1.915   5.769  0.00  0.00    +0.162 C 
ATOM     30  O   UNL     1      -9.383   2.307   5.540  0.00  0.00    -0.292 OA
ENDBRANCH  22  29
ENDBRANCH  20  27
ENDBRANCH  19  20
ENDBRANCH   1  19
TORSDOF 5
