REMARK  Name = ZINC46016861
REMARK  6 active torsions:
REMARK  status: ('A' for Active; 'I' for Inactive)
REMARK    1  A    between atoms: C_1  and  C_2
REMARK    2  A    between atoms: C_2  and  N_3
REMARK    3  A    between atoms: C_13  and  S_15
REMARK    4  A    between atoms: S_15  and  C_16
REMARK    5  A    between atoms: C_16  and  C_17
REMARK    6  A    between atoms: N_23  and  C_24
REMARK                            x       y       z     vdW  Elec       q    Type
REMARK                         _______ _______ _______ _____ _____    ______ ____
ROOT
ATOM      1  N   UNL     1      -1.372  -0.511   0.012  0.00  0.00    -0.314 N 
ATOM      2  C   UNL     1      -1.606  -1.871   0.007  0.00  0.00    +0.221 A 
ATOM      3  N   UNL     1      -2.853  -2.332   0.011  0.00  0.00    -0.181 NA
ATOM      4  C   UNL     1      -3.077  -3.642   0.006  0.00  0.00    +0.221 A 
ATOM      5  N   UNL     1      -2.054  -4.491  -0.002  0.00  0.00    -0.177 NA
ATOM      6  C   UNL     1      -0.809  -4.030  -0.006  0.00  0.00    +0.259 A 
ATOM      7  N   UNL     1      -0.584  -2.722  -0.007  0.00  0.00    -0.177 NA
ATOM      8  N   UNL     1       0.262  -4.920  -0.015  0.00  0.00    -0.184 N 
ATOM      9  C   UNL     1       1.574  -4.605  -0.015  0.00  0.00    +0.229 A 
ATOM     10  N   UNL     1       2.260  -5.718  -0.025  0.00  0.00    -0.209 NA
ATOM     11  C   UNL     1       1.425  -6.765  -0.032  0.00  0.00    +0.210 A 
ATOM     12  N   UNL     1       0.190  -6.322  -0.021  0.00  0.00    -0.136 NA
ATOM     13  N   UNL     1      -4.371  -4.120   0.011  0.00  0.00    -0.310 N 
ATOM     14  H   UNL     1      -2.118   0.109   0.023  0.00  0.00    +0.149 HD
ATOM     15  H   UNL     1      -5.118  -3.501   0.018  0.00  0.00    +0.149 HD
ENDROOT
BRANCH  13  16
ATOM     16  C   UNL     1      -4.618  -5.565   0.006  0.00  0.00    +0.073 C 
ATOM     17  C   UNL     1      -5.710  -6.091  -0.927  0.00  0.00    +0.024 C 
ATOM     18  C   UNL     1      -5.946  -6.056   0.584  0.00  0.00    +0.024 C 
ENDBRANCH  13  16
BRANCH   1  20
ATOM     19  C   UNL     1      -0.019   1.526   0.010  0.00  0.00    +0.024 C 
ATOM     20  C   UNL     1       0.002  -0.004   0.002  0.00  0.00    +0.101 C 
ENDBRANCH   1  20
BRANCH  11  21
ATOM     21  S   UNL     1       1.907  -8.459  -0.047  0.00  0.00    -0.080 S 
BRANCH  21  22
ATOM     22  C   UNL     1       3.720  -8.400  -0.050  0.00  0.00    +0.112 C 
BRANCH  22  23
ATOM     23  C   UNL     1       4.269  -9.804  -0.063  0.00  0.00    -0.037 A 
ATOM     24  C   UNL     1       4.517 -10.460   1.129  0.00  0.00    +0.004 A 
ATOM     25  C   UNL     1       5.020 -11.747   1.117  0.00  0.00    +0.000 A 
ATOM     26  C   UNL     1       5.274 -12.379  -0.086  0.00  0.00    +0.000 A 
ATOM     27  C   UNL     1       5.025 -11.723  -1.277  0.00  0.00    +0.000 A 
ATOM     28  C   UNL     1       4.518 -10.437  -1.266  0.00  0.00    +0.004 A 
ENDBRANCH  22  23
ENDBRANCH  21  22
ENDBRANCH  11  21
TORSDOF 5
