REMARK  Name = ZINC09924401
REMARK  11 active torsions:
REMARK  status: ('A' for Active; 'I' for Inactive)
REMARK    1  A    between atoms: C_1  and  C_2
REMARK    2  A    between atoms: C_2  and  C_4
REMARK    3  A    between atoms: C_2  and  O_23
REMARK    4  A    between atoms: N_6  and  C_7
REMARK    5  A    between atoms: C_9  and  C_19
REMARK    6  A    between atoms: C_12  and  N_13
REMARK    7  A    between atoms: O_23  and  C_24
REMARK    8  A    between atoms: C_24  and  C_26
REMARK    9  A    between atoms: C_29  and  N_35
REMARK   10  A    between atoms: C_30  and  N_32
REMARK   11  A    between atoms: N_35  and  C_36
REMARK                            x       y       z     vdW  Elec       q    Type
REMARK                         _______ _______ _______ _____ _____    ______ ____
ROOT
ATOM      1  C   UNL     1       1.529   2.237   4.348  0.00  0.00    +0.258 C 
ATOM      2  O   UNL     1       2.189   1.877   3.396  0.00  0.00    -0.271 OA
ATOM      3  N   UNL     1       0.212   2.480   4.201  0.00  0.00    -0.281 N 
ATOM      4  H   UNL     1      -0.303   2.826   4.947  0.00  0.00    +0.155 HD
ENDROOT
BRANCH   3   5
ATOM      5  C   UNL     1      -0.414   2.232   2.972  0.00  0.00    +0.055 A 
ATOM      6  C   UNL     1       0.276   2.435   1.787  0.00  0.00    +0.037 A 
ATOM      7  C   UNL     1      -0.344   2.189   0.576  0.00  0.00    +0.057 A 
ATOM      8  C   UNL     1      -1.653   1.745   0.541  0.00  0.00    +0.014 A 
ATOM      9  C   UNL     1      -2.346   1.534   1.718  0.00  0.00    +0.025 A 
ATOM     10  C   UNL     1      -1.733   1.778   2.938  0.00  0.00    +0.051 A 
BRANCH  10  11
ATOM     11  N   UNL     1      -2.435   1.570   4.130  0.00  0.00    -0.324 N 
ATOM     12  C   UNL     1      -2.789   0.153   4.293  0.00  0.00    +0.133 C 
ATOM     13  C   UNL     1      -3.501  -0.039   5.634  0.00  0.00    +0.178 C 
ATOM     14  O   UNL     1      -4.647   0.815   5.687  0.00  0.00    -0.377 OA
ATOM     15  C   UNL     1      -4.338   2.203   5.532  0.00  0.00    +0.178 C 
ATOM     16  C   UNL     1      -3.635   2.417   4.190  0.00  0.00    +0.133 C 
ENDBRANCH  10  11
BRANCH   7  17
ATOM     17  C   UNL     1       0.408   2.411  -0.711  0.00  0.00    +0.417 C 
ATOM     18  F   UNL     1       1.069   1.233  -1.075  0.00  0.00    -0.166 F 
ATOM     19  F   UNL     1       1.345   3.435  -0.533  0.00  0.00    -0.166 F 
ATOM     20  F   UNL     1      -0.491   2.772  -1.720  0.00  0.00    -0.166 F 
ENDBRANCH   7  17
ENDBRANCH   3   5
BRANCH   1  22
ATOM     21  C   UNL     1       1.607   1.395   6.679  0.00  0.00    +0.062 C 
ATOM     22  C   UNL     1       2.183   2.414   5.694  0.00  0.00    +0.259 C 
BRANCH  22  23
ATOM     23  O   UNL     1       3.615   2.209   5.567  0.00  0.00    -0.449 OA
BRANCH  23  24
ATOM     24  C   UNL     1       4.408   2.889   6.419  0.00  0.00    +0.340 C 
ATOM     25  O   UNL     1       3.916   3.633   7.244  0.00  0.00    -0.245 OA
BRANCH  24  26
ATOM     26  C   UNL     1       5.872   2.730   6.349  0.00  0.00    +0.061 A 
ATOM     27  C   UNL     1       6.439   1.870   5.403  0.00  0.00    +0.017 A 
ATOM     28  C   UNL     1       7.795   1.727   5.334  0.00  0.00    +0.026 A 
ATOM     29  C   UNL     1       8.618   2.428   6.212  0.00  0.00    +0.058 A 
ATOM     30  C   UNL     1       8.062   3.282   7.161  0.00  0.00    +0.148 A 
ATOM     31  C   UNL     1       6.696   3.435   7.231  0.00  0.00    +0.049 A 
BRANCH  30  32
ATOM     32  N   UNL     1       8.940   4.026   8.092  0.00  0.00    +0.058 N 
ATOM     33  O   UNL     1       8.452   4.692   8.988  0.00  0.00    -0.126 OA
ATOM     34  O   UNL     1      10.149   3.973   7.963  0.00  0.00    -0.126 OA
ENDBRANCH  30  32
BRANCH  29  35
ATOM     35  N   UNL     1       9.998   2.275   6.141  0.00  0.00    -0.345 N 
ATOM     36  C   UNL     1      10.579   1.288   5.227  0.00  0.00    +0.125 C 
ATOM     37  H   UNL     1      10.576   2.821   6.697  0.00  0.00    +0.146 HD
ENDBRANCH  29  35
ENDBRANCH  24  26
ENDBRANCH  23  24
ENDBRANCH  22  23
ENDBRANCH   1  22
TORSDOF 9
