REMARK  Name = ZINC08755422
REMARK  5 active torsions:
REMARK  status: ('A' for Active; 'I' for Inactive)
REMARK    1  A    between atoms: C_1  and  C_2
REMARK    2  A    between atoms: C_2  and  C_3
REMARK    3  A    between atoms: C_2  and  C_4
REMARK    4  A    between atoms: C_4  and  N_5
REMARK    5  A    between atoms: C_11  and  C_17
REMARK                            x       y       z     vdW  Elec       q    Type
REMARK                         _______ _______ _______ _____ _____    ______ ____
ROOT
ATOM      1  N   UNL     1       1.024   4.469  -3.644  0.00  0.00    -0.292 N 
ATOM      2  C   UNL     1       2.222   5.192  -3.190  0.00  0.00    +0.159 C 
ATOM      3  C   UNL     1       2.329   4.879  -1.715  0.00  0.00    +0.039 C 
ATOM      4  C   UNL     1       1.291   4.071  -1.422  0.00  0.00    +0.058 C 
ATOM      5  C   UNL     1       0.516   3.829  -2.575  0.00  0.00    +0.247 C 
ATOM      6  O   UNL     1      -0.482   3.134  -2.600  0.00  0.00    -0.270 OA
ATOM      7  C   UNL     1       1.151   3.594   0.010  0.00  0.00    +0.142 C 
ATOM      8  N   UNL     1       2.168   4.057   0.969  0.00  0.00    -0.288 N 
ATOM      9  C   UNL     1       3.150   4.865   0.524  0.00  0.00    +0.304 C 
ATOM     10  O   UNL     1       3.994   5.252   1.308  0.00  0.00    -0.252 OA
ATOM     11  N   UNL     1       3.225   5.256  -0.755  0.00  0.00    -0.271 N 
ATOM     12  H   UNL     1       2.132   3.786   1.900  0.00  0.00    +0.151 HD
ATOM     13  H   UNL     1       3.956   5.839  -1.014  0.00  0.00    +0.156 HD
ENDROOT
BRANCH   7  14
ATOM     14  C   UNL     1       1.171   2.087   0.002  0.00  0.00    -0.020 A 
ATOM     15  C   UNL     1       2.377   1.412  -0.013  0.00  0.00    +0.006 A 
ATOM     16  C   UNL     1       2.397   0.030  -0.021  0.00  0.00    +0.003 A 
ATOM     17  C   UNL     1       1.211  -0.679  -0.013  0.00  0.00    +0.038 A 
ATOM     18  C   UNL     1       0.002  -0.004   0.002  0.00  0.00    +0.124 A 
ATOM     19  C   UNL     1      -0.017   1.381   0.010  0.00  0.00    +0.044 A 
ATOM     20  F   UNL     1      -1.158  -0.696   0.009  0.00  0.00    -0.205 F 
ENDBRANCH   7  14
BRANCH   1  21
ATOM     21  C   UNL     1       0.485   4.450  -5.006  0.00  0.00    +0.111 C 
BRANCH  21  23
ATOM     22  C   UNL     1       0.675   1.964  -5.159  0.00  0.00    +0.009 C 
ATOM     23  C   UNL     1       1.109   3.291  -5.785  0.00  0.00    +0.000 C 
ATOM     24  C   UNL     1       0.642   3.345  -7.241  0.00  0.00    +0.009 C 
ENDBRANCH  21  23
ENDBRANCH   1  21
TORSDOF 3
