REMARK  Name = ZINC33937174
REMARK  13 active torsions:
REMARK  status: ('A' for Active; 'I' for Inactive)
REMARK    1  A    between atoms: C_1  and  C_2
REMARK    2  A    between atoms: C_2  and  C_3
REMARK    3  A    between atoms: C_3  and  C_5
REMARK    4  A    between atoms: C_3  and  N_17
REMARK    5  A    between atoms: N_9  and  C_10
REMARK    6  A    between atoms: C_10  and  C_11
REMARK    7  A    between atoms: N_17  and  C_18
REMARK    8  A    between atoms: N_17  and  C_26
REMARK    9  A    between atoms: C_18  and  C_19
REMARK   10  A    between atoms: C_19  and  C_20
REMARK   11  A    between atoms: C_26  and  C_27
REMARK   12  A    between atoms: C_31  and  C_40
REMARK   13  A    between atoms: C_33  and  C_39
REMARK                            x       y       z     vdW  Elec       q    Type
REMARK                         _______ _______ _______ _____ _____    ______ ____
ROOT
ATOM      1  N   UNL     1      -0.304   0.190   1.919  0.00  0.00    +0.389 N 
ATOM      2  H   UNL     1      -0.965  -0.390   2.416  0.00  0.00    -0.080 HD
ENDROOT
BRANCH   1   3
ATOM      3  C   UNL     1      -0.988   0.876   0.815  0.00  0.00    +0.003 C 
BRANCH   3   4
ATOM      4  C   UNL     1      -0.054   1.882   0.194  0.00  0.00    +0.138 A 
ATOM      5  N   UNL     1       1.203   2.080   0.506  0.00  0.00    -0.115 NA
ATOM      6  N   UNL     1       1.656   3.023  -0.246  0.00  0.00    -0.023 NA
ATOM      7  N   UNL     1       0.721   3.431  -1.031  0.00  0.00    -0.044 NA
ATOM      8  N   UNL     1      -0.348   2.748  -0.794  0.00  0.00    -0.228 N 
BRANCH   8   9
ATOM      9  C   UNL     1      -1.640   2.892  -1.470  0.00  0.00    +0.178 C 
BRANCH   9  10
ATOM     10  C   UNL     1      -2.555   3.790  -0.636  0.00  0.00    +0.140 C 
ATOM     11  C   UNL     1      -3.904   4.009  -1.367  0.00  0.00    +0.035 C 
ATOM     12  C   UNL     1      -4.839   4.333  -0.169  0.00  0.00    +0.031 C 
ATOM     13  C   UNL     1      -4.252   3.448   0.952  0.00  0.00    +0.160 C 
ATOM     14  O   UNL     1      -2.897   3.143   0.600  0.00  0.00    -0.375 OA
ENDBRANCH   9  10
ENDBRANCH   8   9
ENDBRANCH   3   4
BRANCH   3  16
ATOM     15  C   UNL     1      -2.438  -1.108   0.361  0.00  0.00    +0.002 C 
ATOM     16  C   UNL     1      -1.408  -0.149  -0.240  0.00  0.00    -0.011 C 
ENDBRANCH   3  16
ENDBRANCH   1   3
BRANCH   1  17
ATOM     17  C   UNL     1       0.261   1.186   2.839  0.00  0.00    -0.073 C 
BRANCH  17  18
ATOM     18  C   UNL     1      -0.782   2.268   3.123  0.00  0.00    +0.016 C 
BRANCH  18  19
ATOM     19  C   UNL     1      -0.208   3.279   4.082  0.00  0.00    -0.049 A 
ATOM     20  C   UNL     1      -0.640   3.310   5.394  0.00  0.00    +0.003 A 
ATOM     21  C   UNL     1      -0.114   4.238   6.274  0.00  0.00    +0.000 A 
ATOM     22  C   UNL     1       0.844   5.134   5.841  0.00  0.00    +0.000 A 
ATOM     23  C   UNL     1       1.277   5.103   4.528  0.00  0.00    +0.000 A 
ATOM     24  C   UNL     1       0.754   4.173   3.650  0.00  0.00    +0.003 A 
ENDBRANCH  18  19
ENDBRANCH  17  18
ENDBRANCH   1  17
BRANCH   1  25
ATOM     25  C   UNL     1       0.775  -0.649   1.381  0.00  0.00    -0.037 C 
BRANCH  25  26
ATOM     26  C   UNL     1       1.384  -1.460   2.496  0.00  0.00    +0.001 A 
ATOM     27  C   UNL     1       0.957  -2.727   2.721  0.00  0.00    +0.017 A 
ATOM     28  C   UNL     1       1.569  -3.489   3.811  0.00  0.00    -0.001 A 
ATOM     29  C   UNL     1       1.170  -4.800   4.091  0.00  0.00    +0.013 A 
ATOM     30  C   UNL     1       1.762  -5.484   5.115  0.00  0.00    -0.050 A 
ATOM     31  C   UNL     1       2.755  -4.888   5.881  0.00  0.00    +0.008 A 
ATOM     32  C   UNL     1       3.163  -3.598   5.624  0.00  0.00    -0.026 A 
ATOM     33  C   UNL     1       2.576  -2.882   4.585  0.00  0.00    +0.052 A 
ATOM     34  N   UNL     1       2.965  -1.589   4.305  0.00  0.00    -0.322 N 
ATOM     35  H   UNL     1       3.659  -1.173   4.840  0.00  0.00    +0.169 HD
ATOM     36  C   UNL     1       2.401  -0.900   3.298  0.00  0.00    +0.251 A 
ATOM     37  O   UNL     1       2.774   0.239   3.076  0.00  0.00    -0.268 OA
ATOM     38  C   UNL     1       4.242  -2.964   6.464  0.00  0.00    +0.046 C 
ATOM     39  C   UNL     1       1.332  -6.896   5.416  0.00  0.00    +0.044 C 
ENDBRANCH  25  26
ENDBRANCH   1  25
TORSDOF 10
