REMARK  Name = ZINC10129529
REMARK  11 active torsions:
REMARK  status: ('A' for Active; 'I' for Inactive)
REMARK    1  A    between atoms: C_1  and  N_2
REMARK    2  A    between atoms: N_2  and  C_3
REMARK    3  A    between atoms: N_2  and  C_4
REMARK    4  A    between atoms: C_7  and  C_10
REMARK    5  A    between atoms: C_10  and  C_12
REMARK    6  A    between atoms: C_10  and  N_73
REMARK    7  A    between atoms: C_12  and  N_13
REMARK    8  A    between atoms: C_14  and  C_16
REMARK    9  A    between atoms: N_18  and  C_19
REMARK   10  A    between atoms: C_19  and  C_20
REMARK   11  A    between atoms: C_20  and  C_21
REMARK                            x       y       z     vdW  Elec       q    Type
REMARK                         _______ _______ _______ _____ _____    ______ ____
ROOT
ATOM      1  C   UNL     1       1.982   7.843  -9.192  0.00  0.00    -0.020 C 
ENDROOT
BRANCH   1  11
ATOM      2  C   UNL     1       3.188   6.012  -8.158  0.00  0.00    -0.073 C 
ATOM      3  C   UNL     1       3.665   4.587  -8.438  0.00  0.00    +0.017 C 
ATOM      4  C   UNL     1       4.661   4.591  -9.570  0.00  0.00    -0.048 A 
ATOM      5  C   UNL     1       5.469   3.478  -9.745  0.00  0.00    +0.004 A 
ATOM      6  C   UNL     1       6.391   3.440 -10.771  0.00  0.00    +0.000 A 
ATOM      7  C   UNL     1       6.510   4.517 -11.629  0.00  0.00    +0.000 A 
ATOM      8  C   UNL     1       5.707   5.626 -11.456  0.00  0.00    +0.002 A 
ATOM      9  C   UNL     1       4.781   5.667 -10.424  0.00  0.00    -0.061 A 
ATOM     10  C   UNL     1       3.933   6.902 -10.270  0.00  0.00    -0.042 C 
ATOM     11  N   UNL     1       2.755   6.604  -9.439  0.00  0.00    +0.388 N 
ATOM     12  H   UNL     1       2.157   5.931  -9.934  0.00  0.00    -0.080 HD
ENDBRANCH   1  11
BRANCH   1  16
ATOM     13  C   UNL     1       0.944   9.618 -12.938  0.00  0.00    +0.029 A 
ATOM     14  C   UNL     1       1.323  10.420 -11.869  0.00  0.00    +0.023 A 
ATOM     15  C   UNL     1       1.658   9.843 -10.660  0.00  0.00    +0.004 A 
ATOM     16  C   UNL     1       1.616   8.468 -10.513  0.00  0.00    -0.059 A 
ATOM     17  C   UNL     1       1.245   7.667 -11.576  0.00  0.00    +0.004 A 
ATOM     18  C   UNL     1       0.903   8.238 -12.787  0.00  0.00    +0.023 A 
BRANCH  13  20
ATOM     19  C   UNL     1       0.531  11.656 -14.287  0.00  0.00    +0.129 C 
ATOM     20  N   UNL     1       0.605  10.198 -14.163  0.00  0.00    -0.336 N 
ATOM     21  C   UNL     1       0.323   9.348 -15.323  0.00  0.00    +0.129 C 
ENDBRANCH  13  20
ENDBRANCH   1  16
BRANCH   1  22
ATOM     22  C   UNL     1       0.707   7.489  -8.424  0.00  0.00    +0.094 C 
BRANCH  22  23
ATOM     23  N   UNL     1      -0.033   8.715  -8.115  0.00  0.00    -0.309 N 
ATOM     24  C   UNL     1      -1.245   8.642  -7.531  0.00  0.00    +0.299 C 
ATOM     25  O   UNL     1      -1.724   7.560  -7.262  0.00  0.00    -0.265 OA
ATOM     26  H   UNL     1       0.351   9.580  -8.330  0.00  0.00    +0.149 HD
BRANCH  24  27
ATOM     27  C   UNL     1      -2.000   9.893  -7.216  0.00  0.00    +0.299 C 
ATOM     28  O   UNL     1      -1.520  10.975  -7.485  0.00  0.00    -0.265 OA
ATOM     29  N   UNL     1      -3.212   9.819  -6.632  0.00  0.00    -0.307 N 
ATOM     30  H   UNL     1      -3.596   8.954  -6.417  0.00  0.00    +0.149 HD
BRANCH  29  31
ATOM     31  C   UNL     1      -3.952  11.046  -6.323  0.00  0.00    +0.109 C 
BRANCH  31  32
ATOM     32  C   UNL     1      -5.288  10.685  -5.670  0.00  0.00    +0.049 C 
BRANCH  32  33
ATOM     33  C   UNL     1      -6.048  11.946  -5.352  0.00  0.00    -0.072 C 
ATOM     34  C   UNL     1      -6.921  12.362  -6.213  0.00  0.00    -0.028 C 
ATOM     35  C   UNL     1      -7.746  13.604  -6.041  0.00  0.00    +0.027 C 
ATOM     36  C   UNL     1      -7.728  14.054  -4.580  0.00  0.00    +0.004 C 
ATOM     37  C   UNL     1      -6.273  14.078  -4.096  0.00  0.00    +0.005 C 
ATOM     38  C   UNL     1      -5.747  12.642  -4.057  0.00  0.00    +0.030 C 
ENDBRANCH  32  33
ENDBRANCH  31  32
ENDBRANCH  29  31
ENDBRANCH  24  27
ENDBRANCH  22  23
ENDBRANCH   1  22
TORSDOF 9
