REMARK  Name = ZINC05188118
REMARK  5 active torsions:
REMARK  status: ('A' for Active; 'I' for Inactive)
REMARK    1  A    between atoms: C_1  and  C_2
REMARK    2  A    between atoms: C_5  and  N_9
REMARK    3  A    between atoms: C_7  and  C_8
REMARK    4  A    between atoms: C_11  and  N_16
REMARK    5  A    between atoms: C_27  and  C_29
REMARK                            x       y       z     vdW  Elec       q    Type
REMARK                         _______ _______ _______ _____ _____    ______ ____
ROOT
ATOM      1  N   UNL     1      -2.457   1.127   0.019  0.00  0.00    -0.270 N 
ATOM      2  C   UNL     1      -3.805   1.699   0.121  0.00  0.00    +0.136 C 
ATOM      3  C   UNL     1      -4.723   0.523   0.524  0.00  0.00    +0.101 C 
ATOM      4  C   UNL     1      -3.936  -0.692  -0.022  0.00  0.00    +0.120 C 
ATOM      5  C   UNL     1      -2.502  -0.213  -0.074  0.00  0.00    +0.222 C 
ATOM      6  O   UNL     1      -1.532  -0.935  -0.182  0.00  0.00    -0.275 OA
ENDROOT
BRANCH   3   7
ATOM      7  N   UNL     1      -4.866   0.444   1.979  0.00  0.00    -0.294 N 
ATOM      8  C   UNL     1      -5.958  -0.134   2.519  0.00  0.00    +0.307 C 
ATOM      9  O   UNL     1      -6.784  -0.662   1.800  0.00  0.00    -0.252 OA
ATOM     10  N   UNL     1      -6.133  -0.128   3.855  0.00  0.00    -0.252 N 
ATOM     11  C   UNL     1      -7.192  -0.747   4.528  0.00  0.00    +0.041 A 
ATOM     12  C   UNL     1      -8.262  -1.479   4.010  0.00  0.00    +0.024 A 
ATOM     13  C   UNL     1      -9.212  -2.012   4.854  0.00  0.00    +0.002 A 
ATOM     14  C   UNL     1      -9.113  -1.826   6.221  0.00  0.00    +0.000 A 
ATOM     15  C   UNL     1      -8.050  -1.110   6.741  0.00  0.00    +0.005 A 
ATOM     16  C   UNL     1      -7.098  -0.569   5.899  0.00  0.00    -0.024 A 
ATOM     17  C   UNL     1      -5.866   0.256   6.194  0.00  0.00    +0.059 C 
ATOM     18  C   UNL     1      -5.246   0.534   4.816  0.00  0.00    +0.084 C 
ATOM     19  C   UNL     1      -3.839  -0.062   4.737  0.00  0.00    +0.029 C 
ATOM     20  H   UNL     1      -4.176   0.809   2.555  0.00  0.00    +0.151 HD
ENDBRANCH   3   7
BRANCH   1  25
ATOM     21  C   UNL     1       2.323   4.182   0.007  0.00  0.00    +0.044 C 
ATOM     22  C   UNL     1       1.053   3.370   0.007  0.00  0.00    -0.047 A 
ATOM     23  C   UNL     1       1.117   1.989   0.028  0.00  0.00    +0.005 A 
ATOM     24  C   UNL     1      -0.045   1.242   0.029  0.00  0.00    +0.024 A 
ATOM     25  C   UNL     1      -1.278   1.880   0.013  0.00  0.00    +0.037 A 
ATOM     26  C   UNL     1      -1.339   3.267  -0.013  0.00  0.00    +0.027 A 
ATOM     27  C   UNL     1      -0.173   4.008  -0.013  0.00  0.00    -0.046 A 
ATOM     28  C   UNL     1      -0.238   5.513  -0.035  0.00  0.00    +0.044 C 
ENDBRANCH   1  25
TORSDOF 2
