REMARK  Name = ZINC40153567
REMARK  9 active torsions:
REMARK  status: ('A' for Active; 'I' for Inactive)
REMARK    1  A    between atoms: C_1  and  C_2
REMARK    2  A    between atoms: C_2  and  C_3
REMARK    3  A    between atoms: C_2  and  O_4
REMARK    4  A    between atoms: O_4  and  C_5
REMARK    5  A    between atoms: C_9  and  C_11
REMARK    6  A    between atoms: C_11  and  N_12
REMARK    7  A    between atoms: N_12  and  C_13
REMARK    8  A    between atoms: N_12  and  C_20
REMARK    9  A    between atoms: C_13  and  C_14
REMARK                            x       y       z     vdW  Elec       q    Type
REMARK                         _______ _______ _______ _____ _____    ______ ____
ROOT
ATOM      1  C   UNL     1      -4.392  -4.007  -0.964  0.00  0.00    -0.042 C 
ENDROOT
BRANCH   1   6
ATOM      2  C   UNL     1      -6.946  -1.256  -1.395  0.00  0.00    +0.121 A 
ATOM      3  C   UNL     1      -6.577  -0.378  -0.386  0.00  0.00    +0.045 A 
ATOM      4  C   UNL     1      -5.505  -0.679   0.431  0.00  0.00    +0.004 A 
ATOM      5  C   UNL     1      -4.799  -1.853   0.243  0.00  0.00    +0.002 A 
ATOM      6  C   UNL     1      -5.164  -2.728  -0.762  0.00  0.00    -0.060 A 
ATOM      7  C   UNL     1      -6.240  -2.435  -1.578  0.00  0.00    +0.047 A 
BRANCH   2   8
ATOM      8  O   UNL     1      -8.001  -0.963  -2.200  0.00  0.00    -0.489 OA
BRANCH   8  10
ATOM      9  C   UNL     1      -9.873  -1.768  -3.500  0.00  0.00    +0.051 C 
ATOM     10  C   UNL     1      -8.399  -1.964  -3.139  0.00  0.00    +0.167 C 
ATOM     11  C   UNL     1      -7.545  -1.845  -4.403  0.00  0.00    +0.051 C 
ENDBRANCH   8  10
ENDBRANCH   2   8
ENDBRANCH   1   6
BRANCH   1  12
ATOM     12  N   UNL     1      -4.903  -5.037  -0.050  0.00  0.00    +0.384 N 
ATOM     13  H   UNL     1      -4.866  -4.694   0.898  0.00  0.00    -0.081 HD
BRANCH  12  14
ATOM     14  C   UNL     1      -4.077  -6.247  -0.165  0.00  0.00    -0.068 C 
ATOM     15  C   UNL     1      -3.457  -6.803   1.118  0.00  0.00    -0.017 C 
ATOM     16  C   UNL     1      -2.574  -6.103   0.084  0.00  0.00    -0.017 C 
ENDBRANCH  12  14
BRANCH  12  17
ATOM     17  C   UNL     1      -6.293  -5.358  -0.401  0.00  0.00    -0.072 C 
BRANCH  17  18
ATOM     18  C   UNL     1      -6.865  -6.337   0.626  0.00  0.00    +0.000 C 
ATOM     19  C   UNL     1      -8.353  -6.655   0.317  0.00  0.00    +0.032 C 
ATOM     20  C   UNL     1      -8.482  -8.076   0.922  0.00  0.00    +0.160 C 
ATOM     21  O   UNL     1      -7.222  -8.713   0.656  0.00  0.00    -0.380 OA
ATOM     22  C   UNL     1      -6.195  -7.722   0.497  0.00  0.00    +0.161 C 
ENDBRANCH  17  18
ENDBRANCH  12  17
ENDBRANCH   1  12
TORSDOF 7
