REMARK  Name = ZINC11865457
REMARK  13 active torsions:
REMARK  status: ('A' for Active; 'I' for Inactive)
REMARK    1  A    between atoms: CD1_1  and  CG1_2
REMARK    2  A    between atoms: CG1_2  and  CB_3
REMARK    3  A    between atoms: CB_3  and  CG2_5
REMARK    4  A    between atoms: CB_3  and  CA_6
REMARK    5  A    between atoms: CA_6  and  C_8
REMARK    6  A    between atoms: CA_6  and  N_10
REMARK    7  A    between atoms: C_11  and  C_13
REMARK    8  A    between atoms: C_13  and  N_14
REMARK    9  A    between atoms: C_15  and  C_17
REMARK   10  A    between atoms: C_17  and  C_18
REMARK   11  A    between atoms: C_19  and  C_39
REMARK   12  A    between atoms: C_31  and  C_32
REMARK   13  A    between atoms: C_35  and  C_38
REMARK                            x       y       z     vdW  Elec       q    Type
REMARK                         _______ _______ _______ _____ _____    ______ ____
ROOT
ATOM      1  C   UNK A   0       1.207  -0.629  -0.013  0.00  0.00    +0.049 A 
ATOM      2  C   UNK A   0       0.002  -0.004   0.002  0.00  0.00    -0.029 A 
ATOM      3  C   UNK A   0      -0.018   1.462   0.010  0.00  0.00    +0.022 A 
ATOM      4  C   UNK A   0      -1.226   2.160   0.031  0.00  0.00    +0.024 A 
ATOM      5  C   UNK A   0      -1.210   3.545   0.034  0.00  0.00    +0.029 A 
ATOM      6  C   UNK A   0       0.012   4.247   0.026  0.00  0.00    +0.139 A 
ATOM      7  C   UNK A   0       1.210   3.547   0.010  0.00  0.00    +0.093 A 
ATOM      8  C   UNK A   0       1.206   2.163   0.002  0.00  0.00    +0.143 A 
ATOM      9  O   UNK A   0       2.370   1.476  -0.013  0.00  0.00    -0.422 OA
ATOM     10  C   UNK A   0       2.393   0.134  -0.020  0.00  0.00    +0.341 A 
ATOM     11  O   UNK A   0       3.467  -0.440  -0.034  0.00  0.00    -0.245 OA
ATOM     12  O   UNK A   0      -0.280   5.564   0.036  0.00  0.00    -0.462 OA
ATOM     13  C   UNK A   0      -1.608   5.768   0.050  0.00  0.00    +0.204 A 
ATOM     14  C   UNK A   0      -2.259   4.583   0.050  0.00  0.00    +0.028 A 
ATOM     15  C   UNK A   0      -1.280  -0.795   0.011  0.00  0.00    +0.045 C 
ENDROOT
BRANCH  14  16
ATOM     16  C   UNK A   0      -3.726   4.370   0.063  0.00  0.00    -0.014 A 
ATOM     17  C   UNK A   0      -4.317   3.511  -0.863  0.00  0.00    +0.009 A 
ATOM     18  C   UNK A   0      -5.683   3.313  -0.843  0.00  0.00    +0.004 A 
ATOM     19  C   UNK A   0      -6.466   3.972   0.088  0.00  0.00    -0.050 A 
ATOM     20  C   UNK A   0      -5.886   4.829   1.006  0.00  0.00    +0.004 A 
ATOM     21  C   UNK A   0      -4.521   5.031   0.999  0.00  0.00    +0.009 A 
ATOM     22  C   UNK A   0      -7.957   3.755   0.102  0.00  0.00    +0.044 C 
ENDBRANCH  14  16
BRANCH   1  23
ATOM     23  C   UNK A   0       1.277  -2.135  -0.022  0.00  0.00    +0.138 C 
BRANCH  23  25
ATOM     24  N   UNK A   0       1.346  -3.950  -1.700  0.00  0.00    -0.306 N 
ATOM     25  C   UNK A   0       1.287  -2.628  -1.446  0.00  0.00    +0.218 C 
ATOM     26  O   UNK A   0       1.242  -1.836  -2.363  0.00  0.00    -0.275 OA
ATOM     27  H   UNK A   0       1.382  -4.584  -0.967  0.00  0.00    +0.149 HD
BRANCH  24  28
ATOM     28  C   UNK A   0       1.356  -4.430  -3.084  0.00  0.00    +0.200 C 
BRANCH  28  30
ATOM     29  N   ILE A   1       1.446  -6.602  -4.265  0.00  0.00    -0.301 N 
ATOM     30  C   UNK A   0       1.426  -5.936  -3.094  0.00  0.00    +0.231 C 
ATOM     31  O   UNK A   0       1.464  -6.547  -2.047  0.00  0.00    -0.274 OA
ATOM     32  H   ILE A   1       1.416  -6.113  -5.102  0.00  0.00    +0.150 HD
BRANCH  29  33
ATOM     33  CA  ILE A   1       1.514  -8.066  -4.274  0.00  0.00    +0.189 C 
BRANCH  33  34
ATOM     34  C   ILE A   1       0.125  -8.634  -4.140  0.00  0.00    +0.376 C 
ATOM     35  O   ILE A   1      -0.824  -7.893  -4.047  0.00  0.00    -0.244 OA
ATOM     36  OXT ILE A   1      -0.057  -9.964  -4.125  0.00  0.00    -0.244 OA
ENDBRANCH  33  34
BRANCH  33  37
ATOM     37  CB  ILE A   1       2.135  -8.539  -5.590  0.00  0.00    +0.017 C 
ATOM     38  CG2 ILE A   1       1.274  -8.061  -6.761  0.00  0.00    +0.010 C 
BRANCH  37  40
ATOM     39  CD1 ILE A   1       2.938 -10.536  -6.858  0.00  0.00    +0.004 C 
ATOM     40  CG1 ILE A   1       2.206 -10.067  -5.599  0.00  0.00    +0.002 C 
ENDBRANCH  37  40
ENDBRANCH  33  37
ENDBRANCH  29  33
ENDBRANCH  28  30
ENDBRANCH  24  28
ENDBRANCH  23  25
ENDBRANCH   1  23
TORSDOF 9
