REMARK  Name = ZINC39670450
REMARK  6 active torsions:
REMARK  status: ('A' for Active; 'I' for Inactive)
REMARK    1  A    between atoms: C_1  and  C_2
REMARK    2  A    between atoms: C_7  and  C_11
REMARK    3  A    between atoms: C_11  and  N_12
REMARK    4  A    between atoms: C_13  and  C_15
REMARK    5  A    between atoms: C_26  and  C_28
REMARK    6  A    between atoms: C_30  and  C_35
REMARK                            x       y       z     vdW  Elec       q    Type
REMARK                         _______ _______ _______ _____ _____    ______ ____
ROOT
ATOM      1  C   UNL     1       2.742  -7.896   2.788  0.00  0.00    +0.100 C 
ATOM      2  C   UNL     1       3.611  -8.138   1.533  0.00  0.00    +0.121 C 
ATOM      3  N   UNL     1       4.464  -9.297   1.887  0.00  0.00    -0.296 N 
ATOM      4  C   UNL     1       3.566 -10.197   2.649  0.00  0.00    +0.115 C 
ATOM      5  C   UNL     1       2.715  -9.250   3.517  0.00  0.00    -0.004 C 
ATOM      6  C   UNL     1       1.283  -9.768   3.615  0.00  0.00    -0.010 C 
ATOM      7  C   UNL     1       1.274 -11.086   4.394  0.00  0.00    -0.082 C 
ATOM      8  N   UNL     1       1.830 -10.867   5.735  0.00  0.00    +0.379 N 
ATOM      9  C   UNL     1       3.236 -10.458   5.634  0.00  0.00    -0.082 C 
ATOM     10  C   UNL     1       3.327  -9.114   4.907  0.00  0.00    -0.010 C 
ATOM     11  C   UNL     1       5.764  -9.489   1.585  0.00  0.00    +0.247 C 
ATOM     12  O   UNL     1       6.404  -8.597   1.062  0.00  0.00    -0.270 OA
ATOM     13  H   UNL     1       1.303 -10.144   6.202  0.00  0.00    -0.086 HD
ATOM     14  H   UNL     1       1.767 -11.722   6.267  0.00  0.00    -0.086 HD
ENDROOT
BRANCH  11  15
ATOM     15  C   UNL     1       6.410 -10.783   1.889  0.00  0.00    +0.040 A 
ATOM     16  C   UNL     1       7.800 -10.863   1.998  0.00  0.00    +0.025 A 
ATOM     17  C   UNL     1       8.398 -12.073   2.283  0.00  0.00    +0.058 A 
ATOM     18  C   UNL     1       7.625 -13.206   2.461  0.00  0.00    +0.050 A 
ATOM     19  C   UNL     1       6.246 -13.135   2.354  0.00  0.00    +0.125 A 
ATOM     20  C   UNL     1       5.634 -11.927   2.075  0.00  0.00    +0.051 A 
ATOM     21  F   UNL     1       5.497 -14.246   2.528  0.00  0.00    -0.205 F 
BRANCH  17  22
ATOM     22  C   UNL     1       9.898 -12.160   2.400  0.00  0.00    +0.418 C 
ATOM     23  F   UNL     1      10.277 -11.926   3.726  0.00  0.00    -0.166 F 
ATOM     24  F   UNL     1      10.323 -13.436   2.012  0.00  0.00    -0.166 F 
ATOM     25  F   UNL     1      10.487 -11.200   1.570  0.00  0.00    -0.166 F 
ENDBRANCH  17  22
ENDBRANCH  11  15
BRANCH   1  27
ATOM     26  N   UNL     1       0.629  -6.675   3.191  0.00  0.00    -0.309 N 
ATOM     27  C   UNL     1       1.348  -7.486   2.389  0.00  0.00    +0.219 C 
ATOM     28  O   UNL     1       0.873  -7.885   1.347  0.00  0.00    -0.275 OA
ATOM     29  H   UNL     1       1.009  -6.356   4.025  0.00  0.00    +0.149 HD
BRANCH  26  30
ATOM     30  C   UNL     1      -0.727  -6.277   2.804  0.00  0.00    +0.159 C 
BRANCH  30  37
ATOM     31  C   UNL     1      -4.140  -3.034   8.501  0.00  0.00    +0.045 C 
ATOM     32  C   UNL     1      -3.305  -3.227   7.262  0.00  0.00    -0.034 A 
ATOM     33  C   UNL     1      -2.682  -2.122   6.659  0.00  0.00    +0.008 A 
ATOM     34  C   UNL     1      -1.929  -2.300   5.540  0.00  0.00    +0.045 A 
ATOM     35  C   UNL     1      -1.785  -3.595   5.004  0.00  0.00    +0.115 A 
ATOM     36  N   UNL     1      -1.129  -4.057   3.949  0.00  0.00    -0.342 N 
ATOM     37  C   UNL     1      -1.308  -5.377   3.864  0.00  0.00    +0.051 A 
ATOM     38  C   UNL     1      -2.097  -5.772   4.887  0.00  0.00    +0.115 A 
ATOM     39  N   UNL     1      -2.405  -4.654   5.614  0.00  0.00    -0.308 N 
ATOM     40  C   UNL     1      -3.154  -4.462   6.739  0.00  0.00    +0.096 A 
ATOM     41  H   UNL     1      -0.602  -3.520   3.336  0.00  0.00    +0.167 HD
ENDBRANCH  30  37
ENDBRANCH  26  30
ENDBRANCH   1  27
TORSDOF 5
