REMARK  Name = ZINC20911577
REMARK  13 active torsions:
REMARK  status: ('A' for Active; 'I' for Inactive)
REMARK    1  A    between atoms: C_1  and  C_2
REMARK    2  A    between atoms: C_5  and  N_9
REMARK    3  A    between atoms: C_10  and  C_12
REMARK    4  A    between atoms: C_12  and  S_13
REMARK    5  A    between atoms: S_13  and  C_14
REMARK    6  A    between atoms: N_18  and  N_19
REMARK    7  A    between atoms: N_20  and  N_21
REMARK    8  A    between atoms: C_22  and  C_23
REMARK    9  A    between atoms: C_24  and  C_32
REMARK   10  A    between atoms: N_26  and  C_29
REMARK   11  A    between atoms: C_27  and  C_28
REMARK   12  A    between atoms: C_29  and  C_30
REMARK   13  A    between atoms: C_29  and  C_31
REMARK                            x       y       z     vdW  Elec       q    Type
REMARK                         _______ _______ _______ _____ _____    ______ ____
ROOT
ATOM      1  C   UNL     1      -7.728   3.696  -0.362  0.00  0.00    +0.210 A 
ATOM      2  N   UNL     1      -7.753   5.007  -0.349  0.00  0.00    -0.119 NA
ATOM      3  N   UNL     1      -9.089   5.415  -0.455  0.00  0.00    -0.109 NA
ATOM      4  C   UNL     1      -9.837   4.341  -0.520  0.00  0.00    +0.254 A 
ATOM      5  N   UNL     1      -9.015   3.250  -0.464  0.00  0.00    -0.211 N 
ATOM      6  N   UNL     1     -11.220   4.315  -0.627  0.00  0.00    -0.204 N 
ATOM      7  H   UNL     1     -11.750   3.352  -0.674  0.00  0.00    +0.177 HD
ENDROOT
BRANCH   5   8
ATOM      8  N   UNL     1      -9.411   1.943  -0.503  0.00  0.00    -0.294 N 
ATOM      9  H   UNL     1     -10.479   1.694  -0.588  0.00  0.00    +0.163 HD
ATOM     10  H   UNL     1      -8.662   1.139  -0.451  0.00  0.00    +0.163 HD
ENDBRANCH   5   8
BRANCH   6  11
ATOM     11  N   UNL     1     -11.941   5.515  -0.675  0.00  0.00    -0.187 NA
ATOM     12  C   UNL     1     -13.235   5.491  -0.774  0.00  0.00    +0.141 C 
BRANCH  12  13
ATOM     13  C   UNL     1     -13.995   6.755  -0.825  0.00  0.00    +0.038 A 
ATOM     14  C   UNL     1     -13.455   8.059  -0.775  0.00  0.00    +0.069 A 
ATOM     15  N   UNL     1     -14.443   8.911  -0.846  0.00  0.00    -0.175 NA
ATOM     16  N   UNL     1     -15.645   8.201  -0.943  0.00  0.00    -0.265 N 
ATOM     17  C   UNL     1     -15.363   6.883  -0.935  0.00  0.00    +0.045 A 
ATOM     18  C   UNL     1     -16.359   5.756  -1.025  0.00  0.00    +0.066 C 
ATOM     19  C   UNL     1     -11.993   8.407  -0.660  0.00  0.00    +0.068 C 
BRANCH  16  20
ATOM     20  C   UNL     1     -16.983   8.791  -1.042  0.00  0.00    +0.101 C 
ATOM     21  C   UNL     1     -17.255   9.649   0.195  0.00  0.00    +0.032 C 
ATOM     22  C   UNL     1     -17.064   9.664  -2.296  0.00  0.00    +0.032 C 
ENDBRANCH  16  20
ENDBRANCH  12  13
ENDBRANCH   6  11
BRANCH   1  23
ATOM     23  S   UNL     1      -6.287   2.687  -0.257  0.00  0.00    -0.075 S 
BRANCH  23  24
ATOM     24  C   UNL     1      -4.924   3.878  -0.143  0.00  0.00    +0.173 C 
BRANCH  24  26
ATOM     25  N   UNL     1      -2.458   3.821   0.047  0.00  0.00    -0.285 N 
ATOM     26  C   UNL     1      -3.616   3.137  -0.047  0.00  0.00    +0.227 C 
ATOM     27  O   UNL     1      -3.604   1.924  -0.054  0.00  0.00    -0.275 OA
ATOM     28  H   UNL     1      -2.474   4.917   0.141  0.00  0.00    +0.155 HD
BRANCH  25  33
ATOM     29  C   UNL     1       2.495   1.055  -0.038  0.00  0.00    +0.047 C 
ATOM     30  C   UNL     1       1.179   1.789  -0.016  0.00  0.00    -0.015 A 
ATOM     31  C   UNL     1       1.044   2.939   0.740  0.00  0.00    +0.008 A 
ATOM     32  C   UNL     1      -0.162   3.611   0.767  0.00  0.00    +0.024 A 
ATOM     33  C   UNL     1      -1.238   3.138   0.025  0.00  0.00    +0.036 A 
ATOM     34  C   UNL     1      -1.101   1.983  -0.732  0.00  0.00    +0.062 A 
ATOM     35  C   UNL     1       0.108   1.310  -0.751  0.00  0.00    +0.128 A 
ATOM     36  F   UNL     1       0.243   0.186  -1.488  0.00  0.00    -0.205 F 
ENDBRANCH  25  33
ENDBRANCH  24  26
ENDBRANCH  23  24
ENDBRANCH   1  23
TORSDOF 8
