REMARK  Name = ZINC08830452
REMARK  5 active torsions:
REMARK  status: ('A' for Active; 'I' for Inactive)
REMARK    1  A    between atoms: C_4  and  C_7
REMARK    2  A    between atoms: C_7  and  C_9
REMARK    3  A    between atoms: C_12  and  C_15
REMARK    4  A    between atoms: N_17  and  C_18
REMARK    5  A    between atoms: C_18  and  N_20
REMARK                            x       y       z     vdW  Elec       q    Type
REMARK                         _______ _______ _______ _____ _____    ______ ____
ROOT
ATOM      1  C   UNL     1       4.000  -6.412   0.310  0.00  0.00    +0.250 C 
ATOM      2  O   UNL     1       2.988  -7.085   0.309  0.00  0.00    -0.270 OA
ATOM      3  N   UNL     1       5.206  -7.008   0.390  0.00  0.00    -0.262 N 
ATOM      4  H   UNL     1       6.014  -6.471   0.391  0.00  0.00    +0.157 HD
ENDROOT
BRANCH   1   8
ATOM      5  C   UNL     1       3.735  -2.174   0.064  0.00  0.00    +0.022 A 
ATOM      6  C   UNL     1       2.572  -2.948   0.063  0.00  0.00    +0.012 A 
ATOM      7  C   UNL     1       2.658  -4.321   0.142  0.00  0.00    +0.014 A 
ATOM      8  C   UNL     1       3.908  -4.938   0.224  0.00  0.00    +0.037 A 
ATOM      9  C   UNL     1       5.070  -4.165   0.226  0.00  0.00    +0.014 A 
ATOM     10  C   UNL     1       4.984  -2.792   0.140  0.00  0.00    +0.012 A 
BRANCH   5  11
ATOM     11  C   UNL     1       3.642  -0.700  -0.021  0.00  0.00    +0.193 C 
ATOM     12  O   UNL     1       4.566  -0.059  -0.481  0.00  0.00    -0.287 OA
BRANCH  11  16
ATOM     13  C   UNL     1       0.147   1.291   1.341  0.00  0.00    +0.000 A 
ATOM     14  C   UNL     1       1.015   1.936   0.478  0.00  0.00    +0.001 A 
ATOM     15  C   UNL     1       2.152   1.296   0.032  0.00  0.00    +0.012 A 
ATOM     16  C   UNL     1       2.427  -0.007   0.453  0.00  0.00    +0.022 A 
ATOM     17  C   UNL     1       1.546  -0.653   1.324  0.00  0.00    +0.012 A 
ATOM     18  C   UNL     1       0.413  -0.001   1.762  0.00  0.00    +0.001 A 
ENDBRANCH  11  16
ENDBRANCH   5  11
ENDBRANCH   1   8
BRANCH   3  19
ATOM     19  C   UNL     1       5.290  -8.351   0.468  0.00  0.00    +0.163 C 
ATOM     20  S   UNL     1       3.865  -9.300   0.466  0.00  0.00    -0.016 S 
BRANCH  19  21
ATOM     21  N   UNL     1       6.485  -8.942   0.546  0.00  0.00    -0.169 NA
ATOM     22  C   UNL     1       6.902  -9.734  -0.439  0.00  0.00    +0.162 A 
ATOM     23  N   UNL     1       6.228 -10.121  -1.555  0.00  0.00    -0.339 N 
ATOM     24  C   UNL     1       6.838 -10.951  -2.461  0.00  0.00    +0.028 A 
ATOM     25  C   UNL     1       8.089 -11.315  -2.148  0.00  0.00    +0.012 A 
ATOM     26  S   UNL     1       8.394 -10.494  -0.609  0.00  0.00    -0.057 S 
ATOM     27  C   UNL     1       9.001 -12.204  -2.930  0.00  0.00    +0.044 C 
ATOM     28  C   UNL     1       8.166 -12.950  -3.982  0.00  0.00    +0.006 C 
ATOM     29  C   UNL     1       7.263 -11.941  -4.697  0.00  0.00    +0.006 C 
ATOM     30  C   UNL     1       6.176 -11.444  -3.741  0.00  0.00    +0.054 C 
ATOM     31  H   UNL     1       5.321  -9.813  -1.709  0.00  0.00    +0.167 HD
ENDBRANCH  19  21
ENDBRANCH   3  19
TORSDOF 5
