REMARK  Name = ZINC39197371
REMARK  8 active torsions:
REMARK  status: ('A' for Active; 'I' for Inactive)
REMARK    1  A    between atoms: C_1  and  C_2
REMARK    2  A    between atoms: C_2  and  C_3
REMARK    3  A    between atoms: C_8  and  N_9
REMARK    4  A    between atoms: C_10  and  C_31
REMARK    5  A    between atoms: C_12  and  C_14
REMARK    6  A    between atoms: N_16  and  C_17
REMARK    7  A    between atoms: C_17  and  C_19
REMARK    8  A    between atoms: C_17  and  C_20
REMARK                            x       y       z     vdW  Elec       q    Type
REMARK                         _______ _______ _______ _____ _____    ______ ____
ROOT
ATOM      1  N   UNL     1       3.261   1.496  -0.547  0.00  0.00    -0.231 N 
ATOM      2  C   UNL     1       4.605   1.737  -0.495  0.00  0.00    +0.075 A 
ATOM      3  C   UNL     1       4.927   1.899   0.824  0.00  0.00    +0.063 A 
ATOM      4  C   UNL     1       3.713   1.741   1.529  0.00  0.00    +0.148 A 
ATOM      5  N   UNL     1       2.768   1.510   0.639  0.00  0.00    -0.161 NA
ENDROOT
BRANCH   2   6
ATOM      6  C   UNL     1       5.533   1.808  -1.645  0.00  0.00    +0.004 A 
ATOM      7  C   UNL     1       5.046   2.091  -2.921  0.00  0.00    +0.014 A 
ATOM      8  C   UNL     1       5.913   2.155  -3.991  0.00  0.00    +0.050 A 
ATOM      9  C   UNL     1       7.272   1.940  -3.804  0.00  0.00    +0.162 A 
ATOM     10  C   UNL     1       7.765   1.661  -2.533  0.00  0.00    +0.163 A 
ATOM     11  C   UNL     1       6.899   1.599  -1.454  0.00  0.00    +0.059 A 
ATOM     12  O   UNL     1       9.095   1.455  -2.332  0.00  0.00    -0.485 OA
ATOM     13  C   UNL     1       9.884   1.162  -3.490  0.00  0.00    +0.270 C 
ATOM     14  C   UNL     1       9.505   2.158  -4.594  0.00  0.00    +0.270 C 
ATOM     15  O   UNL     1       8.110   2.005  -4.875  0.00  0.00    -0.485 OA
ENDBRANCH   2   6
BRANCH   1  21
ATOM     16  C   UNL     1       1.458   2.099  -2.038  0.00  0.00    -0.022 A 
ATOM     17  C   UNL     1       0.741   1.881  -3.198  0.00  0.00    +0.006 A 
ATOM     18  C   UNL     1       1.085   0.838  -4.039  0.00  0.00    +0.000 A 
ATOM     19  C   UNL     1       2.147   0.012  -3.722  0.00  0.00    +0.002 A 
ATOM     20  C   UNL     1       2.868   0.225  -2.563  0.00  0.00    +0.028 A 
ATOM     21  C   UNL     1       2.529   1.274  -1.719  0.00  0.00    +0.069 A 
BRANCH  16  23
ATOM     22  C   UNL     1       1.999   4.430  -1.388  0.00  0.00    +0.009 C 
ATOM     23  C   UNL     1       1.082   3.235  -1.121  0.00  0.00    +0.034 C 
ENDBRANCH  16  23
ENDBRANCH   1  21
BRANCH   4  24
ATOM     24  C   UNL     1       3.535   1.827   2.993  0.00  0.00    +0.265 C 
ATOM     25  O   UNL     1       4.491   2.052   3.710  0.00  0.00    -0.268 OA
ATOM     26  N   UNL     1       2.313   1.655   3.534  0.00  0.00    -0.299 N 
ATOM     27  H   UNL     1       1.550   1.475   2.963  0.00  0.00    +0.150 HD
BRANCH  26  28
ATOM     28  C   UNL     1       2.136   1.739   4.986  0.00  0.00    +0.157 C 
ATOM     29  C   UNL     1       2.446   0.380   5.617  0.00  0.00    +0.038 C 
BRANCH  28  30
ATOM     30  C   UNL     1       0.713   2.125   5.297  0.00  0.00    +0.240 C 
ATOM     31  O   UNL     1      -0.164   1.910   4.488  0.00  0.00    -0.273 OA
ATOM     32  N   UNL     1       0.415   2.708   6.475  0.00  0.00    -0.269 N 
ATOM     33  C   UNL     1       1.399   3.129   7.477  0.00  0.00    +0.118 C 
ATOM     34  C   UNL     1       0.573   3.731   8.625  0.00  0.00    +0.056 C 
ATOM     35  C   UNL     1      -0.863   3.600   8.170  0.00  0.00    -0.024 A 
ATOM     36  C   UNL     1      -0.877   3.007   6.918  0.00  0.00    +0.040 A 
ATOM     37  C   UNL     1      -2.102   2.786   6.286  0.00  0.00    +0.024 A 
ATOM     38  C   UNL     1      -3.278   3.159   6.901  0.00  0.00    +0.002 A 
ATOM     39  C   UNL     1      -3.254   3.754   8.148  0.00  0.00    +0.000 A 
ATOM     40  C   UNL     1      -2.045   3.968   8.784  0.00  0.00    +0.005 A 
ENDBRANCH  28  30
ENDBRANCH  26  28
ENDBRANCH   4  24
TORSDOF 6
