REMARK  Name = ZINC09581848
REMARK  11 active torsions:
REMARK  status: ('A' for Active; 'I' for Inactive)
REMARK    1  A    between atoms: C_1  and  O_2
REMARK    2  A    between atoms: O_2  and  C_3
REMARK    3  A    between atoms: C_3  and  C_5
REMARK    4  A    between atoms: C_5  and  C_6
REMARK    5  A    between atoms: C_6  and  N_7
REMARK    6  A    between atoms: C_11  and  S_32
REMARK    7  A    between atoms: N_16  and  C_17
REMARK    8  A    between atoms: C_17  and  C_19
REMARK    9  A    between atoms: C_24  and  O_25
REMARK   10  A    between atoms: O_25  and  C_26
REMARK   11  A    between atoms: S_32  and  N_35
REMARK                            x       y       z     vdW  Elec       q    Type
REMARK                         _______ _______ _______ _____ _____    ______ ____
ROOT
ATOM      1  N   UNL     1      -0.070   0.046   0.898  0.00  0.00    -0.321 N 
ATOM      2  C   UNL     1       1.080  -0.599   1.313  0.00  0.00    +0.058 A 
ATOM      3  C   UNL     1       1.281  -1.972   1.524  0.00  0.00    +0.029 A 
ATOM      4  C   UNL     1       2.501  -2.448   1.941  0.00  0.00    +0.030 A 
ATOM      5  C   UNL     1       3.567  -1.593   2.165  0.00  0.00    +0.106 A 
ATOM      6  C   UNL     1       3.397  -0.234   1.965  0.00  0.00    +0.045 A 
ATOM      7  C   UNL     1       2.177   0.243   1.548  0.00  0.00    +0.041 A 
ATOM      8  S   UNL     1       1.538   1.857   1.179  0.00  0.00    -0.052 S 
ATOM      9  C   UNL     1      -0.078   1.398   0.747  0.00  0.00    +0.167 A 
ATOM     10  N   UNL     1      -1.080   2.178   0.358  0.00  0.00    -0.152 NA
ENDROOT
BRANCH   5  11
ATOM     11  S   UNL     1       5.122  -2.227   2.698  0.00  0.00    +0.056 S 
ATOM     12  O   UNL     1       5.170  -3.586   2.284  0.00  0.00    -0.153 OA
ATOM     13  O   UNL     1       6.104  -1.277   2.308  0.00  0.00    -0.153 OA
BRANCH  11  14
ATOM     14  N   UNL     1       5.104  -2.238   4.354  0.00  0.00    -0.204 NA
ATOM     15  H   UNL     1       4.321  -1.926   4.833  0.00  0.00    +0.144 HD
ATOM     16  H   UNL     1       5.878  -2.556   4.845  0.00  0.00    +0.144 HD
ENDBRANCH  11  14
ENDBRANCH   5  11
BRANCH  10  17
ATOM     17  C   UNL     1      -0.901   3.501   0.267  0.00  0.00    +0.273 C 
ATOM     18  O   UNL     1       0.181   3.990   0.541  0.00  0.00    -0.268 OA
BRANCH  17  19
ATOM     19  C   UNL     1      -2.016   4.369  -0.168  0.00  0.00    +0.081 A 
ATOM     20  C   UNL     1      -3.257   3.813  -0.483  0.00  0.00    +0.017 A 
ATOM     21  C   UNL     1      -4.293   4.628  -0.886  0.00  0.00    +0.001 A 
ATOM     22  C   UNL     1      -4.109   5.997  -0.981  0.00  0.00    +0.004 A 
ATOM     23  C   UNL     1      -2.887   6.560  -0.672  0.00  0.00    +0.047 A 
ATOM     24  C   UNL     1      -1.835   5.755  -0.259  0.00  0.00    +0.141 A 
BRANCH  24  25
ATOM     25  O   UNL     1      -0.635   6.307   0.051  0.00  0.00    -0.455 OA
BRANCH  25  26
ATOM     26  C   UNL     1      -0.510   7.657  -0.047  0.00  0.00    +0.128 A 
ATOM     27  C   UNL     1      -0.092   8.231  -1.239  0.00  0.00    +0.046 A 
ATOM     28  C   UNL     1       0.030   9.604  -1.337  0.00  0.00    +0.004 A 
ATOM     29  C   UNL     1      -0.254  10.404  -0.245  0.00  0.00    +0.000 A 
ATOM     30  C   UNL     1      -0.665   9.834   0.945  0.00  0.00    +0.004 A 
ATOM     31  C   UNL     1      -0.793   8.462   1.047  0.00  0.00    +0.046 A 
ENDBRANCH  25  26
ENDBRANCH  24  25
ENDBRANCH  17  19
ENDBRANCH  10  17
BRANCH   1  32
ATOM     32  C   UNL     1      -1.283  -0.728   0.621  0.00  0.00    +0.135 C 
BRANCH  32  33
ATOM     33  C   UNL     1      -1.295  -1.149  -0.850  0.00  0.00    +0.142 C 
BRANCH  33  34
ATOM     34  C   UNL     1      -2.542  -1.944  -1.135  0.00  0.00    +0.309 C 
ATOM     35  O   UNL     1      -3.341  -2.153  -0.252  0.00  0.00    -0.251 OA
BRANCH  34  37
ATOM     36  C   UNL     1      -3.989  -3.179  -2.572  0.00  0.00    +0.280 C 
ATOM     37  O   UNL     1      -2.767  -2.421  -2.370  0.00  0.00    -0.468 OA
ENDBRANCH  34  37
ENDBRANCH  33  34
ENDBRANCH  32  33
ENDBRANCH   1  32
TORSDOF 10
