REMARK  Name = ZINC13499707
REMARK  6 active torsions:
REMARK  status: ('A' for Active; 'I' for Inactive)
REMARK    1  A    between atoms: C_1  and  C_2
REMARK    2  A    between atoms: C_10  and  C_14
REMARK    3  A    between atoms: C_17  and  S_20
REMARK    4  A    between atoms: S_20  and  C_21
REMARK    5  A    between atoms: C_21  and  C_22
REMARK    6  A    between atoms: N_24  and  C_25
REMARK                            x       y       z     vdW  Elec       q    Type
REMARK                         _______ _______ _______ _____ _____    ______ ____
ROOT
ATOM      1  C   UNL     1       4.303  -7.596   0.455  0.00  0.00    +0.086 C 
ATOM      2  C   UNL     1       5.805  -7.698   0.511  0.00  0.00    +0.115 A 
ATOM      3  N   UNL     1       6.361  -8.873   0.610  0.00  0.00    -0.226 NA
ATOM      4  C   UNL     1       7.680  -9.034   0.664  0.00  0.00    +0.114 A 
ATOM      5  C   UNL     1       8.571  -7.952   0.617  0.00  0.00    +0.056 A 
ATOM      6  C   UNL     1       9.953  -8.259   0.683  0.00  0.00    -0.024 A 
ATOM      7  C   UNL     1      10.302  -9.563   0.784  0.00  0.00    -0.004 A 
ATOM      8  S   UNL     1       8.760 -10.438   0.796  0.00  0.00    -0.073 S 
ATOM      9  C   UNL     1      11.684 -10.132   0.868  0.00  0.00    +0.046 C 
ATOM     10  C   UNL     1      12.682  -9.042   0.452  0.00  0.00    -0.009 C 
ATOM     11  C   UNL     1      12.331  -7.748   1.191  0.00  0.00    +0.008 C 
ATOM     12  C   UNL     1      11.025  -7.172   0.643  0.00  0.00    +0.037 C 
ATOM     13  C   UNL     1      14.102  -9.479   0.820  0.00  0.00    +0.008 C 
ATOM     14  C   UNL     1       7.930  -6.623   0.505  0.00  0.00    +0.173 A 
ATOM     15  N   UNL     1       6.554  -6.559   0.456  0.00  0.00    -0.258 N 
ATOM     16  C   UNL     1       6.256  -5.229   0.354  0.00  0.00    +0.198 A 
ATOM     17  N   UNL     1       7.395  -4.575   0.340  0.00  0.00    -0.122 NA
ATOM     18  N   UNL     1       8.383  -5.396   0.434  0.00  0.00    -0.128 NA
ENDROOT
BRANCH  16  19
ATOM     19  S   UNL     1       4.645  -4.523   0.254  0.00  0.00    -0.076 S 
BRANCH  19  20
ATOM     20  C   UNL     1       4.953  -2.739   0.140  0.00  0.00    +0.173 C 
BRANCH  20  21
ATOM     21  C   UNL     1       3.639  -2.007   0.048  0.00  0.00    +0.227 C 
ATOM     22  O   UNL     1       2.597  -2.628   0.057  0.00  0.00    -0.275 OA
ATOM     23  N   UNL     1       3.621  -0.663  -0.046  0.00  0.00    -0.285 N 
ATOM     24  H   UNL     1       4.453  -0.172  -0.131  0.00  0.00    +0.155 HD
BRANCH  23  25
ATOM     25  C   UNL     1       2.401   0.025  -0.021  0.00  0.00    +0.037 A 
ATOM     26  C   UNL     1       1.346  -0.460   0.740  0.00  0.00    +0.027 A 
ATOM     27  C   UNL     1       0.142   0.217   0.764  0.00  0.00    +0.051 A 
ATOM     28  C   UNL     1      -0.016   1.384   0.030  0.00  0.00    +0.162 A 
ATOM     29  C   UNL     1       1.040   1.873  -0.730  0.00  0.00    +0.164 A 
ATOM     30  C   UNL     1       2.247   1.192  -0.756  0.00  0.00    +0.072 A 
ATOM     31  O   UNL     1       0.906   3.021  -1.451  0.00  0.00    -0.485 OA
ATOM     32  C   UNL     1      -0.429   3.473  -1.699  0.00  0.00    +0.270 C 
ATOM     33  C   UNL     1      -1.216   3.395  -0.384  0.00  0.00    +0.270 C 
ATOM     34  O   UNL     1      -1.213   2.033   0.059  0.00  0.00    -0.485 OA
ENDBRANCH  23  25
ENDBRANCH  20  21
ENDBRANCH  19  20
ENDBRANCH  16  19
TORSDOF 4
