REMARK  Name = ZINC04696102
REMARK  4 active torsions:
REMARK  status: ('A' for Active; 'I' for Inactive)
REMARK    1  A    between atoms: C_1  and  C_2
REMARK    2  A    between atoms: C_3  and  C_12
REMARK    3  A    between atoms: N_22  and  C_23
REMARK    4  A    between atoms: C_23  and  C_24
REMARK                            x       y       z     vdW  Elec       q    Type
REMARK                         _______ _______ _______ _____ _____    ______ ____
ROOT
ATOM      1  C   UNL     1       3.028   5.065  -0.001  0.00  0.00    +0.140 C 
ATOM      2  C   UNL     1       3.587   5.419   1.355  0.00  0.00    -0.010 A 
ATOM      3  C   UNL     1       3.043   5.460   2.618  0.00  0.00    +0.006 A 
ATOM      4  C   UNL     1       3.827   5.833   3.696  0.00  0.00    +0.000 A 
ATOM      5  C   UNL     1       5.157   6.165   3.508  0.00  0.00    +0.001 A 
ATOM      6  C   UNL     1       5.713   6.127   2.246  0.00  0.00    +0.013 A 
ATOM      7  C   UNL     1       4.929   5.752   1.153  0.00  0.00    +0.042 A 
ATOM      8  C   UNL     1       5.228   5.618  -0.285  0.00  0.00    +0.248 C 
ATOM      9  O   UNL     1       6.311   5.835  -0.792  0.00  0.00    -0.270 OA
ATOM     10  N   UNL     1       4.132   5.221  -0.954  0.00  0.00    -0.282 N 
ENDROOT
BRANCH   1  13
ATOM     11  C   UNL     1       4.808   2.522  -0.029  0.00  0.00    +0.063 C 
ATOM     12  C   UNL     1       3.301   2.534  -0.015  0.00  0.00    +0.019 A 
ATOM     13  C   UNL     1       2.539   3.639  -0.003  0.00  0.00    +0.005 A 
ATOM     14  C   UNL     1       1.143   3.196   0.008  0.00  0.00    +0.005 A 
ATOM     15  C   UNL     1      -0.085   3.860   0.023  0.00  0.00    +0.010 A 
ATOM     16  C   UNL     1      -1.246   3.139   0.030  0.00  0.00    +0.001 A 
ATOM     17  C   UNL     1      -1.213   1.751   0.017  0.00  0.00    +0.002 A 
ATOM     18  C   UNL     1      -0.013   1.076   0.008  0.00  0.00    +0.026 A 
ATOM     19  C   UNL     1       1.181   1.790   0.000  0.00  0.00    +0.047 A 
ATOM     20  N   UNL     1       2.507   1.420  -0.013  0.00  0.00    -0.358 N 
ATOM     21  H   UNL     1       2.830   0.505  -0.021  0.00  0.00    +0.166 HD
ENDBRANCH   1  13
BRANCH  10  22
ATOM     22  C   UNL     1       4.053   4.983  -2.398  0.00  0.00    +0.144 C 
BRANCH  22  23
ATOM     23  C   UNL     1       3.658   6.259  -3.096  0.00  0.00    -0.026 A 
ATOM     24  C   UNL     1       4.633   7.139  -3.527  0.00  0.00    +0.009 A 
ATOM     25  C   UNL     1       4.276   8.311  -4.169  0.00  0.00    +0.050 A 
ATOM     26  C   UNL     1       2.939   8.606  -4.380  0.00  0.00    +0.166 A 
ATOM     27  C   UNL     1       1.957   7.719  -3.945  0.00  0.00    +0.167 A 
ATOM     28  C   UNL     1       2.322   6.544  -3.308  0.00  0.00    +0.054 A 
ATOM     29  O   UNL     1       0.734   8.231  -4.268  0.00  0.00    -0.453 OA
ATOM     30  C   UNL     1       0.960   9.627  -4.538  0.00  0.00    +0.466 C 
ATOM     31  O   UNL     1       2.331   9.673  -4.975  0.00  0.00    -0.453 OA
ENDBRANCH  22  23
ENDBRANCH  10  22
TORSDOF 3
