REMARK  Name = ZINC20850048
REMARK  11 active torsions:
REMARK  status: ('A' for Active; 'I' for Inactive)
REMARK    1  A    between atoms: C_1  and  C_2
REMARK    2  A    between atoms: C_2  and  C_38
REMARK    3  A    between atoms: C_6  and  C_25
REMARK    4  A    between atoms: C_11  and  S_13
REMARK    5  A    between atoms: S_13  and  C_14
REMARK    6  A    between atoms: C_14  and  C_15
REMARK    7  A    between atoms: C_15  and  C_17
REMARK    8  A    between atoms: C_29  and  O_33
REMARK    9  A    between atoms: C_30  and  O_31
REMARK   10  A    between atoms: O_31  and  C_32
REMARK   11  A    between atoms: O_33  and  C_34
REMARK                            x       y       z     vdW  Elec       q    Type
REMARK                         _______ _______ _______ _____ _____    ______ ____
ROOT
ATOM      1  C   UNL     1       5.275  12.674  -4.012  0.00  0.00    +0.011 C 
ATOM      2  C   UNL     1       5.886  13.820  -3.204  0.00  0.00    -0.023 C 
ATOM      3  C   UNL     1       4.834  14.399  -2.255  0.00  0.00    +0.058 C 
ATOM      4  C   UNL     1       4.374  13.328  -1.294  0.00  0.00    +0.020 C 
ATOM      5  C   UNL     1       5.215  12.351  -0.891  0.00  0.00    +0.041 C 
ATOM      6  C   UNL     1       4.792  11.281   0.092  0.00  0.00    +0.179 C 
ATOM      7  N   UNL     1       3.342  11.280   0.233  0.00  0.00    -0.220 N 
ATOM      8  C   UNL     1       2.547  12.284  -0.211  0.00  0.00    +0.219 A 
ATOM      9  N   UNL     1       1.310  11.979   0.069  0.00  0.00    -0.187 NA
ATOM     10  C   UNL     1       1.272  10.793   0.695  0.00  0.00    +0.211 A 
ATOM     11  N   UNL     1       2.499  10.331   0.810  0.00  0.00    -0.141 NA
ATOM     12  N   UNL     1       3.075  13.394  -0.850  0.00  0.00    -0.287 N 
ATOM     13  C   UNL     1       6.535  12.290  -1.374  0.00  0.00    +0.164 C 
ATOM     14  O   UNL     1       7.271  11.406  -0.982  0.00  0.00    -0.292 OA
ATOM     15  C   UNL     1       7.055  13.294  -2.365  0.00  0.00    +0.086 C 
ATOM     16  C   UNL     1       6.381  14.913  -4.152  0.00  0.00    +0.011 C 
ATOM     17  H   UNL     1       2.487  14.311  -1.006  0.00  0.00    +0.155 HD
ENDROOT
BRANCH   6  18
ATOM     18  C   UNL     1       5.425  11.557   1.432  0.00  0.00    +0.027 A 
ATOM     19  C   UNL     1       5.311  12.809   2.006  0.00  0.00    +0.010 A 
ATOM     20  C   UNL     1       5.889  13.065   3.235  0.00  0.00    +0.004 A 
ATOM     21  C   UNL     1       6.584  12.069   3.896  0.00  0.00    +0.049 A 
ATOM     22  C   UNL     1       6.702  10.812   3.327  0.00  0.00    +0.162 A 
ATOM     23  C   UNL     1       6.115  10.553   2.091  0.00  0.00    +0.167 A 
BRANCH  23  24
ATOM     24  O   UNL     1       6.224   9.319   1.530  0.00  0.00    -0.491 OA
ATOM     25  C   UNL     1       7.432   9.031   0.823  0.00  0.00    +0.277 C 
ENDBRANCH  23  24
BRANCH  22  26
ATOM     26  O   UNL     1       7.385   9.831   3.975  0.00  0.00    -0.491 OA
ATOM     27  C   UNL     1       7.955  10.166   5.242  0.00  0.00    +0.277 C 
ENDBRANCH  22  26
ENDBRANCH   6  18
BRANCH  10  28
ATOM     28  S   UNL     1      -0.185   9.982   1.264  0.00  0.00    -0.076 S 
BRANCH  28  29
ATOM     29  C   UNL     1      -1.524  11.118   0.811  0.00  0.00    +0.157 C 
BRANCH  29  30
ATOM     30  C   UNL     1      -2.845  10.537   1.247  0.00  0.00    +0.173 C 
ATOM     31  O   UNL     1      -2.878   9.463   1.808  0.00  0.00    -0.291 OA
BRANCH  30  32
ATOM     32  C   UNL     1      -4.092  11.273   0.992  0.00  0.00    +0.018 A 
ATOM     33  C   UNL     1      -5.319  10.736   1.395  0.00  0.00    +0.014 A 
ATOM     34  C   UNL     1      -6.484  11.431   1.153  0.00  0.00    +0.039 A 
ATOM     35  C   UNL     1      -6.442  12.656   0.505  0.00  0.00    +0.123 A 
ATOM     36  C   UNL     1      -5.228  13.197   0.107  0.00  0.00    +0.039 A 
ATOM     37  C   UNL     1      -4.056  12.513   0.344  0.00  0.00    +0.014 A 
ATOM     38  F   UNL     1      -7.589  13.329   0.265  0.00  0.00    -0.205 F 
ENDBRANCH  30  32
ENDBRANCH  29  30
ENDBRANCH  28  29
ENDBRANCH  10  28
TORSDOF 7
