REMARK  Name = ZINC39988201
REMARK  15 active torsions:
REMARK  status: ('A' for Active; 'I' for Inactive)
REMARK    1  A    between atoms: C_1  and  C_2
REMARK    2  A    between atoms: C_2  and  C_3
REMARK    3  A    between atoms: C_3  and  C_4
REMARK    4  A    between atoms: C_4  and  C_6
REMARK    5  A    between atoms: C_4  and  O_32
REMARK    6  A    between atoms: N_8  and  N_9
REMARK    7  A    between atoms: C_13  and  C_31
REMARK    8  A    between atoms: N_17  and  C_20
REMARK    9  A    between atoms: C_20  and  C_21
REMARK   10  A    between atoms: C_21  and  C_22
REMARK   11  A    between atoms: C_22  and  O_23
REMARK   12  A    between atoms: O_23  and  C_24
REMARK   13  A    between atoms: C_27  and  C_30
REMARK   14  A    between atoms: O_32  and  C_33
REMARK   15  A    between atoms: C_36  and  O_39
REMARK                            x       y       z     vdW  Elec       q    Type
REMARK                         _______ _______ _______ _____ _____    ______ ____
ROOT
ATOM      1  N   UNL     1       3.767  -3.199   3.235  0.00  0.00    -0.174 NA
ATOM      2  C   UNL     1       5.065  -3.013   3.236  0.00  0.00    +0.153 C 
ATOM      3  C   UNL     1       6.059  -3.593   4.169  0.00  0.00    +0.029 A 
ATOM      4  C   UNL     1       5.955  -4.452   5.257  0.00  0.00    +0.015 A 
ATOM      5  C   UNL     1       7.092  -4.824   5.947  0.00  0.00    -0.050 A 
ATOM      6  C   UNL     1       8.329  -4.341   5.556  0.00  0.00    +0.005 A 
ATOM      7  C   UNL     1       8.443  -3.487   4.478  0.00  0.00    +0.024 A 
ATOM      8  C   UNL     1       7.309  -3.102   3.770  0.00  0.00    +0.046 A 
ATOM      9  N   UNL     1       7.146  -2.270   2.668  0.00  0.00    -0.265 N 
ATOM     10  C   UNL     1       5.855  -2.183   2.304  0.00  0.00    +0.271 C 
ATOM     11  O   UNL     1       5.415  -1.533   1.375  0.00  0.00    -0.268 OA
ATOM     12  C   UNL     1       6.985  -5.755   7.128  0.00  0.00    +0.044 C 
ENDROOT
BRANCH   1  15
ATOM     13  C   UNL     1       1.636  -2.764   2.267  0.00  0.00    +0.273 C 
ATOM     14  O   UNL     1       1.126  -3.479   3.102  0.00  0.00    -0.270 OA
ATOM     15  N   UNL     1       2.970  -2.572   2.268  0.00  0.00    -0.203 N 
ATOM     16  H   UNL     1       3.379  -2.000   1.600  0.00  0.00    +0.177 HD
BRANCH  13  17
ATOM     17  C   UNL     1       0.779  -2.089   1.227  0.00  0.00    +0.260 C 
BRANCH  17  18
ATOM     18  C   UNL     1       0.837  -0.573   1.425  0.00  0.00    +0.054 C 
BRANCH  18  20
ATOM     19  C   UNL     1       0.126   1.634   0.493  0.00  0.00    +0.004 C 
ATOM     20  C   UNL     1       0.069   0.118   0.296  0.00  0.00    +0.001 C 
ENDBRANCH  18  20
ENDBRANCH  17  18
BRANCH  17  21
ATOM     21  O   UNL     1      -0.572  -2.536   1.361  0.00  0.00    -0.480 OA
BRANCH  21  22
ATOM     22  C   UNL     1      -1.301  -2.646   0.218  0.00  0.00    +0.122 A 
ATOM     23  C   UNL     1      -2.637  -3.015   0.281  0.00  0.00    +0.049 A 
ATOM     24  C   UNL     1      -3.378  -3.126  -0.879  0.00  0.00    +0.049 A 
ATOM     25  C   UNL     1      -2.786  -2.869  -2.107  0.00  0.00    +0.117 A 
ATOM     26  C   UNL     1      -1.451  -2.499  -2.170  0.00  0.00    +0.049 A 
ATOM     27  C   UNL     1      -0.711  -2.384  -1.009  0.00  0.00    +0.049 A 
BRANCH  25  28
ATOM     28  O   UNL     1      -3.516  -2.980  -3.249  0.00  0.00    -0.507 OA
ATOM     29  H   UNL     1      -3.959  -2.162  -3.514  0.00  0.00    +0.292 HD
ENDBRANCH  25  28
ENDBRANCH  21  22
ENDBRANCH  17  21
ENDBRANCH  13  17
ENDBRANCH   1  15
BRANCH   9  30
ATOM     30  C   UNL     1       8.244  -1.581   1.985  0.00  0.00    +0.117 C 
BRANCH  30  31
ATOM     31  C   UNL     1       8.790  -2.474   0.869  0.00  0.00    +0.060 C 
BRANCH  31  32
ATOM     32  C   UNL     1       9.937  -1.754   0.156  0.00  0.00    +0.230 C 
BRANCH  32  33
ATOM     33  O   UNL     1      10.447  -2.588  -0.887  0.00  0.00    -0.492 OA
BRANCH  33  34
ATOM     34  C   UNL     1      11.477  -2.094  -1.624  0.00  0.00    +0.121 A 
ATOM     35  C   UNL     1      11.990  -0.836  -1.345  0.00  0.00    +0.046 A 
ATOM     36  C   UNL     1      13.037  -0.336  -2.094  0.00  0.00    +0.007 A 
ATOM     37  C   UNL     1      13.573  -1.089  -3.122  0.00  0.00    -0.050 A 
ATOM     38  C   UNL     1      13.064  -2.343  -3.403  0.00  0.00    +0.007 A 
ATOM     39  C   UNL     1      12.020  -2.850  -2.652  0.00  0.00    +0.046 A 
ATOM     40  C   UNL     1      14.716  -0.542  -3.939  0.00  0.00    +0.044 C 
ENDBRANCH  33  34
ENDBRANCH  32  33
ENDBRANCH  31  32
ENDBRANCH  30  31
ENDBRANCH   9  30
TORSDOF 12
