REMARK  Name = ZINC16246475
REMARK  8 active torsions:
REMARK  status: ('A' for Active; 'I' for Inactive)
REMARK    1  A    between atoms: C_3  and  C_6
REMARK    2  A    between atoms: C_6  and  N_7
REMARK    3  A    between atoms: C_8  and  C_27
REMARK    4  A    between atoms: C_11  and  S_12
REMARK    5  A    between atoms: S_12  and  C_13
REMARK    6  A    between atoms: C_13  and  C_14
REMARK    7  A    between atoms: N_16  and  C_17
REMARK    8  A    between atoms: C_18  and  C_25
REMARK                            x       y       z     vdW  Elec       q    Type
REMARK                         _______ _______ _______ _____ _____    ______ ____
ROOT
ATOM      1  N   UNL     1      -5.321   1.509   0.079  0.00  0.00    -0.295 N 
ATOM      2  C   UNL     1      -5.994   2.708   0.045  0.00  0.00    +0.165 A 
ATOM      3  N   UNL     1      -5.091   3.654  -0.077  0.00  0.00    -0.128 NA
ATOM      4  N   UNL     1      -3.916   3.135  -0.115  0.00  0.00    -0.122 NA
ATOM      5  C   UNL     1      -3.997   1.826  -0.030  0.00  0.00    +0.193 A 
ENDROOT
BRANCH   2   6
ATOM      6  C   UNL     1      -7.458   2.897   0.130  0.00  0.00    +0.019 A 
ATOM      7  C   UNL     1      -8.032   4.108  -0.260  0.00  0.00    +0.013 A 
ATOM      8  C   UNL     1      -9.399   4.277  -0.184  0.00  0.00    +0.021 A 
ATOM      9  C   UNL     1     -10.200   3.251   0.288  0.00  0.00    +0.041 A 
ATOM     10  C   UNL     1      -9.636   2.048   0.681  0.00  0.00    +0.021 A 
ATOM     11  C   UNL     1      -8.271   1.866   0.604  0.00  0.00    +0.013 A 
ATOM     12 CL   UNL     1     -11.919   3.472   0.388  0.00  0.00    -0.084 Cl
ENDBRANCH   2   6
BRANCH   1  13
ATOM     13  C   UNL     1      -5.903   0.170   0.205  0.00  0.00    +0.200 C 
BRANCH  13  16
ATOM     14  C   UNL     1      -6.391  -0.686   3.756  0.00  0.00    +0.041 A 
ATOM     15  C   UNL     1      -6.865  -0.161   2.532  0.00  0.00    +0.046 A 
ATOM     16  C   UNL     1      -5.857  -0.263   1.648  0.00  0.00    +0.125 A 
ATOM     17  O   UNL     1      -4.801  -0.812   2.270  0.00  0.00    -0.466 OA
ATOM     18  C   UNL     1      -5.119  -1.071   3.549  0.00  0.00    +0.195 A 
ENDBRANCH  13  16
ENDBRANCH   1  13
BRANCH   5  19
ATOM     19  S   UNL     1      -2.648   0.693  -0.044  0.00  0.00    -0.077 S 
BRANCH  19  20
ATOM     20  C   UNL     1      -1.267   1.850  -0.212  0.00  0.00    +0.173 C 
BRANCH  20  21
ATOM     21  C   UNL     1       0.030   1.083  -0.247  0.00  0.00    +0.228 C 
ATOM     22  O   UNL     1       0.021  -0.128  -0.167  0.00  0.00    -0.275 OA
ATOM     23  N   UNL     1       1.199   1.741  -0.373  0.00  0.00    -0.278 N 
ATOM     24  H   UNL     1       1.206   2.708  -0.438  0.00  0.00    +0.155 HD
BRANCH  23  25
ATOM     25  C   UNL     1       2.393   1.034  -0.412  0.00  0.00    +0.090 A 
ATOM     26  C   UNL     1       3.680   1.525  -0.541  0.00  0.00    +0.084 A 
ATOM     27  C   UNL     1       4.777   0.559  -0.550  0.00  0.00    -0.018 A 
ATOM     28  C   UNL     1       4.404  -0.729  -0.438  0.00  0.00    -0.004 A 
ATOM     29  S   UNL     1       2.633  -0.678  -0.317  0.00  0.00    -0.077 S 
ATOM     30  C   UNL     1       5.585  -1.662  -0.458  0.00  0.00    +0.043 C 
ATOM     31  C   UNL     1       6.801  -0.756  -0.163  0.00  0.00    +0.010 C 
ATOM     32  C   UNL     1       6.301   0.614  -0.663  0.00  0.00    +0.037 C 
BRANCH  26  33
ATOM     33  C   UNL     1       3.928   2.931  -0.658  0.00  0.00    +0.102 C 
ATOM     34  N   UNL     1       4.125   4.046  -0.750  0.00  0.00    -0.191 NA
ENDBRANCH  26  33
ENDBRANCH  23  25
ENDBRANCH  20  21
ENDBRANCH  19  20
ENDBRANCH   5  19
TORSDOF 8
