REMARK  Name = ZINC39597859
REMARK  7 active torsions:
REMARK  status: ('A' for Active; 'I' for Inactive)
REMARK    1  A    between atoms: C_1  and  C_2
REMARK    2  A    between atoms: C_4  and  C_13
REMARK    3  A    between atoms: C_6  and  C_9
REMARK    4  A    between atoms: C_17  and  C_26
REMARK    5  A    between atoms: N_28  and  C_29
REMARK    6  A    between atoms: C_29  and  C_30
REMARK    7  A    between atoms: C_30  and  C_31
REMARK                            x       y       z     vdW  Elec       q    Type
REMARK                         _______ _______ _______ _____ _____    ______ ____
ROOT
ATOM      1  C   UNL     1      -0.764  -2.860   1.504  0.00  0.00    +0.226 C 
ATOM      2  O   UNL     1       0.189  -3.348   2.073  0.00  0.00    -0.275 OA
ATOM      3  N   UNL     1      -1.994  -2.953   2.048  0.00  0.00    -0.300 N 
ATOM      4  C   UNL     1      -3.270  -2.429   1.505  0.00  0.00    +0.121 C 
ATOM      5  C   UNL     1      -4.309  -3.527   1.824  0.00  0.00    +0.100 C 
ATOM      6  C   UNL     1      -3.718  -4.291   3.020  0.00  0.00    -0.004 C 
ATOM      7  C   UNL     1      -2.377  -3.607   3.322  0.00  0.00    +0.115 C 
ATOM      8  C   UNL     1      -3.486  -5.753   2.651  0.00  0.00    -0.010 C 
ATOM      9  C   UNL     1      -2.952  -6.505   3.873  0.00  0.00    -0.082 C 
ATOM     10  N   UNL     1      -3.919  -6.405   4.973  0.00  0.00    +0.379 N 
ATOM     11  C   UNL     1      -4.067  -5.004   5.384  0.00  0.00    -0.082 C 
ATOM     12  C   UNL     1      -4.648  -4.188   4.226  0.00  0.00    -0.010 C 
ATOM     13  H   UNL     1      -4.813  -6.760   4.667  0.00  0.00    -0.086 HD
ATOM     14  H   UNL     1      -3.594  -6.951   5.756  0.00  0.00    -0.086 HD
ENDROOT
BRANCH   1  18
ATOM     15  C   UNL     1       0.127   1.526   0.488  0.00  0.00    +0.085 C 
ATOM     16  C   UNL     1       0.121   0.023   0.378  0.00  0.00    +0.092 C 
ATOM     17  C   UNL     1      -0.983  -0.689   0.296  0.00  0.00    +0.030 C 
ATOM     18  C   UNL     1      -0.574  -2.148   0.189  0.00  0.00    +0.150 C 
ATOM     19  C   UNL     1       0.929  -2.028  -0.165  0.00  0.00    +0.292 C 
ATOM     20  O   UNL     1       1.249  -0.722   0.349  0.00  0.00    -0.484 OA
BRANCH  19  21
ATOM     21  C   UNL     1       1.141  -2.082  -1.679  0.00  0.00    +0.427 C 
ATOM     22  F   UNL     1       0.451  -1.027  -2.285  0.00  0.00    -0.167 F 
ATOM     23  F   UNL     1       2.506  -1.971  -1.963  0.00  0.00    -0.167 F 
ATOM     24  F   UNL     1       0.659  -3.299  -2.174  0.00  0.00    -0.167 F 
ENDBRANCH  19  21
ENDBRANCH   1  18
BRANCH   5  25
ATOM     25  C   UNL     1      -5.631  -2.905   2.197  0.00  0.00    +0.218 C 
ATOM     26  O   UNL     1      -5.659  -1.823   2.744  0.00  0.00    -0.275 OA
ATOM     27  N   UNL     1      -6.781  -3.552   1.922  0.00  0.00    -0.315 N 
ATOM     28  H   UNL     1      -6.758  -4.417   1.484  0.00  0.00    +0.149 HD
BRANCH  27  29
ATOM     29  C   UNL     1      -8.065  -2.948   2.284  0.00  0.00    +0.109 C 
BRANCH  29  30
ATOM     30  C   UNL     1      -9.204  -3.880   1.865  0.00  0.00    +0.056 C 
BRANCH  30  31
ATOM     31  C   UNL     1     -10.525  -3.258   2.237  0.00  0.00    -0.021 A 
ATOM     32  C   UNL     1     -11.287  -2.289   1.445  0.00  0.00    +0.003 A 
ATOM     33  C   UNL     1     -11.083  -1.672   0.210  0.00  0.00    +0.010 A 
ATOM     34  C   UNL     1     -12.009  -0.788  -0.268  0.00  0.00    +0.001 A 
ATOM     35  C   UNL     1     -13.152  -0.499   0.465  0.00  0.00    +0.002 A 
ATOM     36  C   UNL     1     -13.373  -1.098   1.687  0.00  0.00    +0.026 A 
ATOM     37  C   UNL     1     -12.444  -2.000   2.192  0.00  0.00    +0.047 A 
ATOM     38  N   UNL     1     -12.377  -2.744   3.349  0.00  0.00    -0.360 N 
ATOM     39  C   UNL     1     -11.230  -3.492   3.355  0.00  0.00    +0.087 A 
ATOM     40  H   UNL     1     -13.045  -2.742   4.052  0.00  0.00    +0.165 HD
ENDBRANCH  30  31
ENDBRANCH  29  30
ENDBRANCH  27  29
ENDBRANCH   5  25
TORSDOF 6
