REMARK  Name = ZINC52895307
REMARK  6 active torsions:
REMARK  status: ('A' for Active; 'I' for Inactive)
REMARK    1  A    between atoms: C_2  and  C_3
REMARK    2  A    between atoms: C_3  and  N_4
REMARK    3  A    between atoms: C_5  and  S_9
REMARK    4  A    between atoms: S_9  and  C_10
REMARK    5  A    between atoms: C_10  and  C_11
REMARK    6  A    between atoms: N_13  and  C_14
REMARK                            x       y       z     vdW  Elec       q    Type
REMARK                         _______ _______ _______ _____ _____    ______ ____
ROOT
ATOM      1  C   UNL     1       3.491   0.970   5.324  0.00  0.00    +0.224 C 
ATOM      2  O   UNL     1       3.613   1.987   4.675  0.00  0.00    -0.275 OA
ATOM      3  N   UNL     1       3.878   0.944   6.615  0.00  0.00    -0.312 N 
ATOM      4  H   UNL     1       3.781   0.131   7.134  0.00  0.00    +0.149 HD
ENDROOT
BRANCH   3   5
ATOM      5  C   UNL     1       4.446   2.144   7.234  0.00  0.00    +0.073 C 
ATOM      6  C   UNL     1       5.946   2.210   6.938  0.00  0.00    +0.022 C 
ATOM      7  C   UNL     1       6.461   3.621   7.225  0.00  0.00    +0.002 C 
ATOM      8  C   UNL     1       5.481   4.648   6.656  0.00  0.00    +0.000 C 
ATOM      9  C   UNL     1       4.821   5.414   7.804  0.00  0.00    +0.000 C 
ATOM     10  C   UNL     1       3.761   4.529   8.464  0.00  0.00    +0.000 C 
ATOM     11  C   UNL     1       4.448   3.482   9.344  0.00  0.00    +0.002 C 
ATOM     12  C   UNL     1       4.227   2.091   8.747  0.00  0.00    +0.022 C 
ENDBRANCH   3   5
BRANCH   1  13
ATOM     13  C   UNL     1       2.907  -0.265   4.688  0.00  0.00    +0.173 C 
BRANCH  13  14
ATOM     14  S   UNL     1       2.489   0.087   2.958  0.00  0.00    -0.075 S 
BRANCH  14  16
ATOM     15  N   UNL     1       1.367  -1.676   1.111  0.00  0.00    -0.216 N 
ATOM     16  C   UNL     1       1.827  -1.433   2.362  0.00  0.00    +0.210 A 
ATOM     17  N   UNL     1       1.686  -2.547   3.048  0.00  0.00    -0.101 NA
ATOM     18  N   UNL     1       1.172  -3.466   2.313  0.00  0.00    -0.022 NA
ATOM     19  N   UNL     1       0.943  -3.016   1.127  0.00  0.00    -0.043 NA
BRANCH  15  20
ATOM     20  C   UNL     1       1.317  -0.740  -0.015  0.00  0.00    +0.175 C 
BRANCH  20  22
ATOM     21  C   UNL     1      -0.016   1.306   0.009  0.00  0.00    +0.006 C 
ATOM     22  C   UNL     1       0.002  -0.004   0.002  0.00  0.00    -0.011 C 
ENDBRANCH  20  22
ENDBRANCH  15  20
ENDBRANCH  14  16
ENDBRANCH  13  14
ENDBRANCH   1  13
TORSDOF 6
