REMARK  Name = ZINC39696124
REMARK  8 active torsions:
REMARK  status: ('A' for Active; 'I' for Inactive)
REMARK    1  A    between atoms: C_1  and  C_2
REMARK    2  A    between atoms: C_2  and  C_3
REMARK    3  A    between atoms: C_6  and  C_9
REMARK    4  A    between atoms: C_9  and  C_11
REMARK    5  A    between atoms: C_9  and  N_12
REMARK    6  A    between atoms: C_13  and  C_15
REMARK    7  A    between atoms: C_26  and  C_28
REMARK    8  A    between atoms: N_32  and  C_33
REMARK                            x       y       z     vdW  Elec       q    Type
REMARK                         _______ _______ _______ _____ _____    ______ ____
ROOT
ATOM      1  C   UNL     1      -6.334  -5.359  -2.887  0.00  0.00    +0.100 C 
ATOM      2  C   UNL     1      -5.077  -6.247  -2.754  0.00  0.00    +0.121 C 
ATOM      3  N   UNL     1      -5.394  -7.182  -1.649  0.00  0.00    -0.295 N 
ATOM      4  C   UNL     1      -6.822  -7.525  -1.854  0.00  0.00    +0.115 C 
ATOM      5  C   UNL     1      -7.478  -6.202  -2.299  0.00  0.00    -0.004 C 
ATOM      6  C   UNL     1      -8.539  -6.470  -3.362  0.00  0.00    -0.010 C 
ATOM      7  C   UNL     1      -9.693  -7.260  -2.739  0.00  0.00    -0.082 C 
ATOM      8  N   UNL     1     -10.268  -6.493  -1.627  0.00  0.00    +0.379 N 
ATOM      9  C   UNL     1      -9.268  -6.321  -0.567  0.00  0.00    -0.082 C 
ATOM     10  C   UNL     1      -8.095  -5.491  -1.098  0.00  0.00    -0.010 C 
ATOM     11  C   UNL     1      -4.571  -7.622  -0.677  0.00  0.00    +0.263 C 
ATOM     12  O   UNL     1      -4.919  -8.534   0.049  0.00  0.00    -0.268 OA
ATOM     13  H   UNL     1     -10.562  -5.588  -1.961  0.00  0.00    -0.086 HD
ATOM     14  H   UNL     1     -11.066  -6.987  -1.257  0.00  0.00    -0.086 HD
ENDROOT
BRANCH  11  15
ATOM     15  C   UNL     1      -3.255  -7.001  -0.495  0.00  0.00    +0.104 A 
ATOM     16  C   UNL     1      -2.861  -5.770  -0.974  0.00  0.00    +0.032 A 
ATOM     17  C   UNL     1      -1.536  -5.576  -0.570  0.00  0.00    +0.020 A 
ATOM     18  C   UNL     1      -1.153  -6.668   0.135  0.00  0.00    +0.086 A 
ATOM     19  N   UNL     1      -2.189  -7.538   0.192  0.00  0.00    -0.346 N 
ATOM     20  C   UNL     1      -2.178  -8.837   0.870  0.00  0.00    +0.149 C 
ENDBRANCH  11  15
BRANCH   1  22
ATOM     21  N   UNL     1      -6.762  -2.951  -2.513  0.00  0.00    -0.308 N 
ATOM     22  C   UNL     1      -6.162  -4.085  -2.099  0.00  0.00    +0.219 C 
ATOM     23  O   UNL     1      -5.485  -4.082  -1.093  0.00  0.00    -0.275 OA
ATOM     24  H   UNL     1      -7.303  -2.954  -3.317  0.00  0.00    +0.149 HD
BRANCH  21  25
ATOM     25  C   UNL     1      -6.595  -1.714  -1.747  0.00  0.00    +0.100 C 
ATOM     26  C   UNL     1      -7.624  -1.671  -0.615  0.00  0.00    +0.033 C 
BRANCH  25  30
ATOM     27  C   UNL     1      -7.170   1.643  -4.325  0.00  0.00    -0.048 A 
ATOM     28  C   UNL     1      -6.172   1.669  -3.369  0.00  0.00    +0.004 A 
ATOM     29  C   UNL     1      -5.986   0.583  -2.535  0.00  0.00    +0.006 A 
ATOM     30  C   UNL     1      -6.798  -0.529  -2.656  0.00  0.00    -0.027 A 
ATOM     31  C   UNL     1      -7.797  -0.554  -3.611  0.00  0.00    +0.006 A 
ATOM     32  C   UNL     1      -7.986   0.534  -4.442  0.00  0.00    +0.004 A 
BRANCH  27  34
ATOM     33  C   UNL     1      -8.360   3.803  -4.590  0.00  0.00    +0.009 C 
ATOM     34  C   UNL     1      -7.373   2.828  -5.235  0.00  0.00    +0.032 C 
ENDBRANCH  27  34
ENDBRANCH  25  30
ENDBRANCH  21  25
ENDBRANCH   1  22
TORSDOF 5
