REMARK  Name = ZINC39361902
REMARK  9 active torsions:
REMARK  status: ('A' for Active; 'I' for Inactive)
REMARK    1  A    between atoms: C_1  and  C_2
REMARK    2  A    between atoms: C_5  and  C_35
REMARK    3  A    between atoms: C_6  and  N_8
REMARK    4  A    between atoms: C_9  and  C_26
REMARK    5  A    between atoms: C_13  and  S_15
REMARK    6  A    between atoms: S_15  and  C_16
REMARK    7  A    between atoms: C_16  and  C_17
REMARK    8  A    between atoms: C_23  and  C_25
REMARK    9  A    between atoms: C_26  and  C_27
REMARK                            x       y       z     vdW  Elec       q    Type
REMARK                         _______ _______ _______ _____ _____    ______ ____
ROOT
ATOM      1  N   UNL     1      -0.100  -2.539   2.477  0.00  0.00    -0.274 N 
ATOM      2  C   UNL     1       1.186  -2.845   3.129  0.00  0.00    +0.222 C 
ATOM      3  N   UNL     1       0.879  -3.746   4.242  0.00  0.00    -0.166 NA
ATOM      4  N   UNL     1      -0.324  -3.986   4.316  0.00  0.00    -0.156 NA
ATOM      5  C   UNL     1      -1.083  -3.293   3.274  0.00  0.00    +0.276 C 
ENDROOT
BRANCH   1  11
ATOM      6  C   UNL     1      -0.148  -1.944  -2.401  0.00  0.00    +0.044 C 
ATOM      7  C   UNL     1      -0.363  -1.407  -1.009  0.00  0.00    -0.049 A 
ATOM      8  C   UNL     1      -0.792  -0.105  -0.829  0.00  0.00    +0.004 A 
ATOM      9  C   UNL     1      -0.990   0.391   0.446  0.00  0.00    +0.005 A 
ATOM     10  C   UNL     1      -0.761  -0.414   1.545  0.00  0.00    -0.029 A 
ATOM     11  C   UNL     1      -0.332  -1.723   1.368  0.00  0.00    +0.037 A 
ATOM     12  C   UNL     1      -0.138  -2.219   0.085  0.00  0.00    +0.027 A 
ATOM     13  C   UNL     1      -0.978   0.128   2.935  0.00  0.00    +0.045 C 
ENDBRANCH   1  11
BRANCH   5  14
ATOM     14  S   UNL     1      -1.941  -4.500   2.226  0.00  0.00    -0.104 S 
BRANCH  14  15
ATOM     15  C   UNL     1      -0.604  -5.523   1.551  0.00  0.00    +0.168 C 
BRANCH  15  16
ATOM     16  C   UNL     1      -1.173  -6.498   0.552  0.00  0.00    +0.229 C 
ATOM     17  O   UNL     1      -2.363  -6.502   0.319  0.00  0.00    -0.275 OA
ATOM     18  N   UNL     1      -0.359  -7.365  -0.082  0.00  0.00    -0.263 N 
ATOM     19  C   UNL     1      -0.884  -8.265  -1.004  0.00  0.00    +0.188 A 
ATOM     20  N   UNL     1      -2.133  -8.420  -1.395  0.00  0.00    -0.126 NA
ATOM     21  N   UNL     1      -2.461  -9.290  -2.251  0.00  0.00    -0.145 NA
ATOM     22  C   UNL     1      -1.529 -10.065  -2.768  0.00  0.00    +0.101 A 
ATOM     23  S   UNL     1      -0.087  -9.436  -1.918  0.00  0.00    -0.036 S 
ATOM     24  C   UNL     1      -1.645 -11.165  -3.791  0.00  0.00    +0.075 C 
ATOM     25  H   UNL     1       0.593  -7.362   0.105  0.00  0.00    +0.157 HD
ENDBRANCH  15  16
ENDBRANCH  14  15
ENDBRANCH   5  14
BRANCH   2  26
ATOM     26  C   UNL     1       1.827  -1.559   3.655  0.00  0.00    +0.102 C 
BRANCH  26  27
ATOM     27  C   UNL     1       3.148  -1.885   4.303  0.00  0.00    +0.029 A 
ATOM     28  N   UNL     1       3.191  -2.289   5.609  0.00  0.00    -0.311 N 
ATOM     29  C   UNL     1       4.365  -2.583   6.197  0.00  0.00    +0.327 A 
ATOM     30  O   UNL     1       4.381  -2.941   7.359  0.00  0.00    -0.247 OA
ATOM     31  N   UNL     1       5.523  -2.486   5.517  0.00  0.00    -0.275 N 
ATOM     32  C   UNL     1       5.523  -2.091   4.228  0.00  0.00    +0.254 A 
ATOM     33  O   UNL     1       6.569  -2.003   3.612  0.00  0.00    -0.268 OA
ATOM     34  C   UNL     1       4.294  -1.784   3.596  0.00  0.00    +0.091 A 
ATOM     35  H   UNL     1       6.361  -2.702   5.956  0.00  0.00    +0.173 HD
ATOM     36  H   UNL     1       2.368  -2.365   6.117  0.00  0.00    +0.170 HD
ENDBRANCH  26  27
ENDBRANCH   2  26
TORSDOF 6
