REMARK  Name = ZINC02125175
REMARK  7 active torsions:
REMARK  status: ('A' for Active; 'I' for Inactive)
REMARK    1  A    between atoms: C_1  and  C_2
REMARK    2  A    between atoms: C_2  and  C_3
REMARK    3  A    between atoms: C_3  and  C_4
REMARK    4  A    between atoms: C_4  and  C_5
REMARK    5  A    between atoms: C_15  and  C_16
REMARK    6  A    between atoms: C_20  and  C_21
REMARK    7  A    between atoms: C_20  and  N_52
REMARK                            x       y       z     vdW  Elec       q    Type
REMARK                         _______ _______ _______ _____ _____    ______ ____
ROOT
ATOM      1  C   UNL     1       7.811   5.813  -4.926  0.00  0.00    -0.030 A 
ATOM      2  C   UNL     1       8.242   5.864  -6.214  0.00  0.00    +0.096 A 
ATOM      3  C   UNL     1       7.874   4.843  -7.113  0.00  0.00    +0.337 A 
ATOM      4  O   UNL     1       8.271   4.908  -8.262  0.00  0.00    -0.245 OA
ATOM      5  O   UNL     1       7.107   3.807  -6.758  0.00  0.00    -0.422 OA
ATOM      6  C   UNL     1       6.649   3.703  -5.495  0.00  0.00    +0.146 A 
ATOM      7  C   UNL     1       6.970   4.679  -4.534  0.00  0.00    +0.021 A 
ATOM      8  C   UNL     1       6.489   4.561  -3.226  0.00  0.00    +0.017 A 
ATOM      9  C   UNL     1       5.706   3.496  -2.879  0.00  0.00    -0.021 A 
ATOM     10  C   UNL     1       5.383   2.525  -3.824  0.00  0.00    +0.125 A 
ATOM     11  C   UNL     1       5.853   2.628  -5.125  0.00  0.00    +0.034 A 
ATOM     12  C   UNL     1       5.499   1.571  -6.138  0.00  0.00    +0.051 C 
ATOM     13  O   UNL     1       4.603   1.464  -3.489  0.00  0.00    -0.509 OA
ATOM     14  C   UNL     1       4.439   1.190  -2.095  0.00  0.00    +0.158 C 
ATOM     15  C   UNL     1       5.201   3.389  -1.462  0.00  0.00    -0.034 C 
ATOM     16  N   UNL     1       4.063   2.451  -1.425  0.00  0.00    +0.408 N 
ATOM     17  H   UNL     1       3.267   2.870  -1.920  0.00  0.00    -0.076 HD
ENDROOT
BRANCH   1  18
ATOM     18  C   UNL     1       8.183   6.887  -3.937  0.00  0.00    +0.036 C 
BRANCH  18  19
ATOM     19  C   UNL     1       9.418   6.447  -3.148  0.00  0.00    +0.004 C 
BRANCH  19  21
ATOM     20  C   UNL     1      11.031   7.096  -1.354  0.00  0.00    +0.004 C 
ATOM     21  C   UNL     1       9.796   7.537  -2.143  0.00  0.00    -0.003 C 
ENDBRANCH  19  21
ENDBRANCH  18  19
ENDBRANCH   1  18
BRANCH  16  22
ATOM     22  C   UNL     1       3.672   2.184  -0.022  0.00  0.00    -0.038 C 
BRANCH  22  23
ATOM     23  C   UNL     1       2.377   1.412  -0.013  0.00  0.00    -0.064 A 
ATOM     24  C   UNL     1       1.171   2.087   0.002  0.00  0.00    +0.004 A 
ATOM     25  C   UNL     1      -0.017   1.380   0.010  0.00  0.00    +0.038 A 
ATOM     26  C   UNL     1       0.002  -0.004   0.002  0.00  0.00    +0.123 A 
ATOM     27  C   UNL     1       1.211  -0.679  -0.013  0.00  0.00    +0.038 A 
ATOM     28  C   UNL     1       2.397   0.030  -0.021  0.00  0.00    +0.004 A 
ATOM     29  F   UNL     1      -1.158  -0.696   0.010  0.00  0.00    -0.205 F 
ENDBRANCH  22  23
ENDBRANCH  16  22
TORSDOF 5
