REMARK  Name = ZINC35552788
REMARK  1 active torsions:
REMARK  status: ('A' for Active; 'I' for Inactive)
REMARK    1  A    between atoms: C_4  and  C_7
REMARK                            x       y       z     vdW  Elec       q    Type
REMARK                         _______ _______ _______ _____ _____    ______ ____
ROOT
ATOM      1  C   UNL     1       2.852  -0.465  -2.508  0.00  0.00    +0.135 A 
ATOM      2  N   UNL     1       3.933  -1.213  -2.384  0.00  0.00    -0.216 NA
ATOM      3  C   UNL     1       4.604  -1.660  -3.433  0.00  0.00    +0.134 A 
ATOM      4  C   UNL     1       4.151  -1.326  -4.739  0.00  0.00    +0.051 A 
ATOM      5  C   UNL     1       4.725  -1.700  -6.033  0.00  0.00    -0.025 A 
ATOM      6  C   UNL     1       4.094  -1.248  -7.136  0.00  0.00    -0.004 A 
ATOM      7  S   UNL     1       2.717  -0.310  -6.529  0.00  0.00    -0.073 S 
ATOM      8  C   UNL     1       2.992  -0.526  -4.790  0.00  0.00    +0.114 A 
ATOM      9  N   UNL     1       2.380  -0.127  -3.692  0.00  0.00    -0.224 NA
ATOM     10  C   UNL     1       4.479  -1.488  -8.564  0.00  0.00    +0.043 C 
ATOM     11  C   UNL     1       5.918  -2.020  -8.595  0.00  0.00    +0.005 C 
ATOM     12  C   UNL     1       6.048  -3.144  -7.562  0.00  0.00    +0.005 C 
ATOM     13  C   UNL     1       5.979  -2.561  -6.150  0.00  0.00    +0.037 C 
ATOM     14  N   UNL     1       5.733  -2.442  -3.262  0.00  0.00    -0.310 N 
ATOM     15  C   UNL     1       7.077  -1.843  -3.268  0.00  0.00    +0.134 C 
ATOM     16  C   UNL     1       7.828  -2.329  -2.023  0.00  0.00    +0.178 C 
ATOM     17  O   UNL     1       7.769  -3.756  -1.964  0.00  0.00    -0.377 OA
ATOM     18  C   UNL     1       6.446  -4.282  -1.832  0.00  0.00    +0.178 C 
ATOM     19  C   UNL     1       5.624  -3.896  -3.062  0.00  0.00    +0.134 C 
ENDROOT
BRANCH   1  23
ATOM     20  C   UNL     1      -0.044   1.489   0.010  0.00  0.00    +0.000 C 
ATOM     21  C   UNL     1       1.390   2.020   0.013  0.00  0.00    +0.001 C 
ATOM     22  C   UNL     1       2.115   1.539  -1.246  0.00  0.00    +0.011 C 
ATOM     23  C   UNL     1       2.138   0.009  -1.268  0.00  0.00    +0.057 C 
ATOM     24  C   UNL     1       0.703  -0.522  -1.271  0.00  0.00    +0.011 C 
ATOM     25  C   UNL     1      -0.021  -0.041  -0.012  0.00  0.00    +0.001 C 
ENDBRANCH   1  23
TORSDOF 1
