REMARK  Name = ZINC36558606
REMARK  15 active torsions:
REMARK  status: ('A' for Active; 'I' for Inactive)
REMARK    1  A    between atoms: C_1  and  C_2
REMARK    2  A    between atoms: C_2  and  C_3
REMARK    3  A    between atoms: C_3  and  C_5
REMARK    4  A    between atoms: C_3  and  C_11
REMARK    5  A    between atoms: N_13  and  C_14
REMARK    6  A    between atoms: N_13  and  C_21
REMARK    7  A    between atoms: C_14  and  C_15
REMARK    8  A    between atoms: C_18  and  C_20
REMARK    9  A    between atoms: C_21  and  C_23
REMARK   10  A    between atoms: C_21  and  C_26
REMARK   11  A    between atoms: C_24  and  C_25
REMARK   12  A    between atoms: N_28  and  C_29
REMARK   13  A    between atoms: C_29  and  S_30
REMARK   14  A    between atoms: S_30  and  C_33
REMARK   15  A    between atoms: C_36  and  C_39
REMARK                            x       y       z     vdW  Elec       q    Type
REMARK                         _______ _______ _______ _____ _____    ______ ____
ROOT
ATOM      1  C   UNL     1       0.409  -1.523  -0.688  0.00  0.00    +0.224 C 
ATOM      2  O   UNL     1       1.432  -1.800  -0.098  0.00  0.00    -0.275 OA
ATOM      3  N   UNL     1      -0.436  -2.502  -1.066  0.00  0.00    -0.279 N 
ENDROOT
BRANCH   1   4
ATOM      4  C   UNL     1       0.084  -0.085  -0.999  0.00  0.00    +0.105 C 
BRANCH   4   5
ATOM      5  C   UNL     1       1.284   0.777  -0.702  0.00  0.00    -0.036 A 
ATOM      6  C   UNL     1       1.808   0.817   0.577  0.00  0.00    +0.004 A 
ATOM      7  C   UNL     1       2.908   1.607   0.849  0.00  0.00    +0.000 A 
ATOM      8  C   UNL     1       3.486   2.358  -0.158  0.00  0.00    +0.000 A 
ATOM      9  C   UNL     1       2.963   2.318  -1.437  0.00  0.00    +0.000 A 
ATOM     10  C   UNL     1       1.865   1.524  -1.710  0.00  0.00    +0.004 A 
ENDBRANCH   4   5
BRANCH   4  12
ATOM     11  C   UNL     1      -1.478   1.802  -0.508  0.00  0.00    +0.005 C 
ATOM     12  C   UNL     1      -1.095   0.369  -0.136  0.00  0.00    +0.014 C 
ENDBRANCH   4  12
ENDBRANCH   1   4
BRANCH   3  13
ATOM     13  C   UNL     1      -1.657  -2.171  -1.806  0.00  0.00    +0.183 C 
BRANCH  13  14
ATOM     14  C   UNL     1      -2.858  -2.658  -1.036  0.00  0.00    +0.122 A 
ATOM     15  C   UNL     1      -3.431  -2.032   0.007  0.00  0.00    +0.046 A 
ATOM     16  C   UNL     1      -4.519  -2.835   0.419  0.00  0.00    +0.045 A 
ATOM     17  C   UNL     1      -4.546  -3.904  -0.397  0.00  0.00    +0.102 A 
ATOM     18  O   UNL     1      -3.541  -3.789  -1.280  0.00  0.00    -0.463 OA
ATOM     19  C   UNL     1      -5.538  -5.036  -0.334  0.00  0.00    +0.086 C 
ENDBRANCH  13  14
ENDBRANCH   3  13
BRANCH   3  20
ATOM     20  C   UNL     1      -0.135  -3.898  -0.738  0.00  0.00    +0.185 C 
BRANCH  20  21
ATOM     21  C   UNL     1      -0.171  -4.729  -1.995  0.00  0.00    +0.239 C 
ATOM     22  O   UNL     1      -0.388  -4.200  -3.065  0.00  0.00    -0.273 OA
ATOM     23  N   UNL     1       0.036  -6.059  -1.930  0.00  0.00    -0.294 N 
ATOM     24  H   UNL     1       0.209  -6.481  -1.074  0.00  0.00    +0.150 HD
BRANCH  23  25
ATOM     25  C   UNL     1       0.001  -6.866  -3.152  0.00  0.00    +0.278 C 
BRANCH  25  26
ATOM     26  S   UNL     1       1.686  -7.072  -3.790  0.00  0.00    +0.013 S 
ATOM     27  O   UNL     1       1.676  -7.906  -4.941  0.00  0.00    -0.168 OA
ATOM     28  O   UNL     1       2.358  -5.819  -3.809  0.00  0.00    -0.168 OA
BRANCH  26  29
ATOM     29  C   UNL     1       2.525  -8.013  -2.560  0.00  0.00    +0.090 A 
ATOM     30  C   UNL     1       3.180  -7.371  -1.526  0.00  0.00    +0.027 A 
ATOM     31  C   UNL     1       3.838  -8.110  -0.560  0.00  0.00    +0.005 A 
ATOM     32  C   UNL     1       3.841  -9.491  -0.629  0.00  0.00    -0.050 A 
ATOM     33  C   UNL     1       3.185 -10.133  -1.662  0.00  0.00    +0.005 A 
ATOM     34  C   UNL     1       2.523  -9.394  -2.625  0.00  0.00    +0.027 A 
ATOM     35  C   UNL     1       4.559 -10.296   0.423  0.00  0.00    +0.044 C 
ENDBRANCH  26  29
ENDBRANCH  25  26
ENDBRANCH  23  25
ENDBRANCH  20  21
BRANCH  20  36
ATOM     36  C   UNL     1      -1.159  -4.417   0.237  0.00  0.00    +0.000 C 
ATOM     37  C   UNL     1      -0.802  -4.730   1.458  0.00  0.00    -0.032 C 
ATOM     38  C   UNL     1       0.634  -4.571   1.887  0.00  0.00    +0.035 C 
ENDBRANCH  20  36
ENDBRANCH   3  20
TORSDOF 11
