REMARK  Name = ZINC30147808
REMARK  10 active torsions:
REMARK  status: ('A' for Active; 'I' for Inactive)
REMARK    1  A    between atoms: C_1  and  C_2
REMARK    2  A    between atoms: C_2  and  O_3
REMARK    3  A    between atoms: O_3  and  C_4
REMARK    4  A    between atoms: C_4  and  C_6
REMARK    5  A    between atoms: C_7  and  N_17
REMARK    6  A    between atoms: C_9  and  C_11
REMARK    7  A    between atoms: C_18  and  C_20
REMARK    8  A    between atoms: C_20  and  C_22
REMARK    9  A    between atoms: C_20  and  N_23
REMARK   10  A    between atoms: C_29  and  C_31
REMARK                            x       y       z     vdW  Elec       q    Type
REMARK                         _______ _______ _______ _____ _____    ______ ____
ROOT
ATOM      1  N   UNL     1       1.720   3.481   0.360  0.00  0.00    -0.286 N 
ATOM      2  C   UNL     1       3.015   3.762   0.111  0.00  0.00    +0.203 C 
ATOM      3  O   UNL     1       3.811   2.862  -0.051  0.00  0.00    -0.277 OA
ATOM      4  H   UNL     1       0.985   4.295   0.437  0.00  0.00    +0.155 HD
ENDROOT
BRANCH   1   6
ATOM      5  C   UNL     1       0.182   1.841   1.274  0.00  0.00    +0.118 A 
ATOM      6  C   UNL     1       1.312   2.156   0.519  0.00  0.00    +0.055 A 
ATOM      7  C   UNL     1       2.013   1.129  -0.064  0.00  0.00    +0.040 A 
ATOM      8  C   UNL     1       1.571  -0.169   0.121  0.00  0.00    +0.022 A 
ATOM      9  S   UNL     1       0.128   0.061   1.145  0.00  0.00    -0.080 S 
BRANCH   8  10
ATOM     10  C   UNL     1       2.149  -1.427  -0.396  0.00  0.00    -0.011 A 
ATOM     11  C   UNL     1       3.293  -1.396  -1.195  0.00  0.00    +0.009 A 
ATOM     12  C   UNL     1       3.830  -2.575  -1.670  0.00  0.00    +0.001 A 
ATOM     13  C   UNL     1       3.230  -3.784  -1.367  0.00  0.00    +0.000 A 
ATOM     14  C   UNL     1       2.092  -3.821  -0.581  0.00  0.00    +0.001 A 
ATOM     15  C   UNL     1       1.549  -2.650  -0.094  0.00  0.00    +0.009 A 
ENDBRANCH   8  10
BRANCH   5  16
ATOM     16  C   UNL     1      -0.698   2.709   1.960  0.00  0.00    +0.348 C 
ATOM     17  O   UNL     1      -0.506   3.911   1.940  0.00  0.00    -0.244 OA
BRANCH  16  18
ATOM     18  O   UNL     1      -1.751   2.206   2.638  0.00  0.00    -0.461 OA
BRANCH  18  20
ATOM     19  C   UNL     1      -3.728   2.389   4.016  0.00  0.00    +0.048 C 
ATOM     20  C   UNL     1      -2.599   3.141   3.308  0.00  0.00    +0.229 C 
ENDBRANCH  18  20
ENDBRANCH  16  18
ENDBRANCH   5  16
ENDBRANCH   1   6
BRANCH   2  21
ATOM     21  C   UNL     1       3.473   5.196   0.035  0.00  0.00    +0.017 C 
ATOM     22  C   UNL     1       2.966   5.825  -1.264  0.00  0.00    -0.004 C 
BRANCH  21  23
ATOM     23  N   UNL     1       4.941   5.243   0.061  0.00  0.00    +0.389 N 
ATOM     24  C   UNL     1       5.419   6.598   0.367  0.00  0.00    -0.058 C 
ATOM     25  C   UNL     1       6.938   6.568   0.564  0.00  0.00    +0.089 C 
ATOM     26  N   UNL     1       7.550   5.945  -0.619  0.00  0.00    -0.299 N 
ATOM     27  C   UNL     1       7.029   4.645  -1.070  0.00  0.00    +0.089 C 
ATOM     28  C   UNL     1       5.506   4.751  -1.202  0.00  0.00    -0.058 C 
ATOM     29  C   UNL     1       8.562   6.548  -1.274  0.00  0.00    +0.282 C 
ATOM     30  O   UNL     1       8.979   6.078  -2.316  0.00  0.00    -0.267 OA
ATOM     31  H   UNL     1       5.288   4.577   0.865  0.00  0.00    -0.081 HD
BRANCH  29  32
ATOM     32  C   UNL     1       9.161   7.772  -0.729  0.00  0.00    +0.189 A 
ATOM     33  C   UNL     1      10.088   8.557  -1.352  0.00  0.00    +0.054 A 
ATOM     34  C   UNL     1      10.377   9.614  -0.475  0.00  0.00    +0.042 A 
ATOM     35  C   UNL     1       9.623   9.430   0.631  0.00  0.00    +0.196 A 
ATOM     36  O   UNL     1       8.887   8.322   0.472  0.00  0.00    -0.458 OA
ENDBRANCH  29  32
ENDBRANCH  21  23
ENDBRANCH   2  21
TORSDOF 8
