REMARK  Name = ZINC16553125
REMARK  15 active torsions:
REMARK  status: ('A' for Active; 'I' for Inactive)
REMARK    1  A    between atoms: C_1  and  C_2
REMARK    2  A    between atoms: C_2  and  C_3
REMARK    3  A    between atoms: C_2  and  C_4
REMARK    4  A    between atoms: C_4  and  N_5
REMARK    5  A    between atoms: C_6  and  N_33
REMARK    6  A    between atoms: C_7  and  N_14
REMARK    7  A    between atoms: N_14  and  C_15
REMARK    8  A    between atoms: C_15  and  C_16
REMARK    9  A    between atoms: C_16  and  C_17
REMARK   10  A    between atoms: C_16  and  C_18
REMARK   11  A    between atoms: C_19  and  C_21
REMARK   12  A    between atoms: C_21  and  S_22
REMARK   13  A    between atoms: S_22  and  C_23
REMARK   14  A    between atoms: C_26  and  N_29
REMARK   15  A    between atoms: C_30  and  C_32
REMARK                            x       y       z     vdW  Elec       q    Type
REMARK                         _______ _______ _______ _____ _____    ______ ____
ROOT
ATOM      1  N   UNL     1       2.041  10.956  -0.309  0.00  0.00    -0.263 N 
ATOM      2  C   UNL     1       0.801  10.442  -0.167  0.00  0.00    +0.230 C 
ATOM      3  O   UNL     1       0.622   9.248  -0.288  0.00  0.00    -0.274 OA
ENDROOT
BRANCH   1   6
ATOM      4  N   UNL     1       3.182  14.283   0.754  0.00  0.00    -0.280 N 
ATOM      5  C   UNL     1       3.010  12.918   0.732  0.00  0.00    +0.127 A 
ATOM      6  C   UNL     1       2.235  12.352  -0.259  0.00  0.00    +0.140 A 
ATOM      7  C   UNL     1       1.647  13.192  -1.223  0.00  0.00    +0.277 A 
ATOM      8  O   UNL     1       0.961  12.718  -2.113  0.00  0.00    -0.266 OA
ATOM      9  N   UNL     1       1.841  14.523  -1.153  0.00  0.00    -0.273 N 
ATOM     10  H   UNL     1       1.416  15.121  -1.833  0.00  0.00    +0.173 HD
ATOM     11  C   UNL     1       2.600  15.057  -0.180  0.00  0.00    +0.331 A 
ATOM     12  O   UNL     1       2.763  16.261  -0.142  0.00  0.00    -0.246 OA
BRANCH   5  13
ATOM     13  N   UNL     1       3.604  12.127   1.687  0.00  0.00    -0.343 N 
ATOM     14  H   UNL     1       3.535  11.162   1.628  0.00  0.00    +0.144 HD
ATOM     15  H   UNL     1       4.093  12.535   2.419  0.00  0.00    +0.144 HD
ENDBRANCH   5  13
BRANCH   4  16
ATOM     16  C   UNL     1       4.003  14.897   1.801  0.00  0.00    +0.131 C 
BRANCH  16  18
ATOM     17  C   UNL     1       6.289  15.730   2.367  0.00  0.00    +0.009 C 
ATOM     18  C   UNL     1       5.455  14.978   1.328  0.00  0.00    +0.003 C 
ATOM     19  C   UNL     1       6.014  13.564   1.152  0.00  0.00    +0.009 C 
ENDBRANCH  16  18
ENDBRANCH   4  16
ENDBRANCH   1   6
BRANCH   1  20
ATOM     20  C   UNL     1       3.184  10.064  -0.515  0.00  0.00    +0.117 C 
BRANCH  20  21
ATOM     21  C   UNL     1       3.484   9.956  -2.011  0.00  0.00    +0.001 C 
ATOM     22  C   UNL     1       4.753   9.127  -2.218  0.00  0.00    +0.009 C 
ATOM     23  C   UNL     1       2.310   9.276  -2.718  0.00  0.00    +0.009 C 
ENDBRANCH  20  21
ENDBRANCH   1  20
BRANCH   2  24
ATOM     24  C   UNL     1      -0.361  11.351   0.142  0.00  0.00    +0.170 C 
BRANCH  24  25
ATOM     25  S   UNL     1      -1.850  10.354   0.423  0.00  0.00    -0.116 S 
BRANCH  25  26
ATOM     26  C   UNL     1      -3.102  11.546   0.767  0.00  0.00    +0.008 A 
ATOM     27  C   UNL     1      -4.400  11.131   1.037  0.00  0.00    +0.016 A 
ATOM     28  C   UNL     1      -5.380  12.065   1.307  0.00  0.00    +0.024 A 
ATOM     29  C   UNL     1      -5.069  13.418   1.309  0.00  0.00    +0.033 A 
ATOM     30  C   UNL     1      -3.772  13.833   1.035  0.00  0.00    +0.024 A 
ATOM     31  C   UNL     1      -2.790  12.900   0.769  0.00  0.00    +0.016 A 
BRANCH  29  32
ATOM     32  N   UNL     1      -6.064  14.366   1.583  0.00  0.00    -0.286 N 
ATOM     33  C   UNL     1      -5.745  15.518   2.205  0.00  0.00    +0.214 C 
ATOM     34  O   UNL     1      -4.618  15.692   2.619  0.00  0.00    -0.276 OA
ATOM     35  C   UNL     1      -6.789  16.589   2.390  0.00  0.00    +0.109 C 
ATOM     36  H   UNL     1      -6.983  14.193   1.325  0.00  0.00    +0.155 HD
ENDBRANCH  29  32
ENDBRANCH  25  26
ENDBRANCH  24  25
ENDBRANCH   2  24
TORSDOF 10
