REMARK  Name = ZINC66365986
REMARK  9 active torsions:
REMARK  status: ('A' for Active; 'I' for Inactive)
REMARK    1  A    between atoms: C_1  and  C_2
REMARK    2  A    between atoms: C_2  and  C_3
REMARK    3  A    between atoms: C_3  and  C_5
REMARK    4  A    between atoms: C_3  and  N_8
REMARK    5  A    between atoms: C_5  and  C_6
REMARK    6  A    between atoms: C_5  and  C_7
REMARK    7  A    between atoms: N_11  and  C_12
REMARK    8  A    between atoms: C_16  and  S_18
REMARK    9  A    between atoms: S_18  and  N_21
REMARK                            x       y       z     vdW  Elec       q    Type
REMARK                         _______ _______ _______ _____ _____    ______ ____
ROOT
ATOM      1  C   UNL     1      -5.412   0.324   2.629  0.00  0.00    +0.037 A 
ATOM      2  C   UNL     1      -6.225  -0.009   1.553  0.00  0.00    +0.023 A 
ATOM      3  C   UNL     1      -7.599   0.026   1.690  0.00  0.00    +0.004 A 
ATOM      4  C   UNL     1      -8.165   0.393   2.897  0.00  0.00    +0.029 A 
ATOM      5  C   UNL     1      -7.359   0.725   3.970  0.00  0.00    +0.114 A 
ATOM      6  C   UNL     1      -5.984   0.686   3.841  0.00  0.00    +0.052 A 
ENDROOT
BRANCH   1  10
ATOM      7  N   UNL     1      -1.911   1.063   3.128  0.00  0.00    -0.296 N 
ATOM      8  C   UNL     1      -3.254   1.164   3.174  0.00  0.00    +0.304 C 
ATOM      9  O   UNL     1      -3.775   2.046   3.829  0.00  0.00    -0.253 OA
ATOM     10  N   UNL     1      -4.020   0.289   2.493  0.00  0.00    -0.269 N 
ATOM     11  H   UNL     1      -1.495   0.359   2.605  0.00  0.00    +0.151 HD
ATOM     12  H   UNL     1      -3.606  -0.366   1.909  0.00  0.00    +0.156 HD
BRANCH   7  13
ATOM     13  C   UNL     1      -1.079   2.015   3.868  0.00  0.00    +0.077 C 
BRANCH  13  14
ATOM     14  C   UNL     1      -0.866   3.271   3.021  0.00  0.00    +0.003 C 
ATOM     15  C   UNL     1      -2.220   3.912   2.711  0.00  0.00    +0.009 C 
ATOM     16  C   UNL     1       0.003   4.266   3.794  0.00  0.00    +0.009 C 
ENDBRANCH  13  14
BRANCH  13  18
ATOM     17  C   UNL     1       0.074   0.190   5.127  0.00  0.00    +0.006 C 
ATOM     18  C   UNL     1       0.276   1.374   4.178  0.00  0.00    +0.019 C 
ENDBRANCH  13  18
ENDBRANCH   7  13
ENDBRANCH   1  10
BRANCH   5  19
ATOM     19  S   UNL     1      -8.086   1.193   5.506  0.00  0.00    +0.100 S 
ATOM     20  O   UNL     1      -7.121   1.982   6.188  0.00  0.00    -0.146 OA
ATOM     21  O   UNL     1      -9.390   1.672   5.209  0.00  0.00    -0.146 OA
BRANCH  19  22
ATOM     22  N   UNL     1      -8.281  -0.190   6.396  0.00  0.00    -0.118 NA
ATOM     23  C   UNL     1      -8.800  -0.129   7.579  0.00  0.00    +0.117 C 
ATOM     24  C   UNL     1      -8.976  -1.402   8.404  0.00  0.00    +0.073 C 
ATOM     25  C   UNL     1      -7.996  -1.329   9.556  0.00  0.00    +0.008 C 
ATOM     26  C   UNL     1      -8.558  -0.620  10.790  0.00  0.00    +0.002 C 
ATOM     27  C   UNL     1      -9.343   0.646  10.448  0.00  0.00    +0.019 C 
ATOM     28  C   UNL     1      -8.674   1.496   9.389  0.00  0.00    +0.102 C 
ATOM     29  N   UNL     1      -9.174   1.033   8.078  0.00  0.00    -0.331 N 
ATOM     30  H   UNL     1      -9.789   1.593   7.579  0.00  0.00    +0.147 HD
ENDBRANCH  19  22
ENDBRANCH   5  19
TORSDOF 6
