REMARK  Name = ZINC43111668
REMARK  7 active torsions:
REMARK  status: ('A' for Active; 'I' for Inactive)
REMARK    1  A    between atoms: C_1  and  C_2
REMARK    2  A    between atoms: C_2  and  N_3
REMARK    3  A    between atoms: C_4  and  C_6
REMARK    4  A    between atoms: C_6  and  N_7
REMARK    5  A    between atoms: N_15  and  C_16
REMARK    6  A    between atoms: C_16  and  C_17
REMARK    7  A    between atoms: C_17  and  N_23
REMARK                            x       y       z     vdW  Elec       q    Type
REMARK                         _______ _______ _______ _____ _____    ______ ____
ROOT
ATOM      1  N   UNL     1       0.132  -5.044   2.474  0.00  0.00    -0.291 NA
ATOM      2  C   UNL     1       0.414  -5.771   3.719  0.00  0.00    +0.104 C 
ATOM      3  C   UNL     1       1.927  -5.807   3.954  0.00  0.00    +0.124 C 
ATOM      4  N   UNL     1       2.574  -6.357   2.753  0.00  0.00    -0.283 N 
ATOM      5  C   UNL     1       2.235  -5.768   1.449  0.00  0.00    +0.124 C 
ATOM      6  C   UNL     1       0.709  -5.734   1.312  0.00  0.00    +0.104 C 
ATOM      7  C   UNL     1       3.454  -7.374   2.845  0.00  0.00    +0.302 C 
ATOM      8  O   UNL     1       3.901  -7.885   1.837  0.00  0.00    -0.253 OA
ATOM      9  N   UNL     1       3.839  -7.824   4.056  0.00  0.00    -0.301 N 
ATOM     10  H   UNL     1       3.430  -7.466   4.859  0.00  0.00    +0.150 HD
ENDROOT
BRANCH   1  11
ATOM     11  C   UNL     1      -1.312  -4.838   2.300  0.00  0.00    +0.180 C 
BRANCH  11  13
ATOM     12  N   UNL     1      -3.128  -3.588   3.422  0.00  0.00    -0.315 N 
ATOM     13  C   UNL     1      -1.822  -3.921   3.382  0.00  0.00    +0.227 C 
ATOM     14  O   UNL     1      -1.058  -3.483   4.216  0.00  0.00    -0.274 OA
ATOM     15  H   UNL     1      -3.739  -3.938   2.756  0.00  0.00    +0.149 HD
BRANCH  12  17
ATOM     16  C   UNL     1      -5.128  -2.482   4.293  0.00  0.00    +0.024 C 
ATOM     17  C   UNL     1      -3.624  -2.697   4.474  0.00  0.00    +0.101 C 
ENDBRANCH  12  17
ENDBRANCH  11  13
ENDBRANCH   1  11
BRANCH   9  18
ATOM     18  C   UNL     1       4.875  -8.855   4.159  0.00  0.00    +0.094 C 
BRANCH  18  19
ATOM     19  C   UNL     1       5.035  -9.273   5.622  0.00  0.00    -0.050 C 
ATOM     20  C   UNL     1       3.715  -9.855   6.133  0.00  0.00    -0.010 C 
ATOM     21  C   UNL     1       3.337 -11.076   5.291  0.00  0.00    -0.001 C 
ATOM     22  C   UNL     1       4.437 -12.133   5.402  0.00  0.00    -0.000 C 
ATOM     23  C   UNL     1       5.757 -11.551   4.891  0.00  0.00    -0.001 C 
ATOM     24  C   UNL     1       6.135 -10.330   5.733  0.00  0.00    -0.010 C 
BRANCH  19  25
ATOM     25  N   UNL     1       5.398  -8.101   6.430  0.00  0.00    +0.384 N 
ATOM     26  C   UNL     1       5.643  -8.520   7.815  0.00  0.00    -0.078 C 
ATOM     27  C   UNL     1       5.942  -7.293   8.678  0.00  0.00    -0.019 C 
ATOM     28  C   UNL     1       7.184  -6.582   8.131  0.00  0.00    -0.004 C 
ATOM     29  C   UNL     1       6.945  -6.215   6.663  0.00  0.00    -0.019 C 
ATOM     30  C   UNL     1       6.608  -7.483   5.875  0.00  0.00    -0.078 C 
ATOM     31  H   UNL     1       4.642  -7.434   6.411  0.00  0.00    -0.081 HD
ENDBRANCH  19  25
ENDBRANCH  18  19
ENDBRANCH   9  18
TORSDOF 6
