REMARK  Name = ZINC09632216
REMARK  8 active torsions:
REMARK  status: ('A' for Active; 'I' for Inactive)
REMARK    1  A    between atoms: C_1  and  C_2
REMARK    2  A    between atoms: C_2  and  N_3
REMARK    3  A    between atoms: C_7  and  C_9
REMARK    4  A    between atoms: C_9  and  C_11
REMARK    5  A    between atoms: C_9  and  S_12
REMARK    6  A    between atoms: S_12  and  C_13
REMARK    7  A    between atoms: C_16  and  C_24
REMARK    8  A    between atoms: N_17  and  C_18
REMARK                            x       y       z     vdW  Elec       q    Type
REMARK                         _______ _______ _______ _____ _____    ______ ____
ROOT
ATOM      1  C   UNL     1       4.601   0.582  -0.197  0.00  0.00    +0.197 A 
ATOM      2  N   UNL     1       3.916  -0.487   0.144  0.00  0.00    -0.122 NA
ATOM      3  N   UNL     1       2.669  -0.196   0.256  0.00  0.00    -0.128 NA
ATOM      4  C   UNL     1       2.478   1.075  -0.015  0.00  0.00    +0.169 A 
ATOM      5  N   UNL     1       3.711   1.614  -0.310  0.00  0.00    -0.270 N 
ENDROOT
BRANCH   4   6
ATOM      6  C   UNL     1       1.186   1.792   0.000  0.00  0.00    +0.020 A 
ATOM      7  C   UNL     1      -0.013   1.076   0.008  0.00  0.00    +0.013 A 
ATOM      8  C   UNL     1      -1.216   1.751   0.017  0.00  0.00    +0.021 A 
ATOM      9  C   UNL     1      -1.236   3.135   0.029  0.00  0.00    +0.041 A 
ATOM     10  C   UNL     1      -0.050   3.851   0.022  0.00  0.00    +0.021 A 
ATOM     11  C   UNL     1       1.159   3.187   0.008  0.00  0.00    +0.013 A 
ATOM     12 CL   UNL     1      -2.754   3.977   0.046  0.00  0.00    -0.084 Cl
ENDBRANCH   4   6
BRANCH   5  13
ATOM     13  C   UNL     1       3.994   2.943  -0.654  0.00  0.00    +0.051 A 
ATOM     14  C   UNL     1       3.500   3.476  -1.838  0.00  0.00    +0.026 A 
ATOM     15  C   UNL     1       3.777   4.787  -2.172  0.00  0.00    +0.002 A 
ATOM     16  C   UNL     1       4.554   5.566  -1.335  0.00  0.00    +0.000 A 
ATOM     17  C   UNL     1       5.051   5.037  -0.158  0.00  0.00    +0.002 A 
ATOM     18  C   UNL     1       4.774   3.728   0.184  0.00  0.00    +0.026 A 
ENDBRANCH   5  13
BRANCH   1  19
ATOM     19  S   UNL     1       6.342   0.668  -0.458  0.00  0.00    -0.073 S 
BRANCH  19  20
ATOM     20  C   UNL     1       6.795  -1.053  -0.127  0.00  0.00    +0.137 C 
ATOM     21  C   UNL     1       6.513  -1.381   1.341  0.00  0.00    +0.029 C 
BRANCH  20  26
ATOM     22  N   UNL     1      10.504  -3.875  -1.306  0.00  0.00    -0.299 N 
ATOM     23  C   UNL     1      10.039  -2.651  -0.987  0.00  0.00    +0.306 C 
ATOM     24  O   UNL     1      10.801  -1.706  -0.931  0.00  0.00    -0.252 OA
ATOM     25  N   UNL     1       8.727  -2.474  -0.731  0.00  0.00    -0.239 N 
ATOM     26  C   UNL     1       8.261  -1.250  -0.413  0.00  0.00    +0.233 C 
ATOM     27  O   UNL     1       9.022  -0.308  -0.357  0.00  0.00    -0.274 OA
ATOM     28  H   UNL     1       9.896  -4.629  -1.350  0.00  0.00    +0.150 HD
ATOM     29  H   UNL     1       8.118  -3.228  -0.776  0.00  0.00    +0.159 HD
BRANCH  22  31
ATOM     30  C   UNL     1      12.191  -5.537  -1.916  0.00  0.00    +0.024 C 
ATOM     31  C   UNL     1      11.930  -4.066  -1.584  0.00  0.00    +0.102 C 
ENDBRANCH  22  31
ENDBRANCH  20  26
ENDBRANCH  19  20
ENDBRANCH   1  19
TORSDOF 6
