REMARK  Name = ZINC01973552
REMARK  14 active torsions:
REMARK  status: ('A' for Active; 'I' for Inactive)
REMARK    1  A    between atoms: C_1  and  C_2
REMARK    2  A    between atoms: C_2  and  C_3
REMARK    3  A    between atoms: C_3  and  C_5
REMARK    4  A    between atoms: C_3  and  N_6
REMARK    5  A    between atoms: C_12  and  C_17
REMARK    6  A    between atoms: C_17  and  O_19
REMARK    7  A    between atoms: O_19  and  C_20
REMARK    8  A    between atoms: C_20  and  C_21
REMARK    9  A    between atoms: N_23  and  C_24
REMARK   10  A    between atoms: C_25  and  C_35
REMARK   11  A    between atoms: C_30  and  C_34
REMARK   12  A    between atoms: C_35  and  O_37
REMARK   13  A    between atoms: O_37  and  C_38
REMARK   14  A    between atoms: C_38  and  C_39
REMARK                            x       y       z     vdW  Elec       q    Type
REMARK                         _______ _______ _______ _____ _____    ______ ____
ROOT
ATOM      1  C   UNL     1      -1.810  -1.001  -4.924  0.00  0.00    +0.328 C 
ENDROOT
BRANCH   1   2
ATOM      2  C   UNL     1      -2.243  -1.282  -3.508  0.00  0.00    +0.255 C 
ATOM      3  O   UNL     1      -3.268  -1.896  -3.298  0.00  0.00    -0.272 OA
ATOM      4  N   UNL     1      -1.491  -0.852  -2.475  0.00  0.00    -0.277 N 
ATOM      5  H   UNL     1      -0.671  -0.361  -2.643  0.00  0.00    +0.155 HD
BRANCH   4   6
ATOM      6  C   UNL     1      -1.889  -1.111  -1.173  0.00  0.00    +0.086 A 
ATOM      7  C   UNL     1      -1.256  -0.753   0.010  0.00  0.00    +0.091 A 
ATOM      8  C   UNL     1      -1.892  -1.146   1.257  0.00  0.00    -0.021 A 
ATOM      9  C   UNL     1      -3.047  -1.832   1.122  0.00  0.00    -0.004 A 
ATOM     10  S   UNL     1      -3.296  -1.961  -0.626  0.00  0.00    -0.077 S 
ATOM     11  C   UNL     1      -3.916  -2.363   2.220  0.00  0.00    +0.046 C 
ATOM     12  C   UNL     1      -3.111  -2.340   3.528  0.00  0.00    -0.009 C 
ATOM     13  C   UNL     1      -2.442  -0.970   3.671  0.00  0.00    +0.008 C 
ATOM     14  C   UNL     1      -1.327  -0.824   2.634  0.00  0.00    +0.037 C 
ATOM     15  C   UNL     1      -4.048  -2.583   4.712  0.00  0.00    +0.008 C 
BRANCH   7  16
ATOM     16  C   UNL     1       0.002  -0.004   0.002  0.00  0.00    +0.342 C 
ATOM     17  O   UNL     1       1.064  -0.598  -0.011  0.00  0.00    -0.245 OA
BRANCH  16  18
ATOM     18  O   UNL     1      -0.016   1.345   0.009  0.00  0.00    -0.461 OA
BRANCH  18  19
ATOM     19  C   UNL     1       1.268   2.021   0.001  0.00  0.00    +0.229 C 
ATOM     20  C   UNL     1       1.047   3.535   0.011  0.00  0.00    +0.048 C 
ENDBRANCH  18  19
ENDBRANCH  16  18
ENDBRANCH   7  16
ENDBRANCH   4   6
ENDBRANCH   1   2
BRANCH   1  21
ATOM     21  O   UNL     1      -2.780  -1.563  -5.847  0.00  0.00    -0.452 OA
BRANCH  21  22
ATOM     22  C   UNL     1      -2.539  -1.398  -7.162  0.00  0.00    +0.340 C 
ATOM     23  O   UNL     1      -1.546  -0.801  -7.527  0.00  0.00    -0.245 OA
BRANCH  22  30
ATOM     24  N   UNL     1      -5.286  -2.946 -12.317  0.00  0.00    -0.231 N 
ATOM     25  C   UNL     1      -5.986  -3.381 -11.254  0.00  0.00    +0.254 C 
ATOM     26  O   UNL     1      -7.028  -4.001 -11.297  0.00  0.00    -0.270 OA
ATOM     27  C   UNL     1      -5.271  -2.976 -10.022  0.00  0.00    +0.049 A 
ATOM     28  C   UNL     1      -5.513  -3.143  -8.668  0.00  0.00    +0.014 A 
ATOM     29  C   UNL     1      -4.623  -2.629  -7.739  0.00  0.00    +0.016 A 
ATOM     30  C   UNL     1      -3.484  -1.943  -8.161  0.00  0.00    +0.060 A 
ATOM     31  C   UNL     1      -3.235  -1.766  -9.525  0.00  0.00    +0.028 A 
ATOM     32  C   UNL     1      -4.121  -2.284 -10.455  0.00  0.00    +0.050 A 
ATOM     33  C   UNL     1      -4.176  -2.291 -11.932  0.00  0.00    +0.254 C 
ATOM     34  O   UNL     1      -3.355  -1.790 -12.674  0.00  0.00    -0.270 OA
BRANCH  24  35
ATOM     35  C   UNL     1      -5.681  -3.158 -13.712  0.00  0.00    +0.081 C 
ATOM     36  C   UNL     1      -7.046  -2.512 -13.959  0.00  0.00    +0.028 C 
BRANCH  35  38
ATOM     37  C   UNL     1      -4.377  -5.283 -13.869  0.00  0.00    +0.006 C 
ATOM     38  C   UNL     1      -5.768  -4.659 -13.995  0.00  0.00    +0.019 C 
ENDBRANCH  35  38
ENDBRANCH  24  35
ENDBRANCH  22  30
ENDBRANCH  21  22
ENDBRANCH   1  21
TORSDOF 10
