REMARK  Name = ZINC03426294
REMARK  11 active torsions:
REMARK  status: ('A' for Active; 'I' for Inactive)
REMARK    1  A    between atoms: C_1  and  C_2
REMARK    2  A    between atoms: C_2  and  N_3
REMARK    3  A    between atoms: N_3  and  C_4
REMARK    4  A    between atoms: N_3  and  S_6
REMARK    5  A    between atoms: C_4  and  C_5
REMARK    6  A    between atoms: S_6  and  C_9
REMARK    7  A    between atoms: C_13  and  C_15
REMARK    8  A    between atoms: C_18  and  S_20
REMARK    9  A    between atoms: S_20  and  C_21
REMARK   10  A    between atoms: C_21  and  C_22
REMARK   11  A    between atoms: C_22  and  C_24
REMARK                            x       y       z     vdW  Elec       q    Type
REMARK                         _______ _______ _______ _____ _____    ______ ____
ROOT
ATOM      1  C   UNL     1      -1.296   4.896  -3.655  0.00  0.00    +0.249 A 
ATOM      2  N   UNL     1      -0.454   5.810  -3.238  0.00  0.00    -0.106 NA
ATOM      3  N   UNL     1      -0.543   6.849  -3.990  0.00  0.00    -0.101 NA
ATOM      4  C   UNL     1      -1.448   6.640  -4.918  0.00  0.00    +0.278 A 
ATOM      5  O   UNL     1      -1.940   5.401  -4.731  0.00  0.00    -0.411 OA
ENDROOT
BRANCH   1  10
ATOM      6  C   UNL     1      -0.954   1.915  -1.397  0.00  0.00    +0.106 A 
ATOM      7  C   UNL     1      -1.880   1.050  -1.952  0.00  0.00    +0.028 A 
ATOM      8  C   UNL     1      -2.623   1.435  -3.053  0.00  0.00    +0.003 A 
ATOM      9  C   UNL     1      -2.437   2.683  -3.612  0.00  0.00    +0.013 A 
ATOM     10  C   UNL     1      -1.501   3.559  -3.061  0.00  0.00    +0.040 A 
ATOM     11  C   UNL     1      -0.758   3.166  -1.946  0.00  0.00    +0.041 A 
BRANCH   6  12
ATOM     12  S   UNL     1      -0.017   1.417   0.010  0.00  0.00    +0.061 S 
ATOM     13  O   UNL     1       0.002  -0.004   0.002  0.00  0.00    -0.153 OA
ATOM     14  O   UNL     1       1.172   2.195   0.003  0.00  0.00    -0.153 OA
BRANCH  12  15
ATOM     15  N   UNL     1      -0.872   1.871   1.353  0.00  0.00    -0.177 NA
BRANCH  15  17
ATOM     16  C   UNL     1      -1.183   0.170   3.083  0.00  0.00    +0.022 C 
ATOM     17  C   UNL     1      -1.846   0.952   1.947  0.00  0.00    +0.106 C 
ENDBRANCH  15  17
BRANCH  15  18
ATOM     18  C   UNL     1      -0.654   3.192   1.948  0.00  0.00    +0.106 C 
ATOM     19  C   UNL     1      -1.693   4.174   1.403  0.00  0.00    +0.022 C 
ENDBRANCH  15  18
ENDBRANCH  12  15
ENDBRANCH   6  12
ENDBRANCH   1  10
BRANCH   4  20
ATOM     20  S   UNL     1      -1.926   7.771  -6.182  0.00  0.00    -0.058 S 
BRANCH  20  21
ATOM     21  C   UNL     1      -0.843   9.165  -5.782  0.00  0.00    +0.158 C 
BRANCH  21  22
ATOM     22  C   UNL     1      -1.084  10.286  -6.761  0.00  0.00    +0.175 C 
ATOM     23  O   UNL     1      -1.907  10.154  -7.644  0.00  0.00    -0.291 OA
BRANCH  22  24
ATOM     24  C   UNL     1      -0.349  11.492  -6.652  0.00  0.00    +0.043 A 
ATOM     25  C   UNL     1       0.610  11.796  -5.709  0.00  0.00    +0.095 A 
ATOM     26  N   UNL     1       1.087  13.035  -5.931  0.00  0.00    -0.360 N 
ATOM     27  H   UNL     1       1.772  13.466  -5.397  0.00  0.00    +0.165 HD
ATOM     28  C   UNL     1       0.463  13.611  -7.020  0.00  0.00    +0.047 A 
ATOM     29  C   UNL     1      -0.460  12.680  -7.522  0.00  0.00    +0.010 A 
ATOM     30  C   UNL     1      -1.238  12.996  -8.631  0.00  0.00    +0.011 A 
ATOM     31  C   UNL     1      -1.098  14.227  -9.235  0.00  0.00    +0.001 A 
ATOM     32  C   UNL     1      -0.187  15.149  -8.740  0.00  0.00    +0.002 A 
ATOM     33  C   UNL     1       0.590  14.848  -7.642  0.00  0.00    +0.026 A 
ENDBRANCH  22  24
ENDBRANCH  21  22
ENDBRANCH  20  21
ENDBRANCH   4  20
TORSDOF 9
