REMARK  Name = ZINC09115159
REMARK  11 active torsions:
REMARK  status: ('A' for Active; 'I' for Inactive)
REMARK    1  A    between atoms: C_1  and  C_2
REMARK    2  A    between atoms: C_2  and  C_3
REMARK    3  A    between atoms: C_3  and  C_4
REMARK    4  A    between atoms: C_4  and  N_5
REMARK    5  A    between atoms: C_9  and  S_30
REMARK    6  A    between atoms: C_13  and  C_14
REMARK    7  A    between atoms: C_14  and  S_15
REMARK    8  A    between atoms: S_15  and  C_16
REMARK    9  A    between atoms: N_22  and  C_23
REMARK   10  A    between atoms: C_23  and  C_24
REMARK   11  A    between atoms: S_30  and  N_33
REMARK                            x       y       z     vdW  Elec       q    Type
REMARK                         _______ _______ _______ _____ _____    ______ ____
ROOT
ATOM      1  N   UNL     1      -7.272   5.002   2.468  0.00  0.00    -0.327 N 
ATOM      2  C   UNL     1      -7.540   6.356   2.422  0.00  0.00    +0.069 A 
ATOM      3  C   UNL     1      -8.637   7.112   2.033  0.00  0.00    +0.030 A 
ATOM      4  C   UNL     1      -8.582   8.487   2.112  0.00  0.00    +0.030 A 
ATOM      5  C   UNL     1      -7.438   9.119   2.579  0.00  0.00    +0.107 A 
ATOM      6  C   UNL     1      -6.349   8.391   2.967  0.00  0.00    +0.058 A 
ATOM      7  C   UNL     1      -6.382   6.996   2.895  0.00  0.00    +0.091 A 
ATOM      8  N   UNL     1      -5.488   6.021   3.202  0.00  0.00    -0.231 NA
ATOM      9  C   UNL     1      -6.008   4.856   2.948  0.00  0.00    +0.121 A 
ENDROOT
BRANCH   5  10
ATOM     10  S   UNL     1      -7.389  10.878   2.671  0.00  0.00    +0.056 S 
ATOM     11  O   UNL     1      -6.019  11.249   2.623  0.00  0.00    -0.153 OA
ATOM     12  O   UNL     1      -8.343  11.360   1.735  0.00  0.00    -0.153 OA
BRANCH  10  13
ATOM     13  N   UNL     1      -7.943  11.304   4.173  0.00  0.00    -0.204 NA
ATOM     14  H   UNL     1      -8.216  10.618   4.802  0.00  0.00    +0.144 HD
ATOM     15  H   UNL     1      -7.994  12.240   4.423  0.00  0.00    +0.144 HD
ENDBRANCH  10  13
ENDBRANCH   5  10
BRANCH   1  16
ATOM     16  C   UNL     1      -8.182   3.923   2.074  0.00  0.00    +0.123 C 
BRANCH  16  17
ATOM     17  C   UNL     1      -9.015   3.491   3.282  0.00  0.00    +0.021 C 
BRANCH  17  19
ATOM     18  C   UNL     1     -10.798   1.933   4.078  0.00  0.00    +0.004 C 
ATOM     19  C   UNL     1      -9.965   2.365   2.869  0.00  0.00    -0.002 C 
ENDBRANCH  17  19
ENDBRANCH  16  17
ENDBRANCH   1  16
BRANCH   9  20
ATOM     20  C   UNL     1      -5.313   3.535   3.160  0.00  0.00    +0.151 C 
BRANCH  20  21
ATOM     21  S   UNL     1      -4.423   3.073   1.654  0.00  0.00    -0.078 S 
BRANCH  21  22
ATOM     22  C   UNL     1      -3.725   1.539   2.169  0.00  0.00    +0.193 A 
ATOM     23  N   UNL     1      -3.879   0.990   3.339  0.00  0.00    -0.145 NA
ATOM     24  N   UNL     1      -3.168  -0.218   3.349  0.00  0.00    -0.226 N 
ATOM     25  H   UNL     1      -3.103  -0.840   4.090  0.00  0.00    +0.194 HD
ATOM     26  C   UNL     1      -2.595  -0.358   2.136  0.00  0.00    +0.345 A 
ATOM     27  O   UNL     1      -1.901  -1.291   1.771  0.00  0.00    -0.245 OA
ATOM     28  N   UNL     1      -2.927   0.722   1.401  0.00  0.00    -0.266 N 
BRANCH  28  29
ATOM     29  C   UNL     1      -2.514   0.980   0.019  0.00  0.00    +0.164 C 
BRANCH  29  30
ATOM     30  C   UNL     1      -1.219   1.751   0.017  0.00  0.00    -0.028 A 
ATOM     31  C   UNL     1      -0.013   1.076   0.008  0.00  0.00    +0.005 A 
ATOM     32  C   UNL     1       1.175   1.783   0.000  0.00  0.00    +0.000 A 
ATOM     33  C   UNL     1       1.156   3.165   0.008  0.00  0.00    +0.000 A 
ATOM     34  C   UNL     1      -0.050   3.840   0.022  0.00  0.00    +0.000 A 
ATOM     35  C   UNL     1      -1.238   3.133   0.030  0.00  0.00    +0.005 A 
ENDBRANCH  29  30
ENDBRANCH  28  29
ENDBRANCH  21  22
ENDBRANCH  20  21
ENDBRANCH   9  20
TORSDOF 10
