REMARK  Name = ZINC19445407
REMARK  8 active torsions:
REMARK  status: ('A' for Active; 'I' for Inactive)
REMARK    1  A    between atoms: C_1  and  C_2
REMARK    2  A    between atoms: C_2  and  C_3
REMARK    3  A    between atoms: C_2  and  C_4
REMARK    4  A    between atoms: C_4  and  C_6
REMARK    5  A    between atoms: C_4  and  N_22
REMARK    6  A    between atoms: C_13  and  C_15
REMARK    7  A    between atoms: N_22  and  C_23
REMARK    8  A    between atoms: C_23  and  C_24
REMARK                            x       y       z     vdW  Elec       q    Type
REMARK                         _______ _______ _______ _____ _____    ______ ____
ROOT
ATOM      1  C   UNL     1      -2.105   0.144   1.301  0.00  0.00    +0.009 A 
ATOM      2  C   UNL     1      -2.379  -0.555   2.426  0.00  0.00    +0.091 A 
ATOM      3  C   UNL     1      -3.013   0.083   3.511  0.00  0.00    +0.275 A 
ATOM      4  N   UNL     1      -3.344   1.386   3.422  0.00  0.00    -0.180 N 
ATOM      5  C   UNL     1      -3.065   2.085   2.284  0.00  0.00    +0.138 A 
ATOM      6  N   UNL     1      -2.438   1.462   1.221  0.00  0.00    -0.345 N 
ATOM      7  C   UNL     1      -3.504   3.361   2.471  0.00  0.00    +0.071 A 
ATOM      8  C   UNL     1      -4.061   3.439   3.749  0.00  0.00    +0.069 A 
ATOM      9  N   UNL     1      -3.967   2.263   4.318  0.00  0.00    -0.167 NA
ATOM     10  O   UNL     1      -3.262  -0.543   4.527  0.00  0.00    -0.266 OA
ATOM     11  H   UNL     1      -2.238   1.964   0.415  0.00  0.00    +0.167 HD
ENDROOT
BRANCH   8  12
ATOM     12  C   UNL     1      -4.670   4.670   4.369  0.00  0.00    +0.044 C 
ATOM     13  C   UNL     1      -5.368   5.498   3.286  0.00  0.00    +0.038 C 
ATOM     14  C   UNL     1      -5.914   6.785   3.911  0.00  0.00    +0.160 C 
ATOM     15  O   UNL     1      -4.843   7.509   4.519  0.00  0.00    -0.380 OA
ATOM     16  C   UNL     1      -4.184   6.803   5.572  0.00  0.00    +0.160 C 
ATOM     17  C   UNL     1      -3.568   5.517   5.013  0.00  0.00    +0.038 C 
ENDBRANCH   8  12
BRANCH   1  18
ATOM     18  C   UNL     1      -1.427  -0.534   0.139  0.00  0.00    -0.021 C 
BRANCH  18  20
ATOM     19  C   UNL     1       0.299   1.272   0.083  0.00  0.00    +0.006 C 
ATOM     20  C   UNL     1       0.074  -0.238   0.181  0.00  0.00    -0.026 C 
ATOM     21  C   UNL     1       0.659  -0.757   1.496  0.00  0.00    +0.006 C 
ENDBRANCH  18  20
BRANCH  18  22
ATOM     22  N   UNL     1      -1.990  -0.029  -1.120  0.00  0.00    +0.387 N 
ATOM     23  H   UNL     1      -2.992  -0.150  -1.113  0.00  0.00    -0.084 HD
ATOM     24  H   UNL     1      -1.771   0.951  -1.218  0.00  0.00    -0.084 HD
BRANCH  22  25
ATOM     25  C   UNL     1      -1.415  -0.774  -2.248  0.00  0.00    -0.043 C 
BRANCH  25  26
ATOM     26  C   UNL     1      -1.994  -0.255  -3.540  0.00  0.00    -0.026 A 
ATOM     27  C   UNL     1      -3.022  -0.940  -4.160  0.00  0.00    +0.005 A 
ATOM     28  C   UNL     1      -3.554  -0.465  -5.345  0.00  0.00    +0.003 A 
ATOM     29  C   UNL     1      -3.058   0.694  -5.911  0.00  0.00    +0.041 A 
ATOM     30  C   UNL     1      -2.029   1.381  -5.293  0.00  0.00    +0.159 A 
ATOM     31  C   UNL     1      -1.499   0.908  -4.101  0.00  0.00    +0.160 A 
ATOM     32  F   UNL     1      -0.498   1.581  -3.493  0.00  0.00    -0.202 F 
ATOM     33  F   UNL     1      -1.543   2.514  -5.846  0.00  0.00    -0.202 F 
ENDBRANCH  25  26
ENDBRANCH  22  25
ENDBRANCH  18  22
ENDBRANCH   1  18
TORSDOF 6
