REMARK  Name = ZINC30904037
REMARK  3 active torsions:
REMARK  status: ('A' for Active; 'I' for Inactive)
REMARK    1  A    between atoms: C_4  and  C_7
REMARK    2  A    between atoms: C_7  and  N_8
REMARK    3  A    between atoms: C_12  and  N_16
REMARK                            x       y       z     vdW  Elec       q    Type
REMARK                         _______ _______ _______ _____ _____    ______ ____
ROOT
ATOM      1  N   UNL     1       5.378  -3.106   3.602  0.00  0.00    -0.285 NA
ATOM      2  C   UNL     1       4.678  -4.397   3.589  0.00  0.00    +0.090 C 
ATOM      3  C   UNL     1       5.698  -5.530   3.412  0.00  0.00    +0.053 C 
ATOM      4  C   UNL     1       6.813  -5.312   4.403  0.00  0.00    -0.017 A 
ATOM      5  C   UNL     1       7.834  -6.232   4.851  0.00  0.00    +0.005 A 
ATOM      6  C   UNL     1       8.118  -7.565   4.534  0.00  0.00    +0.030 A 
ATOM      7  C   UNL     1       9.192  -8.139   5.169  0.00  0.00    +0.042 A 
ATOM      8  C   UNL     1       9.966  -7.441   6.083  0.00  0.00    +0.022 A 
ATOM      9  C   UNL     1       9.708  -6.123   6.414  0.00  0.00    +0.027 A 
ATOM     10  C   UNL     1       8.624  -5.514   5.785  0.00  0.00    +0.047 A 
ATOM     11  N   UNL     1       8.100  -4.255   5.879  0.00  0.00    -0.357 N 
ATOM     12  H   UNL     1       8.444  -3.549   6.448  0.00  0.00    +0.166 HD
ATOM     13  C   UNL     1       7.018  -4.142   5.050  0.00  0.00    +0.034 A 
ATOM     14  C   UNL     1       6.149  -2.924   4.843  0.00  0.00    +0.138 C 
ATOM     15 CL   UNL     1       9.593  -9.791   4.816  0.00  0.00    -0.084 Cl
ENDROOT
BRANCH   1  20
ATOM     16  N   UNL     1       4.152  -0.952   1.338  0.00  0.00    -0.236 N 
ATOM     17  C   UNL     1       4.915  -0.089   2.019  0.00  0.00    +0.224 C 
ATOM     18  O   UNL     1       5.323   0.972   1.597  0.00  0.00    -0.275 OA
ATOM     19  C   UNL     1       5.185  -0.645   3.400  0.00  0.00    +0.124 C 
ATOM     20  C   UNL     1       4.439  -1.995   3.398  0.00  0.00    +0.153 C 
ATOM     21  C   UNL     1       3.820  -2.056   2.019  0.00  0.00    +0.240 C 
ATOM     22  O   UNL     1       3.135  -2.963   1.597  0.00  0.00    -0.273 OA
BRANCH  16  23
ATOM     23  C   UNL     1       3.711  -0.707  -0.038  0.00  0.00    +0.151 C 
BRANCH  23  27
ATOM     24  C   UNL     1      -0.017   1.378   0.010  0.00  0.00    +0.000 A 
ATOM     25  C   UNL     1       1.171   2.086   0.002  0.00  0.00    +0.000 A 
ATOM     26  C   UNL     1       2.377   1.411  -0.013  0.00  0.00    +0.005 A 
ATOM     27  C   UNL     1       2.396   0.029  -0.020  0.00  0.00    -0.030 A 
ATOM     28  C   UNL     1       1.208  -0.679  -0.012  0.00  0.00    +0.005 A 
ATOM     29  C   UNL     1       0.002  -0.004   0.002  0.00  0.00    +0.000 A 
ENDBRANCH  23  27
ENDBRANCH  16  23
ENDBRANCH   1  20
TORSDOF 3
