REMARK  Name = ZINC53629513
REMARK  6 active torsions:
REMARK  status: ('A' for Active; 'I' for Inactive)
REMARK    1  A    between atoms: C_1  and  C_2
REMARK    2  A    between atoms: C_13  and  C_15
REMARK    3  A    between atoms: C_15  and  C_16
REMARK    4  A    between atoms: N_18  and  C_19
REMARK    5  A    between atoms: C_19  and  C_20
REMARK    6  A    between atoms: C_20  and  C_21
REMARK                            x       y       z     vdW  Elec       q    Type
REMARK                         _______ _______ _______ _____ _____    ______ ____
ROOT
ATOM      1  C   UNL     1      -0.019   1.526   0.010  0.00  0.00    +0.013 C 
ATOM      2  C   UNL     1       0.002  -0.004   0.002  0.00  0.00    +0.034 C 
ATOM      3  C   UNL     1       0.705  -0.489  -1.241  0.00  0.00    -0.001 A 
ATOM      4  C   UNL     1       0.479   0.180  -2.432  0.00  0.00    +0.014 A 
ATOM      5  C   UNL     1       1.098  -0.228  -3.600  0.00  0.00    -0.005 A 
ATOM      6  C   UNL     1       1.953  -1.317  -3.582  0.00  0.00    +0.128 A 
ATOM      7  C   UNL     1       2.179  -1.992  -2.390  0.00  0.00    +0.092 A 
ATOM      8  C   UNL     1       1.560  -1.577  -1.218  0.00  0.00    +0.139 A 
ATOM      9  O   UNL     1       1.829  -2.255  -0.069  0.00  0.00    -0.425 OA
ATOM     10  C   UNL     1       1.079  -1.969   1.014  0.00  0.00    +0.316 C 
ATOM     11  O   UNL     1       0.697  -2.835   1.765  0.00  0.00    -0.250 OA
ATOM     12  C   UNL     1       0.740  -0.510   1.245  0.00  0.00    +0.114 C 
ATOM     13  O   UNL     1       2.592  -1.744  -4.702  0.00  0.00    -0.485 OA
ATOM     14  C   UNL     1       2.107  -1.294  -5.965  0.00  0.00    +0.111 C 
ATOM     15  C   UNL     1       0.770  -1.968  -6.277  0.00  0.00    +0.048 C 
ATOM     16  C   UNL     1       0.966  -3.484  -6.342  0.00  0.00    +0.004 C 
ATOM     17  C   UNL     1       1.978  -3.821  -7.439  0.00  0.00    +0.000 C 
ATOM     18  C   UNL     1       3.315  -3.148  -7.123  0.00  0.00    +0.004 C 
ATOM     19  C   UNL     1       3.120  -1.632  -7.059  0.00  0.00    +0.048 C 
ATOM     20  C   UNL     1       1.912   0.226  -5.903  0.00  0.00    +0.053 C 
ATOM     21  C   UNL     1       0.820   0.529  -4.874  0.00  0.00    +0.043 C 
ENDROOT
BRANCH  12  22
ATOM     22  C   UNL     1       2.024   0.296   1.451  0.00  0.00    +0.111 C 
BRANCH  22  23
ATOM     23  C   UNL     1       2.680  -0.124   2.741  0.00  0.00    +0.214 C 
ATOM     24  O   UNL     1       2.171  -0.984   3.428  0.00  0.00    -0.276 OA
ATOM     25  N   UNL     1       3.833   0.456   3.131  0.00  0.00    -0.315 N 
ATOM     26  H   UNL     1       4.240   1.143   2.582  0.00  0.00    +0.149 HD
BRANCH  25  27
ATOM     27  C   UNL     1       4.470   0.047   4.385  0.00  0.00    +0.110 C 
BRANCH  27  28
ATOM     28  C   UNL     1       5.754   0.853   4.591  0.00  0.00    +0.073 C 
BRANCH  28  29
ATOM     29  C   UNL     1       6.410   0.433   5.881  0.00  0.00    +0.035 A 
ATOM     30  N   UNL     1       7.403  -0.498   6.026  0.00  0.00    -0.350 N 
ATOM     31  C   UNL     1       7.698  -0.566   7.342  0.00  0.00    +0.171 A 
ATOM     32  N   UNL     1       6.934   0.273   7.986  0.00  0.00    -0.352 N 
ATOM     33  C   UNL     1       6.136   0.905   7.112  0.00  0.00    +0.105 A 
ATOM     34  H   UNL     1       7.818  -1.012   5.316  0.00  0.00    +0.166 HD
ATOM     35  H   UNL     1       6.943   0.420   8.945  0.00  0.00    +0.166 HD
ENDBRANCH  28  29
ENDBRANCH  27  28
ENDBRANCH  25  27
ENDBRANCH  22  23
ENDBRANCH  12  22
TORSDOF 5
