REMARK  Name = ZINC13654781
REMARK  8 active torsions:
REMARK  status: ('A' for Active; 'I' for Inactive)
REMARK    1  A    between atoms: C_6  and  C_7
REMARK    2  A    between atoms: C_7  and  C_9
REMARK    3  A    between atoms: C_9  and  S_10
REMARK    4  A    between atoms: S_10  and  C_11
REMARK    5  A    between atoms: C_13  and  C_16
REMARK    6  A    between atoms: C_16  and  C_17
REMARK    7  A    between atoms: N_19  and  C_20
REMARK    8  A    between atoms: C_20  and  C_21
REMARK                            x       y       z     vdW  Elec       q    Type
REMARK                         _______ _______ _______ _____ _____    ______ ____
ROOT
ATOM      1  C   UNL     1       0.673  -0.514   6.125  0.00  0.00    +0.135 A 
ATOM      2  N   UNL     1       0.031  -0.069   5.061  0.00  0.00    -0.237 NA
ATOM      3  C   UNL     1      -0.198   1.219   4.892  0.00  0.00    +0.058 A 
ATOM      4  C   UNL     1       0.231   2.082   5.843  0.00  0.00    +0.071 A 
ATOM      5  S   UNL     1       0.993   0.952   6.999  0.00  0.00    -0.069 S 
ENDROOT
BRANCH   1   6
ATOM      6  S   UNL     1       1.091  -2.172   6.553  0.00  0.00    -0.091 S 
BRANCH   6   7
ATOM      7  C   UNL     1       1.930  -1.887   8.132  0.00  0.00    +0.156 C 
BRANCH   7   8
ATOM      8  C   UNL     1       2.389  -3.204   8.702  0.00  0.00    +0.173 C 
ATOM      9  O   UNL     1       2.171  -4.234   8.100  0.00  0.00    -0.291 OA
BRANCH   8  15
ATOM     10  C   UNL     1       3.359  -2.052  10.679  0.00  0.00    +0.015 A 
ATOM     11  C   UNL     1       4.023  -2.090  11.885  0.00  0.00    +0.050 A 
ATOM     12  C   UNL     1       4.447  -3.303  12.413  0.00  0.00    +0.166 A 
ATOM     13  C   UNL     1       4.197  -4.492  11.724  0.00  0.00    +0.167 A 
ATOM     14  C   UNL     1       3.529  -4.463  10.518  0.00  0.00    +0.061 A 
ATOM     15  C   UNL     1       3.101  -3.240   9.986  0.00  0.00    +0.022 A 
ATOM     16  O   UNL     1       4.711  -5.530  12.448  0.00  0.00    -0.453 OA
ATOM     17  C   UNL     1       5.631  -4.930  13.378  0.00  0.00    +0.466 C 
ATOM     18  O   UNL     1       5.113  -3.599  13.564  0.00  0.00    -0.453 OA
ENDBRANCH   8  15
ENDBRANCH   7   8
ENDBRANCH   6   7
ENDBRANCH   1   6
BRANCH   3  19
ATOM     19  C   UNL     1      -0.927   1.718   3.671  0.00  0.00    +0.151 C 
BRANCH  19  20
ATOM     20  C   UNL     1      -0.222   1.232   2.431  0.00  0.00    +0.219 C 
ATOM     21  O   UNL     1       0.774   0.548   2.529  0.00  0.00    -0.275 OA
ATOM     22  N   UNL     1      -0.698   1.558   1.213  0.00  0.00    -0.315 N 
ATOM     23  H   UNL     1      -1.495   2.106   1.135  0.00  0.00    +0.149 HD
BRANCH  22  24
ATOM     24  C   UNL     1      -0.013   1.086   0.008  0.00  0.00    +0.107 C 
BRANCH  24  25
ATOM     25  C   UNL     1      -0.753   1.593  -1.232  0.00  0.00    +0.006 C 
ATOM     26  C   UNL     1      -2.147   0.964  -1.286  0.00  0.00    +0.005 C 
ATOM     27  C   UNL     1      -2.886   1.471  -2.526  0.00  0.00    +0.000 C 
ATOM     28  C   UNL     1      -2.103   1.083  -3.781  0.00  0.00    +0.000 C 
ATOM     29  C   UNL     1      -0.709   1.712  -3.727  0.00  0.00    +0.000 C 
ATOM     30  C   UNL     1       0.031   1.205  -2.487  0.00  0.00    +0.005 C 
ENDBRANCH  24  25
ENDBRANCH  22  24
ENDBRANCH  19  20
ENDBRANCH   3  19
TORSDOF 8
