REMARK  Name = ZINC01623266
REMARK  6 active torsions:
REMARK  status: ('A' for Active; 'I' for Inactive)
REMARK    1  A    between atoms: C_1  and  C_2
REMARK    2  A    between atoms: C_7  and  N_8
REMARK    3  A    between atoms: N_8  and  N_9
REMARK    4  A    between atoms: N_13  and  C_26
REMARK    5  A    between atoms: N_16  and  C_19
REMARK    6  A    between atoms: C_24  and  C_25
REMARK                            x       y       z     vdW  Elec       q    Type
REMARK                         _______ _______ _______ _____ _____    ______ ____
ROOT
ATOM      1  N   UNL     1       3.794  -2.248   0.155  0.00  0.00    -0.172 NA
ATOM      2  C   UNL     1       3.713  -0.936   0.049  0.00  0.00    +0.206 C 
ATOM      3  C   UNL     1       2.416  -0.235   0.128  0.00  0.00    +0.282 C 
ATOM      4  O   UNL     1       1.381  -0.852   0.293  0.00  0.00    -0.267 OA
ATOM      5  N   UNL     1       2.410   1.109   0.011  0.00  0.00    -0.216 N 
ATOM      6  C   UNL     1       3.542   1.801  -0.176  0.00  0.00    +0.158 C 
ATOM      7  S   UNL     1       3.436   3.504  -0.321  0.00  0.00    -0.017 S 
ATOM      8  N   UNL     1       4.754   1.233  -0.252  0.00  0.00    -0.215 N 
ATOM      9  C   UNL     1       4.915  -0.102  -0.153  0.00  0.00    +0.282 C 
ATOM     10  O   UNL     1       6.019  -0.606  -0.228  0.00  0.00    -0.267 OA
ENDROOT
BRANCH   8  11
ATOM     11  C   UNL     1       5.879   2.045  -0.444  0.00  0.00    +0.046 A 
ATOM     12  C   UNL     1       6.314   2.340  -1.730  0.00  0.00    +0.024 A 
ATOM     13  C   UNL     1       7.420   3.146  -1.915  0.00  0.00    +0.002 A 
ATOM     14  C   UNL     1       8.102   3.649  -0.823  0.00  0.00    +0.000 A 
ATOM     15  C   UNL     1       7.676   3.353   0.459  0.00  0.00    +0.005 A 
ATOM     16  C   UNL     1       6.566   2.552   0.651  0.00  0.00    -0.029 A 
ATOM     17  C   UNL     1       6.102   2.230   2.048  0.00  0.00    +0.045 C 
ENDBRANCH   8  11
BRANCH   5  18
ATOM     18  C   UNL     1       1.192   1.797   0.083  0.00  0.00    +0.043 A 
ATOM     19  C   UNL     1       0.936   2.651   1.147  0.00  0.00    +0.024 A 
ATOM     20  C   UNL     1      -0.268   3.324   1.217  0.00  0.00    +0.002 A 
ATOM     21  C   UNL     1      -1.214   3.156   0.223  0.00  0.00    +0.000 A 
ATOM     22  C   UNL     1      -0.963   2.307  -0.839  0.00  0.00    +0.002 A 
ATOM     23  C   UNL     1       0.238   1.627  -0.912  0.00  0.00    +0.024 A 
ENDBRANCH   5  18
BRANCH   1  24
ATOM     24  N   UNL     1       4.949  -2.819   0.234  0.00  0.00    -0.237 N 
ATOM     25  H   UNL     1       5.752  -2.280   0.300  0.00  0.00    +0.174 HD
BRANCH  24  32
ATOM     26  C   UNL     1       7.534  -3.992   0.412  0.00  0.00    +0.046 C 
ATOM     27  C   UNL     1       6.284  -4.827   0.309  0.00  0.00    -0.028 A 
ATOM     28  C   UNL     1       6.371  -6.205   0.300  0.00  0.00    +0.005 A 
ATOM     29  C   UNL     1       5.224  -6.972   0.205  0.00  0.00    +0.000 A 
ATOM     30  C   UNL     1       3.986  -6.362   0.121  0.00  0.00    +0.002 A 
ATOM     31  C   UNL     1       3.890  -4.985   0.136  0.00  0.00    +0.025 A 
ATOM     32  C   UNL     1       5.041  -4.211   0.225  0.00  0.00    +0.051 A 
ENDBRANCH  24  32
ENDBRANCH   1  24
TORSDOF 4
