REMARK  Name = ZINC41628509
REMARK  4 active torsions:
REMARK  status: ('A' for Active; 'I' for Inactive)
REMARK    1  A    between atoms: N_9  and  C_12
REMARK    2  A    between atoms: C_12  and  C_13
REMARK    3  A    between atoms: C_13  and  S_14
REMARK    4  A    between atoms: S_14  and  C_15
REMARK                            x       y       z     vdW  Elec       q    Type
REMARK                         _______ _______ _______ _____ _____    ______ ____
ROOT
ATOM      1  C   UNL     1       3.959  -3.857  -1.501  0.00  0.00    +0.097 C 
ENDROOT
BRANCH   1   2
ATOM      2  C   UNL     1       3.709  -3.428  -0.053  0.00  0.00    +0.128 C 
BRANCH   2  11
ATOM      3  C   UNL     1      -0.017   1.382   0.010  0.00  0.00    +0.001 A 
ATOM      4  C   UNL     1       1.165   2.099   0.002  0.00  0.00    +0.001 A 
ATOM      5  C   UNL     1       2.385   1.442  -0.013  0.00  0.00    +0.014 A 
ATOM      6  C   UNL     1       2.420   0.056  -0.021  0.00  0.00    +0.049 A 
ATOM      7  C   UNL     1       1.215  -0.675  -0.013  0.00  0.00    +0.049 A 
ATOM      8  C   UNL     1       0.002  -0.004   0.002  0.00  0.00    +0.014 A 
ATOM      9  C   UNL     1       1.606  -2.100  -0.025  0.00  0.00    +0.254 C 
ATOM     10  O   UNL     1       0.843  -3.045  -0.023  0.00  0.00    -0.270 OA
ATOM     11  N   UNL     1       2.949  -2.175  -0.039  0.00  0.00    -0.233 N 
ATOM     12  C   UNL     1       3.503  -0.949  -0.038  0.00  0.00    +0.254 C 
ATOM     13  O   UNL     1       4.693  -0.709  -0.049  0.00  0.00    -0.270 OA
ENDBRANCH   2  11
ENDBRANCH   1   2
BRANCH   1  14
ATOM     14  S   UNL     1       4.899  -5.407  -1.518  0.00  0.00    -0.086 S 
BRANCH  14  15
ATOM     15  C   UNL     1       5.103  -5.763  -3.232  0.00  0.00    +0.169 A 
ATOM     16  N   UNL     1       5.775  -6.886  -3.609  0.00  0.00    -0.302 N 
ATOM     17  H   UNL     1       6.134  -7.489  -2.939  0.00  0.00    +0.171 HD
ATOM     18  C   UNL     1       5.937  -7.153  -4.920  0.00  0.00    +0.255 A 
ATOM     19  O   UNL     1       6.541  -8.151  -5.278  0.00  0.00    -0.267 OA
ATOM     20  C   UNL     1       5.399  -6.263  -5.874  0.00  0.00    +0.038 A 
ATOM     21  C   UNL     1       4.731  -5.162  -5.442  0.00  0.00    +0.052 A 
ATOM     22  N   UNL     1       4.599  -4.942  -4.129  0.00  0.00    -0.228 NA
ATOM     23  C   UNL     1       4.107  -4.168  -6.386  0.00  0.00    +0.056 C 
ATOM     24  C   UNL     1       4.694  -4.316  -7.788  0.00  0.00    +0.006 C 
ATOM     25  C   UNL     1       4.614  -5.793  -8.193  0.00  0.00    +0.005 C 
ATOM     26  C   UNL     1       5.599  -6.581  -7.331  0.00  0.00    +0.042 C 
ENDBRANCH  14  15
ENDBRANCH   1  14
TORSDOF 4
