REMARK  Name = ZINC39680187
REMARK  10 active torsions:
REMARK  status: ('A' for Active; 'I' for Inactive)
REMARK    1  A    between atoms: C_2  and  C_3
REMARK    2  A    between atoms: C_3  and  N_4
REMARK    3  A    between atoms: C_5  and  C_31
REMARK    4  A    between atoms: C_9  and  S_11
REMARK    5  A    between atoms: S_11  and  C_12
REMARK    6  A    between atoms: C_12  and  C_13
REMARK    7  A    between atoms: N_15  and  CA_16
REMARK    8  A    between atoms: CA_16  and  CB_18
REMARK    9  A    between atoms: CA_16  and  C_28
REMARK   10  A    between atoms: CB_18  and  CG_19
REMARK                            x       y       z     vdW  Elec       q    Type
REMARK                         _______ _______ _______ _____ _____    ______ ____
ROOT
ATOM      1  C   UNK A   0       0.106  -2.644   3.670  0.00  0.00    +0.164 C 
ENDROOT
BRANCH   1   2
ATOM      2  C   UNK A   0      -1.115  -2.826   4.534  0.00  0.00    +0.223 C 
ATOM      3  O   UNK A   0      -1.637  -1.864   5.057  0.00  0.00    -0.275 OA
ATOM      4  N   TRP A   1      -1.627  -4.058   4.726  0.00  0.00    -0.301 N 
ATOM      5  H   TRP A   1      -1.210  -4.827   4.308  0.00  0.00    +0.150 HD
BRANCH   4   6
ATOM      6  CA  TRP A   1      -2.814  -4.235   5.567  0.00  0.00    +0.191 C 
BRANCH   6   7
ATOM      7  C   TRP A   1      -2.396  -4.341   7.011  0.00  0.00    +0.376 C 
ATOM      8  O   TRP A   1      -3.144  -3.955   7.892  0.00  0.00    -0.244 OA
ATOM      9  OXT TRP A   1      -1.309  -4.814   7.297  0.00  0.00    -0.244 OA
ENDBRANCH   6   7
BRANCH   6  10
ATOM     10  CB  TRP A   1      -3.546  -5.513   5.152  0.00  0.00    +0.071 C 
BRANCH  10  11
ATOM     11  CG  TRP A   1      -4.071  -5.359   3.748  0.00  0.00    -0.020 A 
ATOM     12  CD2 TRP A   1      -3.333  -5.612   2.509  0.00  0.00    +0.003 A 
ATOM     13  CE3 TRP A   1      -2.034  -6.036   2.223  0.00  0.00    +0.010 A 
ATOM     14  CZ3 TRP A   1      -1.638  -6.180   0.923  0.00  0.00    +0.001 A 
ATOM     15  CH2 TRP A   1      -2.517  -5.906  -0.116  0.00  0.00    +0.002 A 
ATOM     16  CZ2 TRP A   1      -3.803  -5.486   0.144  0.00  0.00    +0.026 A 
ATOM     17  CE2 TRP A   1      -4.228  -5.333   1.460  0.00  0.00    +0.047 A 
ATOM     18  NE1 TRP A   1      -5.417  -4.942   2.033  0.00  0.00    -0.360 N 
ATOM     19  CD1 TRP A   1      -5.306  -4.968   3.397  0.00  0.00    +0.087 A 
ATOM     20  HE1 TRP A   1      -6.215  -4.689   1.543  0.00  0.00    +0.165 HD
ENDBRANCH  10  11
ENDBRANCH   6  10
ENDBRANCH   4   6
ENDBRANCH   1   2
BRANCH   1  21
ATOM     21  S   UNK A   0       0.546  -0.885   3.608  0.00  0.00    -0.150 S 
BRANCH  21  26
ATOM     22  N   UNK A   0       1.686  -1.371   1.205  0.00  0.00    +0.413 N 
ATOM     23  C   UNK A   0       2.561  -2.548   1.000  0.00  0.00    +0.050 C 
ATOM     24  N   UNK A   0       3.708  -2.314   1.916  0.00  0.00    -0.267 NA
ATOM     25  N   UNK A   0       3.072  -1.712   3.098  0.00  0.00    -0.262 NA
ATOM     26  C   UNK A   0       2.014  -0.837   2.543  0.00  0.00    +0.078 C 
ATOM     27  H   UNK A   0       4.377  -1.681   1.504  0.00  0.00    +0.139 HD
ATOM     28  H   UNK A   0       3.738  -1.177   3.635  0.00  0.00    +0.140 HD
ATOM     29  H   UNK A   0       0.717  -1.648   1.171  0.00  0.00    -0.075 HD
BRANCH  23  30
ATOM     30  C   UNK A   0       3.030  -2.614  -0.431  0.00  0.00    -0.046 A 
ATOM     31  C   UNK A   0       4.032  -1.768  -0.869  0.00  0.00    +0.003 A 
ATOM     32  C   UNK A   0       4.463  -1.829  -2.181  0.00  0.00    +0.000 A 
ATOM     33  C   UNK A   0       3.891  -2.735  -3.055  0.00  0.00    +0.000 A 
ATOM     34  C   UNK A   0       2.890  -3.581  -2.617  0.00  0.00    +0.000 A 
ATOM     35  C   UNK A   0       2.462  -3.523  -1.303  0.00  0.00    +0.003 A 
ENDBRANCH  23  30
BRANCH  22  36
ATOM     36  C   UNK A   0       1.957  -0.356   0.178  0.00  0.00    -0.045 C 
BRANCH  36  38
ATOM     37  C   UNK A   0       1.500   2.021   0.497  0.00  0.00    +0.002 C 
ATOM     38  C   UNK A   0       1.020   0.810   0.363  0.00  0.00    -0.053 C 
ENDBRANCH  36  38
ENDBRANCH  22  36
ENDBRANCH  21  26
ENDBRANCH   1  21
TORSDOF 10
