REMARK  Name = ZINC34723624
REMARK  8 active torsions:
REMARK  status: ('A' for Active; 'I' for Inactive)
REMARK    1  A    between atoms: C_1  and  C_2
REMARK    2  A    between atoms: C_2  and  C_3
REMARK    3  A    between atoms: C_3  and  C_4
REMARK    4  A    between atoms: C_4  and  N_5
REMARK    5  A    between atoms: C_12  and  C_15
REMARK    6  A    between atoms: C_13  and  C_14
REMARK    7  A    between atoms: N_18  and  C_21
REMARK    8  A    between atoms: C_21  and  C_22
REMARK                            x       y       z     vdW  Elec       q    Type
REMARK                         _______ _______ _______ _____ _____    ______ ____
ROOT
ATOM      1  N   UNL     1       1.425  -2.500  -2.470  0.00  0.00    -0.287 N 
ATOM      2  C   UNL     1       0.711  -2.724  -3.615  0.00  0.00    +0.097 A 
ATOM      3  C   UNL     1       1.324  -3.173  -4.780  0.00  0.00    +0.078 A 
ATOM      4  C   UNL     1       0.438  -3.376  -5.947  0.00  0.00    +0.003 A 
ATOM      5  C   UNL     1      -0.879  -3.102  -5.753  0.00  0.00    +0.004 A 
ATOM      6  S   UNL     1      -0.998  -2.579  -4.064  0.00  0.00    -0.074 S 
ATOM      7  C   UNL     1      -1.615  -3.363  -7.032  0.00  0.00    +0.073 C 
ATOM      8  C   UNL     1      -0.553  -3.827  -8.003  0.00  0.00    -0.064 C 
ATOM      9  C   UNL     1       0.599  -3.824  -7.359  0.00  0.00    -0.042 C 
ATOM     10  C   UNL     1       1.915  -4.223  -7.976  0.00  0.00    +0.044 C 
ATOM     11  C   UNL     1      -0.770  -4.220  -9.441  0.00  0.00    +0.039 C 
ATOM     12  C   UNL     1       2.784  -3.386  -4.696  0.00  0.00    +0.265 A 
ATOM     13  O   UNL     1       3.407  -3.777  -5.666  0.00  0.00    -0.267 OA
ATOM     14  N   UNL     1       3.415  -3.142  -3.533  0.00  0.00    -0.261 N 
ATOM     15  C   UNL     1       2.757  -2.705  -2.447  0.00  0.00    +0.333 A 
ATOM     16  O   UNL     1       3.374  -2.495  -1.420  0.00  0.00    -0.246 OA
ENDROOT
BRANCH  14  17
ATOM     17  C   UNL     1       4.862  -3.354  -3.451  0.00  0.00    +0.126 C 
ATOM     18  C   UNL     1       5.589  -2.062  -3.830  0.00  0.00    +0.027 C 
ENDBRANCH  14  17
BRANCH   1  19
ATOM     19  C   UNL     1       0.739  -2.027  -1.265  0.00  0.00    +0.127 C 
BRANCH  19  20
ATOM     20  C   UNL     1       0.718  -0.497  -1.257  0.00  0.00    +0.021 C 
BRANCH  20  22
ATOM     21  C   UNL     1      -0.019   1.526   0.010  0.00  0.00    +0.004 C 
ATOM     22  C   UNL     1       0.002  -0.004   0.002  0.00  0.00    -0.002 C 
ENDBRANCH  20  22
ENDBRANCH  19  20
ENDBRANCH   1  19
TORSDOF 4
