REMARK  Name = ZINC36346653
REMARK  14 active torsions:
REMARK  status: ('A' for Active; 'I' for Inactive)
REMARK    1  A    between atoms: C_1  and  C_2
REMARK    2  A    between atoms: C_2  and  C_3
REMARK    3  A    between atoms: C_3  and  N_4
REMARK    4  A    between atoms: N_4  and  C_5
REMARK    5  A    between atoms: N_4  and  C_27
REMARK    6  A    between atoms: C_5  and  C_6
REMARK    7  A    between atoms: C_7  and  C_26
REMARK    8  A    between atoms: N_9  and  C_19
REMARK    9  A    between atoms: C_10  and  O_11
REMARK   10  A    between atoms: O_11  and  C_12
REMARK   11  A    between atoms: C_27  and  C_28
REMARK   12  A    between atoms: C_28  and  C_30
REMARK   13  A    between atoms: C_28  and  O_37
REMARK   14  A    between atoms: C_30  and  C_31
REMARK                            x       y       z     vdW  Elec       q    Type
REMARK                         _______ _______ _______ _____ _____    ______ ____
ROOT
ATOM      1  C   UNL     1      -3.345  -1.808  -1.412  0.00  0.00    +0.021 A 
ATOM      2  C   UNL     1      -3.704  -0.459  -1.490  0.00  0.00    +0.065 A 
ATOM      3  N   UNL     1      -3.757  -0.118  -2.753  0.00  0.00    -0.168 NA
ATOM      4  N   UNL     1      -3.432  -1.238  -3.528  0.00  0.00    -0.200 N 
ATOM      5  C   UNL     1      -3.176  -2.270  -2.680  0.00  0.00    +0.225 A 
ATOM      6  C   UNL     1      -3.984   0.448  -0.320  0.00  0.00    +0.068 C 
ENDROOT
BRANCH   4   7
ATOM      7  C   UNL     1      -3.377  -1.287  -4.928  0.00  0.00    +0.069 A 
ATOM      8  C   UNL     1      -2.369  -2.003  -5.559  0.00  0.00    +0.031 A 
ATOM      9  C   UNL     1      -2.316  -2.049  -6.939  0.00  0.00    +0.040 A 
ATOM     10  C   UNL     1      -3.267  -1.382  -7.692  0.00  0.00    +0.124 A 
ATOM     11  C   UNL     1      -4.273  -0.667  -7.064  0.00  0.00    +0.040 A 
ATOM     12  C   UNL     1      -4.333  -0.623  -5.685  0.00  0.00    +0.031 A 
ATOM     13  F   UNL     1      -3.213  -1.428  -9.041  0.00  0.00    -0.205 F 
ENDBRANCH   4   7
BRANCH   1  14
ATOM     14  C   UNL     1      -3.169  -2.607  -0.146  0.00  0.00    -0.036 C 
BRANCH  14  15
ATOM     15  N   UNL     1      -1.742  -2.673   0.198  0.00  0.00    +0.384 N 
ATOM     16  H   UNL     1      -1.224  -3.033  -0.589  0.00  0.00    -0.081 HD
BRANCH  15  17
ATOM     17  C   UNL     1      -1.256  -1.327   0.530  0.00  0.00    -0.079 C 
BRANCH  17  19
ATOM     18  C   UNL     1      -1.511   0.601   2.098  0.00  0.00    +0.002 C 
ATOM     19  C   UNL     1      -1.940  -0.839   1.808  0.00  0.00    -0.022 C 
ENDBRANCH  17  19
ENDBRANCH  15  17
BRANCH  15  20
ATOM     20  C   UNL     1      -1.558  -3.560   1.354  0.00  0.00    -0.046 C 
BRANCH  20  21
ATOM     21  C   UNL     1      -0.063  -3.716   1.643  0.00  0.00    +0.102 C 
BRANCH  21  22
ATOM     22  O   UNL     1       0.585  -4.286   0.504  0.00  0.00    -0.393 OA
ATOM     23  H   UNL     1       0.249  -5.158   0.256  0.00  0.00    +0.210 HD
ENDBRANCH  21  22
BRANCH  21  24
ATOM     24  C   UNL     1       0.129  -4.635   2.852  0.00  0.00    +0.064 C 
BRANCH  24  25
ATOM     25  C   UNL     1       1.591  -4.691   3.212  0.00  0.00    -0.045 A 
ATOM     26  C   UNL     1       2.407  -5.649   2.639  0.00  0.00    +0.004 A 
ATOM     27  C   UNL     1       3.749  -5.700   2.970  0.00  0.00    +0.000 A 
ATOM     28  C   UNL     1       4.274  -4.795   3.873  0.00  0.00    +0.000 A 
ATOM     29  C   UNL     1       3.457  -3.837   4.445  0.00  0.00    +0.000 A 
ATOM     30  C   UNL     1       2.117  -3.782   4.111  0.00  0.00    +0.004 A 
ENDBRANCH  24  25
ENDBRANCH  21  24
ENDBRANCH  20  21
ENDBRANCH  15  20
ENDBRANCH  14  15
ENDBRANCH   1  14
BRANCH   5  31
ATOM     31  O   UNL     1      -2.821  -3.531  -3.034  0.00  0.00    -0.438 OA
BRANCH  31  32
ATOM     32  C   UNL     1      -3.810  -4.413  -3.332  0.00  0.00    +0.133 A 
ATOM     33  C   UNL     1      -5.130  -3.987  -3.378  0.00  0.00    +0.046 A 
ATOM     34  C   UNL     1      -6.135  -4.885  -3.682  0.00  0.00    +0.006 A 
ATOM     35  C   UNL     1      -5.828  -6.208  -3.940  0.00  0.00    +0.038 A 
ATOM     36  C   UNL     1      -4.512  -6.637  -3.894  0.00  0.00    +0.127 A 
ATOM     37  C   UNL     1      -3.502  -5.740  -3.596  0.00  0.00    +0.084 A 
ATOM     38  F   UNL     1      -4.214  -7.930  -4.146  0.00  0.00    -0.205 F 
ENDBRANCH  31  32
ENDBRANCH   5  31
TORSDOF 12
