REMARK  Name = ZINC11603614
REMARK  10 active torsions:
REMARK  status: ('A' for Active; 'I' for Inactive)
REMARK    1  A    between atoms: C_1  and  N_61
REMARK    2  A    between atoms: C_2  and  N_61
REMARK    3  A    between atoms: C_3  and  C_5
REMARK    4  A    between atoms: C_3  and  C_12
REMARK    5  A    between atoms: C_3  and  N_61
REMARK    6  A    between atoms: C_5  and  C_6
REMARK    7  A    between atoms: C_12  and  N_13
REMARK    8  A    between atoms: C_14  and  C_16
REMARK    9  A    between atoms: C_16  and  C_17
REMARK   10  A    between atoms: C_17  and  C_18
REMARK                            x       y       z     vdW  Elec       q    Type
REMARK                         _______ _______ _______ _____ _____    ______ ____
ROOT
ATOM      1  N   UNL     1      -1.096  12.176  -4.879  0.00  0.00    -0.317 N 
ATOM      2  C   UNL     1      -0.137  11.241  -4.728  0.00  0.00    +0.213 C 
ATOM      3  O   UNL     1       0.043  10.413  -5.596  0.00  0.00    -0.276 OA
ATOM      4  H   UNL     1      -1.241  12.839  -4.185  0.00  0.00    +0.149 HD
ENDROOT
BRANCH   1   5
ATOM      5  C   UNL     1      -1.920  12.193  -6.090  0.00  0.00    +0.089 C 
BRANCH   5   6
ATOM      6  C   UNL     1      -3.027  13.237  -5.940  0.00  0.00    -0.048 C 
BRANCH   6   9
ATOM      7  C   UNL     1      -4.449  11.434  -5.171  0.00  0.00    -0.096 C 
ATOM      8  C   UNL     1      -3.381  12.902  -3.568  0.00  0.00    -0.096 C 
ATOM      9  N   UNL     1      -3.999  12.817  -4.908  0.00  0.00    +0.379 N 
ATOM     10  H   UNL     1      -4.812  13.444  -4.941  0.00  0.00    -0.082 HD
ENDBRANCH   6   9
BRANCH   6  11
ATOM     11  C   UNL     1      -3.762  13.397  -7.272  0.00  0.00    +0.021 C 
BRANCH  11  12
ATOM     12  C   UNL     1      -4.758  14.523  -7.165  0.00  0.00    -0.049 A 
ATOM     13  C   UNL     1      -6.032  14.274  -6.689  0.00  0.00    +0.003 A 
ATOM     14  C   UNL     1      -6.945  15.308  -6.586  0.00  0.00    +0.000 A 
ATOM     15  C   UNL     1      -6.587  16.587  -6.968  0.00  0.00    +0.000 A 
ATOM     16  C   UNL     1      -5.315  16.834  -7.449  0.00  0.00    +0.000 A 
ATOM     17  C   UNL     1      -4.400  15.802  -7.547  0.00  0.00    +0.003 A 
ENDBRANCH  11  12
ENDBRANCH   6  11
ENDBRANCH   5   6
ENDBRANCH   1   5
BRANCH   2  18
ATOM     18  C   UNL     1       0.710  11.225  -3.482  0.00  0.00    +0.103 C 
BRANCH  18  19
ATOM     19  C   UNL     1       1.713  10.072  -3.563  0.00  0.00    +0.083 C 
BRANCH  19  20
ATOM     20  C   UNL     1       2.561  10.056  -2.317  0.00  0.00    +0.111 A 
ATOM     21  N   UNL     1       3.516   9.102  -2.197  0.00  0.00    -0.310 N 
ATOM     22  H   UNL     1       3.623   8.462  -2.918  0.00  0.00    +0.170 HD
ATOM     23  C   UNL     1       4.329   9.002  -1.119  0.00  0.00    +0.260 A 
ATOM     24  O   UNL     1       5.184   8.137  -1.030  0.00  0.00    -0.267 OA
ATOM     25  C   UNL     1       4.119   9.978  -0.088  0.00  0.00    +0.075 A 
ATOM     26  C   UNL     1       4.848  10.093   1.163  0.00  0.00    -0.023 A 
ATOM     27  C   UNL     1       4.477  11.098   1.991  0.00  0.00    -0.004 A 
ATOM     28  S   UNL     1       3.153  11.930   1.149  0.00  0.00    -0.073 S 
ATOM     29  C   UNL     1       3.100  10.931  -0.305  0.00  0.00    +0.116 A 
ATOM     30  N   UNL     1       2.339  10.967  -1.395  0.00  0.00    -0.227 NA
ATOM     31  C   UNL     1       5.059  11.433   3.329  0.00  0.00    +0.043 C 
ATOM     32  C   UNL     1       5.901  10.239   3.804  0.00  0.00    +0.005 C 
ATOM     33  C   UNL     1       6.813   9.796   2.656  0.00  0.00    +0.005 C 
ATOM     34  C   UNL     1       5.978   9.145   1.553  0.00  0.00    +0.037 C 
ENDBRANCH  19  20
ENDBRANCH  18  19
ENDBRANCH   2  18
TORSDOF 8
