REMARK  Name = ZINC06724624
REMARK  3 active torsions:
REMARK  status: ('A' for Active; 'I' for Inactive)
REMARK    1  A    between atoms: C_3  and  C_8
REMARK    2  A    between atoms: C_5  and  N_7
REMARK    3  A    between atoms: N_10  and  C_15
REMARK                            x       y       z     vdW  Elec       q    Type
REMARK                         _______ _______ _______ _____ _____    ______ ____
ROOT
ATOM      1  C   UNL     1      -0.125   4.218  -0.086  0.00  0.00    +0.170 C 
ATOM      2  N   UNL     1       1.155   3.490   0.009  0.00  0.00    -0.254 N 
ATOM      3  C   UNL     1       2.285   4.178   0.107  0.00  0.00    +0.231 C 
ATOM      4  O   UNL     1       3.357   3.616   0.197  0.00  0.00    -0.274 OA
ATOM      5  C   UNL     1       2.189   5.695   0.099  0.00  0.00    +0.167 C 
ATOM      6  S   UNL     1       0.457   5.920  -0.494  0.00  0.00    -0.124 S 
ENDROOT
BRANCH   2   7
ATOM      7  C   UNL     1       1.175   2.090   0.002  0.00  0.00    +0.041 A 
ATOM      8  C   UNL     1       0.507   1.380   0.991  0.00  0.00    +0.027 A 
ATOM      9  C   UNL     1       0.526  -0.001   0.985  0.00  0.00    +0.051 A 
ATOM     10  C   UNL     1       1.212  -0.683  -0.007  0.00  0.00    +0.166 A 
ATOM     11  C   UNL     1       1.884   0.026  -1.001  0.00  0.00    +0.168 A 
ATOM     12  C   UNL     1       1.863   1.411  -0.994  0.00  0.00    +0.073 A 
ATOM     13  O   UNL     1       2.474  -0.865  -1.850  0.00  0.00    -0.453 OA
ATOM     14  C   UNL     1       1.819  -2.124  -1.603  0.00  0.00    +0.466 C 
ATOM     15  O   UNL     1       1.382  -2.019  -0.235  0.00  0.00    -0.453 OA
ENDBRANCH   2   7
BRANCH   1  18
ATOM     16  C   UNL     1      -1.178   2.579  -3.322  0.00  0.00    +0.002 A 
ATOM     17  C   UNL     1      -0.394   3.093  -2.306  0.00  0.00    +0.006 A 
ATOM     18  C   UNL     1      -0.984   3.660  -1.191  0.00  0.00    -0.015 A 
ATOM     19  C   UNL     1      -2.361   3.711  -1.088  0.00  0.00    +0.029 A 
ATOM     20  C   UNL     1      -3.151   3.201  -2.109  0.00  0.00    +0.025 A 
ATOM     21  C   UNL     1      -2.555   2.632  -3.227  0.00  0.00    +0.023 A 
BRANCH  20  22
ATOM     22  N   UNL     1      -4.544   3.256  -2.010  0.00  0.00    -0.358 N 
ATOM     23  H   UNL     1      -5.095   2.896  -2.723  0.00  0.00    +0.142 HD
ATOM     24  H   UNL     1      -4.959   3.653  -1.229  0.00  0.00    +0.142 HD
ENDBRANCH  20  22
ENDBRANCH   1  18
TORSDOF 3
