REMARK  Name = ZINC63557143
REMARK  12 active torsions:
REMARK  status: ('A' for Active; 'I' for Inactive)
REMARK    1  A    between atoms: C_1  and  C_2
REMARK    2  A    between atoms: C_2  and  C_3
REMARK    3  A    between atoms: C_2  and  C_4
REMARK    4  A    between atoms: C_2  and  C_5
REMARK    5  A    between atoms: C_5  and  C_6
REMARK    6  A    between atoms: C_6  and  C_7
REMARK    7  A    between atoms: C_6  and  C_8
REMARK    8  A    between atoms: C_6  and  N_9
REMARK    9  A    between atoms: C_10  and  C_12
REMARK   10  A    between atoms: N_17  and  C_19
REMARK   11  A    between atoms: C_19  and  C_20
REMARK   12  A    between atoms: C_20  and  C_21
REMARK                            x       y       z     vdW  Elec       q    Type
REMARK                         _______ _______ _______ _____ _____    ______ ____
ROOT
ATOM      1  C   UNL     1       5.360  -0.480  -4.266  0.00  0.00    +0.101 C 
ATOM      2  C   UNL     1       5.406  -2.006  -4.512  0.00  0.00    +0.110 C 
ATOM      3  C   UNL     1       6.781  -2.246  -5.096  0.00  0.00    +0.216 C 
ATOM      4  O   UNL     1       7.120  -3.251  -5.684  0.00  0.00    -0.276 OA
ATOM      5  N   UNL     1       7.572  -1.183  -4.869  0.00  0.00    -0.300 N 
ATOM      6  C   UNL     1       6.859  -0.138  -4.124  0.00  0.00    +0.121 C 
ENDROOT
BRANCH   1   8
ATOM      7  N   UNL     1       3.298  -0.448  -2.900  0.00  0.00    -0.310 N 
ATOM      8  C   UNL     1       4.611  -0.161  -2.998  0.00  0.00    +0.218 C 
ATOM      9  O   UNL     1       5.190   0.354  -2.065  0.00  0.00    -0.275 OA
ATOM     10  H   UNL     1       2.834  -0.860  -3.647  0.00  0.00    +0.149 HD
BRANCH   7  11
ATOM     11  C   UNL     1       2.570  -0.137  -1.668  0.00  0.00    +0.029 C 
ATOM     12  C   UNL     1       2.773   1.337  -1.312  0.00  0.00    +0.031 C 
ATOM     13  C   UNL     1       3.097  -1.014  -0.530  0.00  0.00    +0.031 C 
BRANCH  11  14
ATOM     14  C   UNL     1       1.078  -0.411  -1.873  0.00  0.00    +0.031 C 
BRANCH  14  16
ATOM     15  C   UNL     1       1.014  -0.865  -4.329  0.00  0.00    +0.010 C 
ATOM     16  C   UNL     1       0.642   0.136  -3.234  0.00  0.00    -0.036 C 
ATOM     17  C   UNL     1       1.349   1.467  -3.498  0.00  0.00    +0.010 C 
ATOM     18  C   UNL     1      -0.872   0.354  -3.234  0.00  0.00    +0.010 C 
ENDBRANCH  14  16
ENDBRANCH  11  14
ENDBRANCH   7  11
ENDBRANCH   1   8
BRANCH   5  19
ATOM     19  C   UNL     1       8.966  -1.081  -5.308  0.00  0.00    +0.112 C 
BRANCH  19  20
ATOM     20  C   UNL     1       9.016  -0.455  -6.703  0.00  0.00    +0.052 C 
BRANCH  20  21
ATOM     21  C   UNL     1      10.449  -0.350  -7.155  0.00  0.00    -0.040 C 
ATOM     22  C   UNL     1      11.125  -1.231  -7.927  0.00  0.00    +0.000 A 
ATOM     23  C   UNL     1      10.743  -2.503  -8.551  0.00  0.00    +0.030 A 
ATOM     24  C   UNL     1      11.661  -3.177  -9.284  0.00  0.00    +0.042 A 
ATOM     25  C   UNL     1      12.964  -2.690  -9.460  0.00  0.00    +0.022 A 
ATOM     26  C   UNL     1      13.389  -1.529  -8.918  0.00  0.00    +0.027 A 
ATOM     27  C   UNL     1      12.507  -0.739  -8.129  0.00  0.00    +0.043 A 
ATOM     28  N   UNL     1      12.678   0.402  -7.506  0.00  0.00    -0.380 N 
ATOM     29  C   UNL     1      11.421   0.766  -6.844  0.00  0.00    +0.144 C 
ATOM     30 CL   UNL     1      11.212  -4.682 -10.024  0.00  0.00    -0.084 Cl
ATOM     31  H   UNL     1      13.498   0.920  -7.490  0.00  0.00    +0.160 HD
ENDBRANCH  20  21
ENDBRANCH  19  20
ENDBRANCH   5  19
TORSDOF 7
