REMARK  Name = ZINC60343145
REMARK  15 active torsions:
REMARK  status: ('A' for Active; 'I' for Inactive)
REMARK    1  A    between atoms: C_1  and  C_2
REMARK    2  A    between atoms: C_2  and  O_3
REMARK    3  A    between atoms: O_3  and  C_4
REMARK    4  A    between atoms: C_4  and  C_6
REMARK    5  A    between atoms: C_10  and  N_11
REMARK    6  A    between atoms: C_12  and  C_14
REMARK    7  A    between atoms: C_14  and  N_15
REMARK    8  A    between atoms: C_20  and  C_22
REMARK    9  A    between atoms: C_22  and  C_24
REMARK   10  A    between atoms: C_22  and  N_25
REMARK   11  A    between atoms: C_26  and  O_28
REMARK   12  A    between atoms: O_28  and  C_29
REMARK   13  A    between atoms: C_29  and  C_30
REMARK   14  A    between atoms: C_29  and  C_31
REMARK   15  A    between atoms: C_29  and  C_32
REMARK                            x       y       z     vdW  Elec       q    Type
REMARK                         _______ _______ _______ _____ _____    ______ ____
ROOT
ATOM      1  N   UNL     1       1.208  -8.432  -1.975  0.00  0.00    +0.388 N 
ATOM      2  C   UNL     1       2.669  -8.567  -2.016  0.00  0.00    -0.078 C 
ATOM      3  C   UNL     1       3.044  -9.875  -2.716  0.00  0.00    -0.019 C 
ATOM      4  C   UNL     1       2.442 -11.052  -1.943  0.00  0.00    -0.003 C 
ATOM      5  C   UNL     1       0.926 -10.862  -1.842  0.00  0.00    -0.014 C 
ATOM      6  C   UNL     1       0.629  -9.518  -1.174  0.00  0.00    -0.047 C 
ATOM      7  H   UNL     1       0.841  -8.475  -2.914  0.00  0.00    -0.081 HD
ENDROOT
BRANCH   6   8
ATOM      8  C   UNL     1      -0.885  -9.323  -1.071  0.00  0.00    +0.060 C 
ATOM      9  C   UNL     1      -1.482  -9.215  -2.475  0.00  0.00    +0.026 C 
BRANCH   8  10
ATOM     10  N   UNL     1      -1.477 -10.468  -0.375  0.00  0.00    -0.280 N 
ATOM     11  C   UNL     1      -2.650 -10.328   0.275  0.00  0.00    +0.401 C 
ATOM     12  O   UNL     1      -3.215  -9.253   0.284  0.00  0.00    -0.226 OA
ATOM     13  H   UNL     1      -1.026 -11.327  -0.382  0.00  0.00    +0.152 HD
BRANCH  11  14
ATOM     14  O   UNL     1      -3.195 -11.380   0.915  0.00  0.00    -0.445 OA
BRANCH  14  15
ATOM     15  C   UNL     1      -4.439 -11.160   1.583  0.00  0.00    +0.107 C 
ATOM     16  C   UNL     1      -5.490 -10.707   0.567  0.00  0.00    +0.055 C 
ATOM     17  C   UNL     1      -4.898 -12.460   2.247  0.00  0.00    +0.055 C 
ATOM     18  C   UNL     1      -4.260 -10.078   2.649  0.00  0.00    +0.055 C 
ENDBRANCH  14  15
ENDBRANCH  11  14
ENDBRANCH   8  10
ENDBRANCH   6   8
BRANCH   1  19
ATOM     19  C   UNL     1       0.854  -7.139  -1.372  0.00  0.00    +0.019 C 
BRANCH  19  21
ATOM     20  N   UNL     1       1.129  -4.739  -1.904  0.00  0.00    -0.281 N 
ATOM     21  C   UNL     1       1.342  -6.022  -2.258  0.00  0.00    +0.201 C 
ATOM     22  O   UNL     1       1.927  -6.277  -3.290  0.00  0.00    -0.278 OA
ATOM     23  H   UNL     1       0.661  -4.535  -1.079  0.00  0.00    +0.155 HD
BRANCH  20  28
ATOM     24  C   UNL     1       1.449  -2.344  -2.516  0.00  0.00    +0.087 A 
ATOM     25  C   UNL     1       2.019  -1.485  -3.530  0.00  0.00    +0.024 A 
ATOM     26  C   UNL     1       2.609  -2.111  -4.564  0.00  0.00    +0.048 A 
ATOM     27  S   UNL     1       2.398  -3.834  -4.176  0.00  0.00    -0.081 S 
ATOM     28  C   UNL     1       1.577  -3.712  -2.718  0.00  0.00    +0.086 A 
BRANCH  24  29
ATOM     29  C   UNL     1       0.776  -1.800  -1.335  0.00  0.00    +0.342 C 
ATOM     30  O   UNL     1       0.312  -2.552  -0.499  0.00  0.00    -0.245 OA
BRANCH  29  31
ATOM     31  O   UNL     1       0.671  -0.465  -1.174  0.00  0.00    -0.461 OA
BRANCH  31  33
ATOM     32  C   UNL     1      -0.019   1.526   0.010  0.00  0.00    +0.048 C 
ATOM     33  C   UNL     1       0.002  -0.004   0.002  0.00  0.00    +0.229 C 
ENDBRANCH  31  33
ENDBRANCH  29  31
ENDBRANCH  24  29
ENDBRANCH  20  28
ENDBRANCH  19  21
ENDBRANCH   1  19
TORSDOF 10
