REMARK  Name = ZINC28955900
REMARK  6 active torsions:
REMARK  status: ('A' for Active; 'I' for Inactive)
REMARK    1  A    between atoms: C_3  and  S_12
REMARK    2  A    between atoms: S_12  and  N_15
REMARK    3  A    between atoms: N_15  and  C_16
REMARK    4  A    between atoms: C_16  and  C_17
REMARK    5  A    between atoms: C_23  and  C_25
REMARK    6  A    between atoms: N_28  and  C_31
REMARK                            x       y       z     vdW  Elec       q    Type
REMARK                         _______ _______ _______ _____ _____    ______ ____
ROOT
ATOM      1  C   UNL     1      -6.263   4.495  -4.033  0.00  0.00    +0.023 C 
ATOM      2  C   UNL     1      -4.954   5.185  -4.501  0.00  0.00    +0.025 C 
ATOM      3  C   UNL     1      -4.694   4.535  -5.877  0.00  0.00    +0.108 C 
ATOM      4  N   UNL     1      -5.411   3.252  -5.896  0.00  0.00    -0.301 N 
ATOM      5  C   UNL     1      -6.078   3.064  -4.595  0.00  0.00    +0.112 C 
ATOM      6  C   UNL     1      -5.451   2.389  -6.931  0.00  0.00    +0.219 C 
ATOM      7  O   UNL     1      -4.939   2.688  -7.989  0.00  0.00    -0.275 OA
ENDROOT
BRANCH   6   8
ATOM      8  C   UNL     1      -6.131   1.054  -6.774  0.00  0.00    +0.078 C 
ATOM      9  C   UNL     1      -5.101   0.001  -6.356  0.00  0.00    +0.031 C 
ATOM     10  C   UNL     1      -5.786  -1.365  -6.259  0.00  0.00    +0.106 C 
ATOM     11  N   UNL     1      -6.373  -1.714  -7.559  0.00  0.00    -0.330 N 
ATOM     12  C   UNL     1      -7.399  -0.742  -7.957  0.00  0.00    +0.106 C 
ATOM     13  C   UNL     1      -6.763   0.641  -8.106  0.00  0.00    +0.031 C 
BRANCH  11  14
ATOM     14  C   UNL     1      -6.890  -3.006  -7.541  0.00  0.00    +0.032 A 
ATOM     15  C   UNL     1      -8.224  -3.248  -7.868  0.00  0.00    +0.040 A 
ATOM     16  C   UNL     1      -8.696  -4.543  -7.843  0.00  0.00    +0.084 A 
ATOM     17  N   UNL     1      -7.906  -5.545  -7.506  0.00  0.00    -0.367 N 
ATOM     18  C   UNL     1      -6.640  -5.357  -7.184  0.00  0.00    +0.084 A 
ATOM     19  C   UNL     1      -6.089  -4.093  -7.190  0.00  0.00    +0.040 A 
ATOM     20  H   UNL     1      -8.298  -6.573  -7.486  0.00  0.00    +0.165 HD
ENDBRANCH  11  14
ENDBRANCH   6   8
BRANCH   1  21
ATOM     21  C   UNL     1      -6.357   4.478  -2.506  0.00  0.00    +0.111 C 
BRANCH  21  22
ATOM     22  N   UNL     1      -6.574   5.840  -2.014  0.00  0.00    -0.190 NA
ATOM     23  H   UNL     1      -6.246   6.701  -2.616  0.00  0.00    +0.148 HD
BRANCH  22  24
ATOM     24  S   UNL     1      -7.082   6.088  -0.458  0.00  0.00    +0.058 S 
ATOM     25  O   UNL     1      -8.188   5.221  -0.249  0.00  0.00    -0.153 OA
ATOM     26  O   UNL     1      -7.172   7.495  -0.279  0.00  0.00    -0.153 OA
BRANCH  24  29
ATOM     27  C   UNL     1      -4.807   3.736   1.857  0.00  0.00    +0.010 A 
ATOM     28  C   UNL     1      -5.784   4.200   1.030  0.00  0.00    +0.029 A 
ATOM     29  C   UNL     1      -5.794   5.527   0.606  0.00  0.00    +0.106 A 
ATOM     30  C   UNL     1      -4.821   6.395   0.996  0.00  0.00    +0.037 A 
ATOM     31  C   UNL     1      -3.793   5.951   1.844  0.00  0.00    -0.016 A 
ATOM     32  C   UNL     1      -3.785   4.602   2.281  0.00  0.00    -0.016 A 
ATOM     33  C   UNL     1      -2.756   4.157   3.128  0.00  0.00    +0.028 A 
ATOM     34  C   UNL     1      -1.783   5.026   3.519  0.00  0.00    +0.042 A 
ATOM     35  C   UNL     1      -1.790   6.353   3.089  0.00  0.00    +0.020 A 
ATOM     36  C   UNL     1      -2.771   6.818   2.268  0.00  0.00    +0.010 A 
ATOM     37 CL   UNL     1      -0.514   4.474   4.567  0.00  0.00    -0.084 Cl
ENDBRANCH  24  29
ENDBRANCH  22  24
ENDBRANCH  21  22
ENDBRANCH   1  21
TORSDOF 6
