REMARK  Name = ZINC39634824
REMARK  13 active torsions:
REMARK  status: ('A' for Active; 'I' for Inactive)
REMARK    1  A    between atoms: C_1  and  C_2
REMARK    2  A    between atoms: C_5  and  C_9
REMARK    3  A    between atoms: C_7  and  C_8
REMARK    4  A    between atoms: C_13  and  C_22
REMARK    5  A    between atoms: N_24  and  C_25
REMARK    6  A    between atoms: C_25  and  C_26
REMARK    7  A    between atoms: C_26  and  N_27
REMARK    8  A    between atoms: N_27  and  C_28
REMARK    9  A    between atoms: N_27  and  C_31
REMARK   10  A    between atoms: C_28  and  C_29
REMARK   11  A    between atoms: C_28  and  C_30
REMARK   12  A    between atoms: C_31  and  C_32
REMARK   13  A    between atoms: C_31  and  C_33
REMARK                            x       y       z     vdW  Elec       q    Type
REMARK                         _______ _______ _______ _____ _____    ______ ____
ROOT
ATOM      1  C   UNL     1      -1.130  -4.770  -1.450  0.00  0.00    +0.247 C 
ATOM      2  O   UNL     1      -1.151  -5.376  -0.396  0.00  0.00    -0.270 OA
ATOM      3  N   UNL     1      -0.927  -5.435  -2.605  0.00  0.00    -0.296 N 
ATOM      4  C   UNL     1      -0.749  -4.865  -3.961  0.00  0.00    +0.121 C 
ATOM      5  C   UNL     1       0.346  -5.740  -4.611  0.00  0.00    +0.100 C 
ATOM      6  C   UNL     1       0.286  -7.074  -3.850  0.00  0.00    -0.004 C 
ATOM      7  C   UNL     1      -0.825  -6.900  -2.804  0.00  0.00    +0.115 C 
ATOM      8  C   UNL     1       1.617  -7.348  -3.156  0.00  0.00    -0.010 C 
ATOM      9  C   UNL     1       1.552  -8.706  -2.453  0.00  0.00    -0.082 C 
ATOM     10  N   UNL     1       1.266  -9.756  -3.439  0.00  0.00    +0.379 N 
ATOM     11  C   UNL     1      -0.057  -9.537  -4.035  0.00  0.00    -0.082 C 
ATOM     12  C   UNL     1      -0.060  -8.213  -4.805  0.00  0.00    -0.010 C 
ATOM     13  H   UNL     1       1.968  -9.734  -4.164  0.00  0.00    -0.086 HD
ATOM     14  H   UNL     1       1.284 -10.656  -2.984  0.00  0.00    -0.086 HD
ENDROOT
BRANCH   1  19
ATOM     15  C   UNL     1      -1.899   0.932  -1.507  0.00  0.00    +0.044 C 
ATOM     16  C   UNL     1      -1.698  -0.561  -1.492  0.00  0.00    -0.047 A 
ATOM     17  C   UNL     1      -1.971  -1.304  -2.627  0.00  0.00    +0.004 A 
ATOM     18  C   UNL     1      -1.789  -2.672  -2.620  0.00  0.00    +0.013 A 
ATOM     19  C   UNL     1      -1.327  -3.305  -1.465  0.00  0.00    +0.037 A 
ATOM     20  C   UNL     1      -1.053  -2.549  -0.324  0.00  0.00    +0.016 A 
ATOM     21  C   UNL     1      -1.235  -1.182  -0.346  0.00  0.00    -0.047 A 
ATOM     22  C   UNL     1      -0.934  -0.363   0.883  0.00  0.00    +0.044 C 
ENDBRANCH   1  19
BRANCH   5  23
ATOM     23  C   UNL     1       1.699  -5.098  -4.443  0.00  0.00    +0.218 C 
ATOM     24  O   UNL     1       1.952  -4.471  -3.436  0.00  0.00    -0.275 OA
ATOM     25  N   UNL     1       2.628  -5.219  -5.412  0.00  0.00    -0.317 N 
ATOM     26  H   UNL     1       2.426  -5.720  -6.218  0.00  0.00    +0.149 HD
BRANCH  25  27
ATOM     27  C   UNL     1       3.943  -4.595  -5.249  0.00  0.00    +0.085 C 
BRANCH  27  28
ATOM     28  C   UNL     1       4.801  -4.883  -6.482  0.00  0.00    -0.059 C 
BRANCH  28  29
ATOM     29  N   UNL     1       6.164  -4.383  -6.258  0.00  0.00    +0.384 N 
ATOM     30  H   UNL     1       6.538  -4.791  -5.415  0.00  0.00    -0.081 HD
BRANCH  29  31
ATOM     31  C   UNL     1       7.014  -4.751  -7.399  0.00  0.00    -0.074 C 
ATOM     32  C   UNL     1       8.463  -4.359  -7.102  0.00  0.00    -0.014 C 
ATOM     33  C   UNL     1       6.932  -6.261  -7.630  0.00  0.00    -0.014 C 
ENDBRANCH  29  31
BRANCH  29  34
ATOM     34  C   UNL     1       6.133  -2.920  -6.123  0.00  0.00    -0.074 C 
ATOM     35  C   UNL     1       5.043  -2.347  -7.032  0.00  0.00    -0.014 C 
ATOM     36  C   UNL     1       5.832  -2.549  -4.669  0.00  0.00    -0.014 C 
ENDBRANCH  29  34
ENDBRANCH  28  29
ENDBRANCH  27  28
ENDBRANCH  25  27
ENDBRANCH   5  23
TORSDOF 7
