REMARK  Name = ZINC22171415
REMARK  6 active torsions:
REMARK  status: ('A' for Active; 'I' for Inactive)
REMARK    1  A    between atoms: C_1  and  C_2
REMARK    2  A    between atoms: C_5  and  S_8
REMARK    3  A    between atoms: S_8  and  N_11
REMARK    4  A    between atoms: N_11  and  C_12
REMARK    5  A    between atoms: C_15  and  C_24
REMARK    6  A    between atoms: C_22  and  C_23
REMARK                            x       y       z     vdW  Elec       q    Type
REMARK                         _______ _______ _______ _____ _____    ______ ____
ROOT
ATOM      1  C   UNL     1      -1.134   3.198   2.454  0.00  0.00    +0.052 A 
ATOM      2  C   UNL     1      -0.497   4.332   1.985  0.00  0.00    +0.036 A 
ATOM      3  C   UNL     1       0.337   5.059   2.840  0.00  0.00    +0.022 A 
ATOM      4  C   UNL     1       1.022   6.269   2.376  0.00  0.00    -0.033 A 
ATOM      5  C   UNL     1       1.822   6.928   3.252  0.00  0.00    +0.096 A 
ATOM      6  C   UNL     1       1.973   6.441   4.568  0.00  0.00    +0.337 A 
ATOM      7  O   UNL     1       2.694   7.041   5.344  0.00  0.00    -0.245 OA
ATOM      8  O   UNL     1       1.343   5.332   4.985  0.00  0.00    -0.422 OA
ATOM      9  C   UNL     1       0.532   4.629   4.164  0.00  0.00    +0.140 A 
ATOM     10  C   UNL     1      -0.112   3.485   4.615  0.00  0.00    +0.052 A 
ATOM     11  C   UNL     1      -0.937   2.777   3.768  0.00  0.00    -0.025 A 
ATOM     12  C   UNL     1      -1.632   1.536   4.266  0.00  0.00    +0.046 C 
ATOM     13  C   UNL     1       0.843   6.767   0.965  0.00  0.00    +0.045 C 
ENDROOT
BRANCH   1  14
ATOM     14  N   UNL     1      -1.974   2.469   1.607  0.00  0.00    -0.216 N 
ATOM     15  H   UNL     1      -2.880   1.990   2.009  0.00  0.00    +0.174 HD
BRANCH  14  16
ATOM     16  S   UNL     1      -1.606   2.325  -0.001  0.00  0.00    +0.072 S 
ATOM     17  O   UNL     1      -1.421   3.645  -0.495  0.00  0.00    -0.150 OA
ATOM     18  O   UNL     1      -2.559   1.431  -0.558  0.00  0.00    -0.150 OA
BRANCH  16  23
ATOM     19  C   UNL     1       3.754  -0.417  -0.386  0.00  0.00    +0.044 C 
ATOM     20  C   UNL     1       2.416   0.268  -0.288  0.00  0.00    -0.050 A 
ATOM     21  C   UNL     1       1.255  -0.483  -0.270  0.00  0.00    +0.005 A 
ATOM     22  C   UNL     1       0.027   0.145  -0.180  0.00  0.00    +0.029 A 
ATOM     23  C   UNL     1      -0.040   1.524  -0.108  0.00  0.00    +0.109 A 
ATOM     24  C   UNL     1       1.120   2.275  -0.125  0.00  0.00    +0.029 A 
ATOM     25  C   UNL     1       2.348   1.647  -0.216  0.00  0.00    +0.005 A 
ENDBRANCH  16  23
ENDBRANCH  14  16
ENDBRANCH   1  14
TORSDOF 3
