REMARK  Name = ZINC02422553
REMARK  3 active torsions:
REMARK  status: ('A' for Active; 'I' for Inactive)
REMARK    1  A    between atoms: C_1  and  N_2
REMARK    2  A    between atoms: C_6  and  C_7
REMARK    3  A    between atoms: N_13  and  C_14
REMARK                            x       y       z     vdW  Elec       q    Type
REMARK                         _______ _______ _______ _____ _____    ______ ____
ROOT
ATOM      1  C   UNL     1      -0.331  -0.536   2.562  0.00  0.00    +0.046 C 
ATOM      2  C   UNL     1      -0.284   0.781   2.911  0.00  0.00    +0.079 C 
ATOM      3  C   UNL     1      -0.438   1.976   2.068  0.00  0.00    +0.256 C 
ATOM      4  O   UNL     1      -0.641   1.887   0.870  0.00  0.00    -0.269 OA
ATOM      5  N   UNL     1      -0.347   3.151   2.667  0.00  0.00    -0.260 N 
ATOM      6  C   UNL     1      -0.118   3.232   4.024  0.00  0.00    +0.166 C 
ATOM      7  N   UNL     1      -0.001   4.306   4.771  0.00  0.00    -0.224 NA
ATOM      8  S   UNL     1      -0.025   1.518   4.518  0.00  0.00    -0.049 S 
ATOM      9  H   UNL     1      -0.443   3.965   2.147  0.00  0.00    +0.157 HD
ENDROOT
BRANCH   7  10
ATOM     10  C   UNL     1       0.170   4.184   6.124  0.00  0.00    +0.085 A 
ATOM     11  C   UNL     1       1.161   3.341   6.632  0.00  0.00    +0.031 A 
ATOM     12  C   UNL     1       1.329   3.223   7.996  0.00  0.00    +0.022 A 
ATOM     13  C   UNL     1       0.517   3.936   8.862  0.00  0.00    +0.042 A 
ATOM     14  C   UNL     1      -0.468   4.773   8.365  0.00  0.00    +0.042 A 
ATOM     15  C   UNL     1      -0.643   4.906   7.002  0.00  0.00    +0.068 A 
ATOM     16 CL   UNL     1      -1.873   5.961   6.381  0.00  0.00    -0.081 Cl
ATOM     17 CL   UNL     1       0.735   3.781  10.577  0.00  0.00    -0.083 Cl
ENDBRANCH   7  10
BRANCH   1  23
ATOM     18  C   UNL     1       1.587   0.366   0.342  0.00  0.00    +0.149 C 
ATOM     19  N   UNL     1       0.422  -0.510   0.188  0.00  0.00    -0.350 N 
ATOM     20  C   UNL     1       0.003  -1.076  -0.975  0.00  0.00    +0.086 A 
ATOM     21  C   UNL     1      -1.102  -1.819  -0.728  0.00  0.00    +0.020 A 
ATOM     22  C   UNL     1      -1.391  -1.720   0.636  0.00  0.00    +0.027 A 
ATOM     23  C   UNL     1      -0.426  -0.903   1.198  0.00  0.00    +0.043 A 
ENDBRANCH   1  23
TORSDOF 2
