REMARK  Name = ZINC35143887
REMARK  11 active torsions:
REMARK  status: ('A' for Active; 'I' for Inactive)
REMARK    1  A    between atoms: C_1  and  C_2
REMARK    2  A    between atoms: C_2  and  N_3
REMARK    3  A    between atoms: N_3  and  C_4
REMARK    4  A    between atoms: C_4  and  C_5
REMARK    5  A    between atoms: N_7  and  C_8
REMARK    6  A    between atoms: C_9  and  C_21
REMARK    7  A    between atoms: C_10  and  C_20
REMARK    8  A    between atoms: N_12  and  C_13
REMARK    9  A    between atoms: C_18  and  C_19
REMARK   10  A    between atoms: N_29  and  C_30
REMARK   11  A    between atoms: C_35  and  C_36
REMARK                            x       y       z     vdW  Elec       q    Type
REMARK                         _______ _______ _______ _____ _____    ______ ____
ROOT
ATOM      1  C   UNL     1      -2.814  -2.543  -1.211  0.00  0.00    +0.236 C 
ATOM      2  O   UNL     1      -2.655  -3.383  -0.351  0.00  0.00    -0.274 OA
ATOM      3  N   UNL     1      -2.655  -2.870  -2.509  0.00  0.00    -0.268 N 
ATOM      4  H   UNL     1      -2.833  -2.213  -3.200  0.00  0.00    +0.156 HD
ENDROOT
BRANCH   3   5
ATOM      5  C   UNL     1      -2.236  -4.150  -2.858  0.00  0.00    +0.137 A 
ATOM      6  C   UNL     1      -2.607  -4.856  -3.988  0.00  0.00    +0.045 A 
ATOM      7  C   UNL     1      -1.949  -6.101  -3.939  0.00  0.00    +0.070 A 
ATOM      8  N   UNL     1      -1.227  -6.144  -2.851  0.00  0.00    -0.169 NA
ATOM      9  N   UNL     1      -1.379  -4.939  -2.155  0.00  0.00    -0.217 N 
ATOM     10  C   UNL     1      -2.059  -7.197  -4.967  0.00  0.00    +0.068 C 
BRANCH   9  11
ATOM     11  C   UNL     1      -0.759  -4.605  -0.944  0.00  0.00    +0.070 A 
ATOM     12  C   UNL     1      -0.186  -3.351  -0.778  0.00  0.00    +0.028 A 
ATOM     13  C   UNL     1       0.424  -3.024   0.417  0.00  0.00    +0.002 A 
ATOM     14  C   UNL     1       0.464  -3.944   1.449  0.00  0.00    +0.000 A 
ATOM     15  C   UNL     1      -0.107  -5.193   1.287  0.00  0.00    +0.005 A 
ATOM     16  C   UNL     1      -0.723  -5.524   0.096  0.00  0.00    -0.025 A 
ATOM     17  C   UNL     1      -1.350  -6.884  -0.077  0.00  0.00    +0.046 C 
ENDBRANCH   9  11
BRANCH   6  18
ATOM     18  C   UNL     1      -3.528  -4.391  -5.053  0.00  0.00    -0.013 A 
ATOM     19  C   UNL     1      -4.870  -4.151  -4.762  0.00  0.00    +0.008 A 
ATOM     20  C   UNL     1      -5.722  -3.718  -5.757  0.00  0.00    +0.001 A 
ATOM     21  C   UNL     1      -5.247  -3.521  -7.041  0.00  0.00    +0.000 A 
ATOM     22  C   UNL     1      -3.916  -3.758  -7.336  0.00  0.00    +0.001 A 
ATOM     23  C   UNL     1      -3.053  -4.185  -6.347  0.00  0.00    +0.008 A 
ENDBRANCH   6  18
ENDBRANCH   3   5
BRANCH   1  24
ATOM     24  C   UNL     1      -3.190  -1.135  -0.830  0.00  0.00    +0.205 C 
BRANCH  24  25
ATOM     25  N   UNL     1      -3.301  -1.037   0.628  0.00  0.00    -0.277 N 
ATOM     26  C   UNL     1      -4.483  -1.276   1.231  0.00  0.00    +0.307 C 
ATOM     27  O   UNL     1      -5.456  -1.572   0.566  0.00  0.00    -0.252 OA
ATOM     28  N   UNL     1      -4.585  -1.186   2.572  0.00  0.00    -0.269 N 
ATOM     29  H   UNL     1      -3.824  -0.896   3.098  0.00  0.00    +0.156 HD
BRANCH  28  30
ATOM     30  C   UNL     1      -5.791  -1.510   3.205  0.00  0.00    +0.038 A 
ATOM     31  C   UNL     1      -6.993  -1.372   2.524  0.00  0.00    +0.023 A 
ATOM     32  C   UNL     1      -8.181  -1.694   3.151  0.00  0.00    +0.002 A 
ATOM     33  C   UNL     1      -8.174  -2.152   4.456  0.00  0.00    +0.000 A 
ATOM     34  C   UNL     1      -6.978  -2.289   5.137  0.00  0.00    +0.005 A 
ATOM     35  C   UNL     1      -5.786  -1.976   4.513  0.00  0.00    -0.029 A 
ATOM     36  C   UNL     1      -4.483  -2.132   5.254  0.00  0.00    +0.045 C 
ENDBRANCH  28  30
BRANCH  25  38
ATOM     37  C   UNL     1      -2.063   0.840   1.589  0.00  0.00    +0.024 C 
ATOM     38  C   UNL     1      -2.129  -0.680   1.430  0.00  0.00    +0.106 C 
ENDBRANCH  25  38
ENDBRANCH  24  25
ENDBRANCH   1  24
TORSDOF 7
