REMARK  Name = ZINC04332136
REMARK  5 active torsions:
REMARK  status: ('A' for Active; 'I' for Inactive)
REMARK    1  A    between atoms: C_8  and  C_10
REMARK    2  A    between atoms: C_10  and  O_12
REMARK    3  A    between atoms: O_12  and  C_13
REMARK    4  A    between atoms: C_13  and  C_14
REMARK    5  A    between atoms: C_14  and  C_16
REMARK                            x       y       z     vdW  Elec       q    Type
REMARK                         _______ _______ _______ _____ _____    ______ ____
ROOT
ATOM      1  O   UNL     1       5.350   3.904  -0.028  0.00  0.00    -0.451 OA
ENDROOT
BRANCH   1   2
ATOM      2  C   UNL     1       4.762   2.690  -0.029  0.00  0.00    +0.375 C 
ATOM      3  O   UNL     1       5.445   1.684  -0.040  0.00  0.00    -0.241 OA
BRANCH   2  11
ATOM      4  C   UNL     1      -1.203   1.746   0.017  0.00  0.00    +0.001 A 
ATOM      5  C   UNL     1      -1.229   3.134   0.030  0.00  0.00    +0.004 A 
ATOM      6  C   UNL     1      -0.058   3.861   0.023  0.00  0.00    +0.047 A 
ATOM      7  C   UNL     1       1.165   3.201   0.008  0.00  0.00    +0.136 A 
ATOM      8  C   UNL     1       1.186   1.794   0.000  0.00  0.00    +0.021 A 
ATOM      9  C   UNL     1      -0.013   1.076   0.008  0.00  0.00    +0.011 A 
ATOM     10  C   UNL     1       2.599   1.418  -0.015  0.00  0.00    +0.065 A 
ATOM     11  C   UNL     1       3.298   2.583  -0.015  0.00  0.00    +0.213 A 
ATOM     12  O   UNL     1       2.443   3.627  -0.002  0.00  0.00    -0.448 OA
ENDBRANCH   2  11
ENDBRANCH   1   2
BRANCH   1  13
ATOM     13  C   UNL     1       6.802   3.934  -0.041  0.00  0.00    +0.312 C 
BRANCH  13  14
ATOM     14  C   UNL     1       7.275   5.364  -0.038  0.00  0.00    +0.200 C 
ATOM     15  O   UNL     1       6.468   6.270  -0.026  0.00  0.00    -0.288 OA
BRANCH  14  16
ATOM     16  C   UNL     1       8.716   5.663  -0.051  0.00  0.00    +0.021 A 
ATOM     17  C   UNL     1       9.650   4.622  -0.065  0.00  0.00    +0.012 A 
ATOM     18  C   UNL     1      10.996   4.912  -0.076  0.00  0.00    +0.004 A 
ATOM     19  C   UNL     1      11.432   6.229  -0.073  0.00  0.00    -0.044 A 
ATOM     20  C   UNL     1      10.513   7.265  -0.059  0.00  0.00    -0.044 A 
ATOM     21  C   UNL     1       9.159   6.988  -0.054  0.00  0.00    +0.015 A 
ATOM     22  C   UNL     1      11.239   8.593  -0.059  0.00  0.00    +0.036 C 
ATOM     23  C   UNL     1      12.677   8.267  -0.515  0.00  0.00    +0.009 C 
ATOM     24  C   UNL     1      12.837   6.794  -0.083  0.00  0.00    +0.036 C 
ENDBRANCH  14  16
ENDBRANCH  13  14
ENDBRANCH   1  13
TORSDOF 5
