REMARK  Name = ZINC07424951
REMARK  3 active torsions:
REMARK  status: ('A' for Active; 'I' for Inactive)
REMARK    1  A    between atoms: C_4  and  C_7
REMARK    2  A    between atoms: C_9  and  C_12
REMARK    3  A    between atoms: C_14  and  C_18
REMARK                            x       y       z     vdW  Elec       q    Type
REMARK                         _______ _______ _______ _____ _____    ______ ____
ROOT
ATOM      1  C   UNL     1       5.691  -3.689  -0.083  0.00  0.00    +0.123 A 
ATOM      2  C   UNL     1       7.027  -4.020  -0.091  0.00  0.00    +0.062 A 
ATOM      3  C   UNL     1       7.118  -5.420  -0.106  0.00  0.00    +0.093 A 
ATOM      4  N   UNL     1       5.898  -5.917  -0.108  0.00  0.00    -0.173 NA
ATOM      5  N   UNL     1       4.983  -4.858  -0.087  0.00  0.00    -0.272 N 
ATOM      6  H   UNL     1       4.016  -4.940  -0.080  0.00  0.00    +0.189 HD
ENDROOT
BRANCH   3   7
ATOM      7  C   UNL     1       8.376  -6.208  -0.120  0.00  0.00    +0.002 A 
ATOM      8  C   UNL     1       9.608  -5.558  -0.112  0.00  0.00    +0.013 A 
ATOM      9  C   UNL     1      10.775  -6.294  -0.125  0.00  0.00    +0.039 A 
ATOM     10  C   UNL     1      10.723  -7.679  -0.145  0.00  0.00    +0.123 A 
ATOM     11  C   UNL     1       9.500  -8.329  -0.153  0.00  0.00    +0.039 A 
ATOM     12  C   UNL     1       8.328  -7.601  -0.135  0.00  0.00    +0.013 A 
ATOM     13  F   UNL     1      11.867  -8.396  -0.158  0.00  0.00    -0.205 F 
ENDBRANCH   3   7
BRANCH   1  16
ATOM     14  C   UNL     1       3.699  -0.689  -0.038  0.00  0.00    +0.202 A 
ATOM     15  N   UNL     1       3.850  -2.022  -0.052  0.00  0.00    -0.186 NA
ATOM     16  C   UNL     1       5.128  -2.328  -0.066  0.00  0.00    +0.277 A 
ATOM     17  O   UNL     1       5.834  -1.183  -0.060  0.00  0.00    -0.331 OA
ATOM     18  N   UNL     1       4.884  -0.128  -0.048  0.00  0.00    -0.056 NA
BRANCH  14  22
ATOM     19  C   UNL     1      -0.017   1.379   0.010  0.00  0.00    +0.000 A 
ATOM     20  C   UNL     1       1.169   2.092   0.002  0.00  0.00    +0.001 A 
ATOM     21  C   UNL     1       2.377   1.425  -0.013  0.00  0.00    +0.012 A 
ATOM     22  C   UNL     1       2.402   0.033  -0.021  0.00  0.00    +0.022 A 
ATOM     23  C   UNL     1       1.205  -0.680  -0.013  0.00  0.00    +0.012 A 
ATOM     24  C   UNL     1       0.002  -0.004   0.002  0.00  0.00    +0.001 A 
ENDBRANCH  14  22
ENDBRANCH   1  16
TORSDOF 3
