REMARK  Name = ZINC62840278
REMARK  5 active torsions:
REMARK  status: ('A' for Active; 'I' for Inactive)
REMARK    1  A    between atoms: C_1  and  C_2
REMARK    2  A    between atoms: C_2  and  C_8
REMARK    3  A    between atoms: N_10  and  C_11
REMARK    4  A    between atoms: C_14  and  S_18
REMARK    5  A    between atoms: S_18  and  N_21
REMARK                            x       y       z     vdW  Elec       q    Type
REMARK                         _______ _______ _______ _____ _____    ______ ____
ROOT
ATOM      1  C   UNL     1      -1.413  -0.523   0.012  0.00  0.00    +0.223 C 
ATOM      2  O   UNL     1      -1.793  -1.234   0.918  0.00  0.00    -0.275 OA
ATOM      3  N   UNL     1      -2.253  -0.208  -0.995  0.00  0.00    -0.284 N 
ATOM      4  H   UNL     1      -1.971   0.412  -1.685  0.00  0.00    +0.155 HD
ENDROOT
BRANCH   1   6
ATOM      5  C   UNL     1      -0.034   1.539   0.021  0.00  0.00    +0.021 C 
ATOM      6  C   UNL     1      -0.003   0.009   0.012  0.00  0.00    +0.041 C 
ATOM      7  C   UNL     1       0.730  -0.480  -1.240  0.00  0.00    -0.003 C 
ATOM      8  C   UNL     1       0.827  -2.007  -1.204  0.00  0.00    -0.082 C 
ATOM      9  N   UNL     1       1.566  -2.425  -0.007  0.00  0.00    +0.379 N 
ATOM     10  C   UNL     1       0.832  -2.022   1.198  0.00  0.00    -0.082 C 
ATOM     11  C   UNL     1       0.735  -0.496   1.254  0.00  0.00    -0.003 C 
ATOM     12  H   UNL     1       1.674  -3.429  -0.013  0.00  0.00    -0.086 HD
ATOM     13  H   UNL     1       2.477  -1.991  -0.006  0.00  0.00    -0.086 HD
ENDBRANCH   1   6
BRANCH   3  14
ATOM     14  C   UNL     1      -3.530  -0.777  -1.044  0.00  0.00    +0.048 A 
ATOM     15  C   UNL     1      -4.222  -1.037   0.132  0.00  0.00    +0.026 A 
ATOM     16  C   UNL     1      -5.483  -1.598   0.080  0.00  0.00    +0.030 A 
ATOM     17  C   UNL     1      -6.057  -1.902  -1.141  0.00  0.00    +0.106 A 
ATOM     18  C   UNL     1      -5.371  -1.646  -2.314  0.00  0.00    +0.045 A 
ATOM     19  C   UNL     1      -4.112  -1.079  -2.269  0.00  0.00    +0.041 A 
ATOM     20 BR   UNL     1      -3.177  -0.721  -3.874  0.00  0.00    -0.048 Br
BRANCH  17  21
ATOM     21  S   UNL     1      -7.666  -2.618  -1.202  0.00  0.00    +0.056 S 
ATOM     22  O   UNL     1      -7.755  -3.311  -2.440  0.00  0.00    -0.153 OA
ATOM     23  O   UNL     1      -7.872  -3.262   0.048  0.00  0.00    -0.153 OA
BRANCH  21  24
ATOM     24  N   UNL     1      -8.754  -1.372  -1.278  0.00  0.00    -0.204 NA
ATOM     25  H   UNL     1      -8.441  -0.454  -1.282  0.00  0.00    +0.144 HD
ATOM     26  H   UNL     1      -9.705  -1.560  -1.319  0.00  0.00    +0.144 HD
ENDBRANCH  21  24
ENDBRANCH  17  21
ENDBRANCH   3  14
TORSDOF 4
