REMARK  Name = ZINC48312495
REMARK  11 active torsions:
REMARK  status: ('A' for Active; 'I' for Inactive)
REMARK    1  A    between atoms: C_1  and  C_2
REMARK    2  A    between atoms: N_8  and  S_9
REMARK    3  A    between atoms: S_9  and  C_12
REMARK    4  A    between atoms: C_15  and  C_18
REMARK    5  A    between atoms: N_20  and  C_21
REMARK    6  A    between atoms: C_21  and  C_22
REMARK    7  A    between atoms: C_22  and  C_23
REMARK    8  A    between atoms: C_23  and  C_24
REMARK    9  A    between atoms: C_23  and  C_30
REMARK   10  A    between atoms: C_23  and  O_34
REMARK   11  A    between atoms: N_28  and  C_29
REMARK                            x       y       z     vdW  Elec       q    Type
REMARK                         _______ _______ _______ _____ _____    ______ ____
ROOT
ATOM      1  C   UNL     1      -3.520   0.338   6.461  0.00  0.00    +0.244 C 
ATOM      2  O   UNL     1      -4.361   1.208   6.340  0.00  0.00    -0.270 OA
ATOM      3  N   UNL     1      -3.233  -0.156   7.682  0.00  0.00    -0.311 N 
ATOM      4  H   UNL     1      -2.563  -0.850   7.779  0.00  0.00    +0.149 HD
ENDROOT
BRANCH   1   8
ATOM      5  C   UNL     1      -1.485  -1.143   3.039  0.00  0.00    +0.106 A 
ATOM      6  C   UNL     1      -2.442  -0.153   2.897  0.00  0.00    +0.029 A 
ATOM      7  C   UNL     1      -3.107   0.332   4.005  0.00  0.00    +0.015 A 
ATOM      8  C   UNL     1      -2.812  -0.178   5.270  0.00  0.00    +0.037 A 
ATOM      9  C   UNL     1      -1.846  -1.176   5.407  0.00  0.00    +0.015 A 
ATOM     10  C   UNL     1      -1.193  -1.656   4.290  0.00  0.00    +0.029 A 
BRANCH   5  11
ATOM     11  S   UNL     1      -0.641  -1.757   1.620  0.00  0.00    +0.061 S 
ATOM     12  O   UNL     1       0.510  -2.441   2.096  0.00  0.00    -0.153 OA
ATOM     13  O   UNL     1      -0.559  -0.679   0.698  0.00  0.00    -0.153 OA
BRANCH  11  20
ATOM     14  C   UNL     1      -0.573  -4.439   2.521  0.00  0.00    +0.026 C 
ATOM     15  C   UNL     1      -1.648  -4.274   1.446  0.00  0.00    +0.077 C 
ATOM     16  C   UNL     1      -1.377  -5.246   0.294  0.00  0.00    +0.020 C 
ATOM     17  C   UNL     1      -2.372  -4.980  -0.839  0.00  0.00    +0.003 C 
ATOM     18  C   UNL     1      -2.187  -3.553  -1.358  0.00  0.00    +0.017 C 
ATOM     19  C   UNL     1      -2.467  -2.561  -0.224  0.00  0.00    +0.110 C 
ATOM     20  N   UNL     1      -1.618  -2.900   0.926  0.00  0.00    -0.174 NA
ENDBRANCH  11  20
ENDBRANCH   5  11
ENDBRANCH   1   8
BRANCH   3  21
ATOM     21  C   UNL     1      -3.935   0.355   8.862  0.00  0.00    +0.108 C 
BRANCH  21  22
ATOM     22  C   UNL     1      -3.426  -0.368  10.111  0.00  0.00    +0.070 C 
BRANCH  22  23
ATOM     23  C   UNL     1      -4.260   0.057  11.322  0.00  0.00    +0.220 C 
BRANCH  23  24
ATOM     24  C   UNL     1      -3.778  -0.678  12.546  0.00  0.00    +0.150 A 
ATOM     25  N   UNL     1      -2.618  -1.262  12.675  0.00  0.00    -0.237 NA
ATOM     26  C   UNL     1      -2.534  -1.813  13.895  0.00  0.00    +0.130 A 
ATOM     27  C   UNL     1      -3.686  -1.562  14.546  0.00  0.00    +0.106 A 
ATOM     28  N   UNL     1      -4.473  -0.837  13.693  0.00  0.00    -0.335 N 
ATOM     29  C   UNL     1      -5.820  -0.331  13.970  0.00  0.00    +0.150 C 
ENDBRANCH  23  24
BRANCH  23  30
ATOM     30  C   UNL     1      -4.111   1.564  11.540  0.00  0.00    +0.425 C 
ATOM     31  F   UNL     1      -4.687   2.250  10.465  0.00  0.00    -0.167 F 
ATOM     32  F   UNL     1      -4.755   1.929  12.726  0.00  0.00    -0.167 F 
ATOM     33  F   UNL     1      -2.753   1.890  11.627  0.00  0.00    -0.167 F 
ENDBRANCH  23  30
BRANCH  23  34
ATOM     34  O   UNL     1      -5.634  -0.257  11.088  0.00  0.00    -0.373 OA
ATOM     35  H   UNL     1      -5.803  -1.198  10.941  0.00  0.00    +0.211 HD
ENDBRANCH  23  34
ENDBRANCH  22  23
ENDBRANCH  21  22
ENDBRANCH   3  21
TORSDOF 9
