REMARK  Name = ZINC39684133
REMARK  7 active torsions:
REMARK  status: ('A' for Active; 'I' for Inactive)
REMARK    1  A    between atoms: C_1  and  C_2
REMARK    2  A    between atoms: C_7  and  C_11
REMARK    3  A    between atoms: C_11  and  C_12
REMARK    4  A    between atoms: C_12  and  N_13
REMARK    5  A    between atoms: C_14  and  C_16
REMARK    6  A    between atoms: C_27  and  C_29
REMARK    7  A    between atoms: C_29  and  C_35
REMARK                            x       y       z     vdW  Elec       q    Type
REMARK                         _______ _______ _______ _____ _____    ______ ____
ROOT
ATOM      1  C   UNL     1      -8.678   1.728  -6.242  0.00  0.00    +0.100 C 
ATOM      2  C   UNL     1      -9.901   2.130  -5.387  0.00  0.00    +0.121 C 
ATOM      3  N   UNL     1     -11.072   1.670  -6.169  0.00  0.00    -0.300 N 
ATOM      4  C   UNL     1     -10.653   0.363  -6.728  0.00  0.00    +0.115 C 
ATOM      5  C   UNL     1      -9.176   0.567  -7.120  0.00  0.00    -0.004 C 
ATOM      6  C   UNL     1      -8.373  -0.698  -6.829  0.00  0.00    -0.010 C 
ATOM      7  C   UNL     1      -8.847  -1.822  -7.754  0.00  0.00    -0.082 C 
ATOM      8  N   UNL     1      -8.666  -1.415  -9.153  0.00  0.00    +0.379 N 
ATOM      9  C   UNL     1      -9.512  -0.254  -9.450  0.00  0.00    -0.082 C 
ATOM     10  C   UNL     1      -9.068   0.937  -8.596  0.00  0.00    -0.010 C 
ATOM     11  C   UNL     1     -12.253   2.299  -6.335  0.00  0.00    +0.222 C 
ATOM     12  O   UNL     1     -13.151   1.753  -6.941  0.00  0.00    -0.275 OA
ATOM     13  H   UNL     1      -7.699  -1.174  -9.309  0.00  0.00    -0.086 HD
ATOM     14  H   UNL     1      -8.921  -2.180  -9.760  0.00  0.00    -0.086 HD
ENDROOT
BRANCH  11  15
ATOM     15  C   UNL     1     -12.458   3.680  -5.768  0.00  0.00    +0.044 C 
ATOM     16  C   UNL     1     -12.156   3.666  -4.269  0.00  0.00    +0.016 C 
ATOM     17  C   UNL     1     -13.097   2.683  -3.568  0.00  0.00    +0.001 C 
ATOM     18  C   UNL     1     -14.546   3.116  -3.793  0.00  0.00    +0.000 C 
ATOM     19  C   UNL     1     -14.848   3.131  -5.293  0.00  0.00    +0.001 C 
ATOM     20  C   UNL     1     -13.908   4.114  -5.993  0.00  0.00    +0.016 C 
ATOM     21  C   UNL     1     -11.517   4.663  -6.468  0.00  0.00    +0.021 C 
ENDBRANCH  11  15
BRANCH   1  23
ATOM     22  N   UNL     1      -6.284   1.269  -5.826  0.00  0.00    -0.315 N 
ATOM     23  C   UNL     1      -7.548   1.269  -5.358  0.00  0.00    +0.218 C 
ATOM     24  O   UNL     1      -7.775   0.901  -4.225  0.00  0.00    -0.275 OA
ATOM     25  H   UNL     1      -6.102   1.564  -6.732  0.00  0.00    +0.149 HD
BRANCH  22  26
ATOM     26  C   UNL     1      -5.184   0.824  -4.966  0.00  0.00    +0.109 C 
BRANCH  26  27
ATOM     27  C   UNL     1      -3.864   0.922  -5.734  0.00  0.00    +0.056 C 
BRANCH  27  34
ATOM     28  C   UNL     1       0.582  -1.976  -2.394  0.00  0.00    +0.046 C 
ATOM     29  C   UNL     1      -0.574  -2.026  -3.359  0.00  0.00    -0.027 A 
ATOM     30  C   UNL     1      -1.003  -3.235  -3.862  0.00  0.00    +0.005 A 
ATOM     31  C   UNL     1      -2.066  -3.294  -4.752  0.00  0.00    +0.001 A 
ATOM     32  C   UNL     1      -2.707  -2.153  -5.146  0.00  0.00    +0.010 A 
ATOM     33  C   UNL     1      -2.289  -0.917  -4.649  0.00  0.00    +0.003 A 
ATOM     34  C   UNL     1      -2.733   0.464  -4.850  0.00  0.00    -0.021 A 
ATOM     35  C   UNL     1      -1.942   1.244  -4.097  0.00  0.00    +0.087 A 
ATOM     36  N   UNL     1      -1.027   0.476  -3.431  0.00  0.00    -0.360 N 
ATOM     37  C   UNL     1      -1.215  -0.852  -3.742  0.00  0.00    +0.050 A 
ATOM     38  H   UNL     1      -0.348   0.816  -2.826  0.00  0.00    +0.165 HD
ENDBRANCH  27  34
ENDBRANCH  26  27
ENDBRANCH  22  26
ENDBRANCH   1  23
TORSDOF 5
