REMARK  Name = ZINC26456518
REMARK  5 active torsions:
REMARK  status: ('A' for Active; 'I' for Inactive)
REMARK    1  A    between atoms: C_1  and  C_2
REMARK    2  A    between atoms: C_9  and  C_11
REMARK    3  A    between atoms: C_12  and  C_36
REMARK    4  A    between atoms: C_16  and  C_18
REMARK    5  A    between atoms: C_28  and  C_31
REMARK                            x       y       z     vdW  Elec       q    Type
REMARK                         _______ _______ _______ _____ _____    ______ ____
ROOT
ATOM      1  C   UNL     1      -1.281   2.913  -0.359  0.00  0.00    +0.043 C 
ATOM      2  C   UNL     1      -1.209   1.625   0.012  0.00  0.00    +0.014 C 
ATOM      3  N   UNL     1      -0.012   0.964   0.000  0.00  0.00    -0.321 N 
ATOM      4  C   UNL     1       1.168   1.657  -0.009  0.00  0.00    +0.016 C 
ATOM      5  C   UNL     1       1.199   2.954  -0.384  0.00  0.00    +0.024 C 
ATOM      6  C   UNL     1      -0.062   3.660  -0.815  0.00  0.00    +0.093 C 
ATOM      7  C   UNL     1       2.401   3.681  -0.382  0.00  0.00    +0.162 C 
ATOM      8  O   UNL     1       2.395   4.845  -0.733  0.00  0.00    -0.292 OA
ATOM      9  C   UNL     1       3.696   3.046   0.046  0.00  0.00    +0.091 C 
ATOM     10  C   UNL     1       3.396   1.931   1.053  0.00  0.00    +0.068 C 
ATOM     11  C   UNL     1       2.429   0.939   0.406  0.00  0.00    +0.062 C 
ATOM     12  C   UNL     1      -2.458   0.905   0.451  0.00  0.00    +0.061 C 
ATOM     13  H   UNL     1       0.008  -0.136  -0.002  0.00  0.00    +0.152 HD
ENDROOT
BRANCH   1  22
ATOM     14  C   UNL     1      -7.679   7.303  -0.946  0.00  0.00    +0.045 C 
ATOM     15  C   UNL     1      -6.307   6.682  -0.894  0.00  0.00    -0.032 A 
ATOM     16  C   UNL     1      -5.198   7.395  -1.329  0.00  0.00    +0.008 A 
ATOM     17  C   UNL     1      -3.955   6.791  -1.260  0.00  0.00    +0.044 A 
ATOM     18  C   UNL     1      -3.862   5.492  -0.771  0.00  0.00    +0.125 A 
ATOM     19  N   UNL     1      -4.943   4.844  -0.366  0.00  0.00    -0.240 NA
ATOM     20  C   UNL     1      -6.140   5.398  -0.415  0.00  0.00    +0.116 A 
ATOM     21  N   UNL     1      -2.618   4.869  -0.701  0.00  0.00    -0.267 N 
ATOM     22  C   UNL     1      -2.531   3.578  -0.326  0.00  0.00    +0.248 C 
ATOM     23  O   UNL     1      -3.527   2.982   0.042  0.00  0.00    -0.270 OA
ATOM     24  H   UNL     1      -1.706   5.431  -0.953  0.00  0.00    +0.157 HD
ENDBRANCH   1  22
BRANCH   6  25
ATOM     25  C   UNL     1      -0.080   3.767  -2.318  0.00  0.00    -0.000 A 
ATOM     26  C   UNL     1      -0.047   2.623  -3.093  0.00  0.00    +0.007 A 
ATOM     27  C   UNL     1      -0.069   2.720  -4.471  0.00  0.00    +0.000 A 
ATOM     28  C   UNL     1      -0.114   3.963  -5.077  0.00  0.00    +0.003 A 
ATOM     29  C   UNL     1      -0.142   5.108  -4.304  0.00  0.00    +0.038 A 
ATOM     30  C   UNL     1      -0.125   5.011  -2.923  0.00  0.00    +0.127 A 
ATOM     31  F   UNL     1      -0.153   6.130  -2.167  0.00  0.00    -0.205 F 
ENDBRANCH   6  25
BRANCH  10  32
ATOM     32  C   UNL     1       4.675   1.225   1.421  0.00  0.00    +0.109 A 
ATOM     33  C   UNL     1       5.196   1.133   2.659  0.00  0.00    +0.045 A 
ATOM     34  C   UNL     1       6.393   0.389   2.546  0.00  0.00    +0.041 A 
ATOM     35  C   UNL     1       6.532   0.070   1.246  0.00  0.00    +0.195 A 
ATOM     36  O   UNL     1       5.486   0.574   0.571  0.00  0.00    -0.468 OA
ENDBRANCH  10  32
TORSDOF 3
