REMARK  Name = ZINC27240260
REMARK  9 active torsions:
REMARK  status: ('A' for Active; 'I' for Inactive)
REMARK    1  A    between atoms: C_1  and  C_2
REMARK    2  A    between atoms: C_5  and  C_8
REMARK    3  A    between atoms: C_8  and  C_9
REMARK    4  A    between atoms: C_8  and  C_12
REMARK    5  A    between atoms: C_8  and  O_28
REMARK    6  A    between atoms: C_9  and  C_10
REMARK    7  A    between atoms: C_12  and  C_14
REMARK    8  A    between atoms: C_12  and  C_21
REMARK    9  A    between atoms: C_14  and  N_15
REMARK                            x       y       z     vdW  Elec       q    Type
REMARK                         _______ _______ _______ _____ _____    ______ ____
ROOT
ATOM      1  C   UNL     1      -1.706   1.117  -2.718  0.00  0.00    +0.069 C 
ENDROOT
BRANCH   1   2
ATOM      2  C   UNL     1      -0.498   0.221  -2.632  0.00  0.00    -0.040 A 
ATOM      3  C   UNL     1      -0.599  -1.019  -2.029  0.00  0.00    +0.005 A 
ATOM      4  C   UNL     1       0.508  -1.843  -1.955  0.00  0.00    +0.020 A 
ATOM      5  C   UNL     1       1.720  -1.423  -2.474  0.00  0.00    +0.041 A 
ATOM      6  C   UNL     1       1.821  -0.180  -3.073  0.00  0.00    +0.020 A 
ATOM      7  C   UNL     1       0.712   0.641  -3.152  0.00  0.00    +0.005 A 
ATOM      8 CL   UNL     1       3.112  -2.455  -2.375  0.00  0.00    -0.084 Cl
ENDBRANCH   1   2
BRANCH   1   9
ATOM      9  C   UNL     1      -2.213   1.427  -1.308  0.00  0.00    +0.102 C 
BRANCH   9  14
ATOM     10  C   UNL     1      -7.216   4.300  -1.647  0.00  0.00    +0.044 C 
ATOM     11  C   UNL     1      -5.911   3.550  -1.558  0.00  0.00    -0.050 A 
ATOM     12  C   UNL     1      -5.836   2.377  -0.831  0.00  0.00    +0.004 A 
ATOM     13  C   UNL     1      -4.639   1.690  -0.750  0.00  0.00    +0.007 A 
ATOM     14  C   UNL     1      -3.518   2.176  -1.397  0.00  0.00    -0.015 A 
ATOM     15  C   UNL     1      -3.592   3.352  -2.119  0.00  0.00    +0.007 A 
ATOM     16  C   UNL     1      -4.790   4.037  -2.204  0.00  0.00    +0.004 A 
ENDBRANCH   9  14
BRANCH   9  17
ATOM     17  O   UNL     1      -2.413   0.205  -0.595  0.00  0.00    -0.383 OA
ATOM     18  H   UNL     1      -1.568  -0.480  -0.429  0.00  0.00    +0.211 HD
ENDBRANCH   9  17
BRANCH   9  19
ATOM     19  C   UNL     1      -1.182   2.284  -0.573  0.00  0.00    +0.066 C 
BRANCH  19  20
ATOM     20  C   UNL     1       0.155   1.589  -0.591  0.00  0.00    -0.031 C 
ATOM     21  C   UNL     1       1.208   2.206  -1.066  0.00  0.00    +0.004 C 
ENDBRANCH  19  20
ENDBRANCH   9  19
ENDBRANCH   1   9
BRANCH   1  22
ATOM     22  C   UNL     1      -2.808   0.413  -3.513  0.00  0.00    +0.096 C 
BRANCH  22  23
ATOM     23  N   UNL     1      -2.365   0.222  -4.901  0.00  0.00    -0.297 NA
ATOM     24  C   UNL     1      -2.344   1.500  -5.627  0.00  0.00    +0.112 C 
ATOM     25  C   UNL     1      -1.821   1.265  -7.047  0.00  0.00    +0.175 C 
ATOM     26  O   UNL     1      -2.639   0.287  -7.695  0.00  0.00    -0.377 OA
ATOM     27  C   UNL     1      -2.682  -0.970  -7.014  0.00  0.00    +0.175 C 
ATOM     28  C   UNL     1      -3.213  -0.757  -5.595  0.00  0.00    +0.112 C 
ENDBRANCH  22  23
ENDBRANCH   1  22
TORSDOF 8
