REMARK  Name = ZINC36260717
REMARK  7 active torsions:
REMARK  status: ('A' for Active; 'I' for Inactive)
REMARK    1  A    between atoms: C_1  and  C_2
REMARK    2  A    between atoms: C_2  and  C_3
REMARK    3  A    between atoms: C_2  and  C_4
REMARK    4  A    between atoms: C_2  and  S_5
REMARK    5  A    between atoms: S_5  and  C_6
REMARK    6  A    between atoms: C_6  and  C_7
REMARK    7  A    between atoms: N_9  and  C_10
REMARK                            x       y       z     vdW  Elec       q    Type
REMARK                         _______ _______ _______ _____ _____    ______ ____
ROOT
ATOM      1  C   UNL     1       5.416  -0.292  -3.820  0.00  0.00    +0.070 C 
ATOM      2  C   UNL     1       5.162   0.677  -4.978  0.00  0.00    +0.003 C 
ATOM      3  C   UNL     1       6.057   0.297  -6.159  0.00  0.00    -0.080 C 
ATOM      4  N   UNL     1       7.466   0.374  -5.754  0.00  0.00    +0.383 N 
ATOM      5  C   UNL     1       7.734  -0.603  -4.692  0.00  0.00    -0.067 C 
ATOM      6  C   UNL     1       6.902  -0.260  -3.454  0.00  0.00    +0.010 C 
ATOM      7  C   UNL     1       9.221  -0.569  -4.330  0.00  0.00    -0.012 C 
ATOM      8  C   UNL     1      10.055  -0.917  -5.564  0.00  0.00    -0.001 C 
ATOM      9  C   UNL     1       9.682  -2.318  -6.053  0.00  0.00    -0.000 C 
ATOM     10  C   UNL     1       8.196  -2.353  -6.415  0.00  0.00    -0.001 C 
ATOM     11  C   UNL     1       7.362  -2.004  -5.181  0.00  0.00    -0.012 C 
ATOM     12  H   UNL     1       8.055   0.176  -6.549  0.00  0.00    -0.085 HD
ATOM     13  H   UNL     1       7.667   1.303  -5.413  0.00  0.00    -0.085 HD
ENDROOT
BRANCH   1  16
ATOM     14  C   UNL     1       3.338  -0.298  -2.546  0.00  0.00    +0.223 C 
ATOM     15  O   UNL     1       2.848  -1.001  -3.405  0.00  0.00    -0.275 OA
ATOM     16  N   UNL     1       4.617   0.111  -2.659  0.00  0.00    -0.312 N 
ATOM     17  H   UNL     1       5.009   0.673  -1.972  0.00  0.00    +0.149 HD
BRANCH  14  18
ATOM     18  C   UNL     1       2.517   0.116  -1.353  0.00  0.00    +0.165 C 
BRANCH  18  19
ATOM     19  S   UNL     1       0.851  -0.589  -1.490  0.00  0.00    -0.145 S 
BRANCH  19  21
ATOM     20  C   UNL     1      -0.019   1.526   0.010  0.00  0.00    +0.022 C 
ATOM     21  C   UNL     1       0.002  -0.004   0.002  0.00  0.00    +0.009 C 
ATOM     22  C   UNL     1       0.742  -0.511   1.242  0.00  0.00    +0.022 C 
ATOM     23  C   UNL     1      -1.433  -0.534   0.013  0.00  0.00    +0.022 C 
ENDBRANCH  19  21
ENDBRANCH  18  19
ENDBRANCH  14  18
ENDBRANCH   1  16
TORSDOF 4
