REMARK  Name = ZINC36006943
REMARK  7 active torsions:
REMARK  status: ('A' for Active; 'I' for Inactive)
REMARK    1  A    between atoms: C_1  and  O_2
REMARK    2  A    between atoms: O_2  and  C_3
REMARK    3  A    between atoms: C_3  and  C_5
REMARK    4  A    between atoms: C_5  and  C_36
REMARK    5  A    between atoms: C_6  and  C_29
REMARK    6  A    between atoms: C_8  and  C_21
REMARK    7  A    between atoms: C_21  and  C_23
REMARK                            x       y       z     vdW  Elec       q    Type
REMARK                         _______ _______ _______ _____ _____    ______ ____
ROOT
ATOM      1  C   UNL     1       0.935  -1.947  -1.002  0.00  0.00    +0.184 C 
ATOM      2  C   UNL     1       1.223  -2.651  -2.355  0.00  0.00    +0.080 C 
ATOM      3  C   UNL     1       0.160  -3.784  -2.354  0.00  0.00    +0.154 C 
ATOM      4  N   UNL     1      -1.026  -3.144  -1.779  0.00  0.00    -0.316 N 
ATOM      5  C   UNL     1      -0.581  -2.119  -0.812  0.00  0.00    +0.136 C 
ATOM      6  C   UNL     1      -1.318  -0.850  -1.156  0.00  0.00    -0.018 A 
ATOM      7  C   UNL     1      -0.783   0.384  -0.866  0.00  0.00    +0.006 A 
ATOM      8  C   UNL     1      -1.478   1.535  -1.196  0.00  0.00    +0.000 A 
ATOM      9  C   UNL     1      -2.711   1.450  -1.818  0.00  0.00    +0.001 A 
ATOM     10  C   UNL     1      -3.260   0.219  -2.112  0.00  0.00    +0.008 A 
ATOM     11  C   UNL     1      -2.567  -0.947  -1.780  0.00  0.00    -0.019 A 
ATOM     12  C   UNL     1      -3.155  -2.269  -2.080  0.00  0.00    +0.023 C 
ATOM     13  C   UNL     1      -2.359  -3.358  -2.086  0.00  0.00    +0.072 C 
ENDROOT
BRANCH   2  14
ATOM     14  C   UNL     1       1.007  -1.709  -3.511  0.00  0.00    -0.040 A 
ATOM     15  C   UNL     1       2.090  -1.235  -4.227  0.00  0.00    +0.005 A 
ATOM     16  C   UNL     1       1.892  -0.371  -5.288  0.00  0.00    +0.015 A 
ATOM     17  C   UNL     1       0.610   0.019  -5.632  0.00  0.00    +0.018 A 
ATOM     18  C   UNL     1      -0.473  -0.456  -4.915  0.00  0.00    +0.015 A 
ATOM     19  C   UNL     1      -0.275  -1.324  -3.858  0.00  0.00    +0.005 A 
ATOM     20 BR   UNL     1       0.339   1.202  -7.083  0.00  0.00    -0.050 Br
ENDBRANCH   2  14
BRANCH   1  21
ATOM     21  C   UNL     1       1.296  -0.486  -1.080  0.00  0.00    +0.330 C 
ATOM     22  O   UNL     1       1.856   0.049  -0.152  0.00  0.00    -0.249 OA
BRANCH  21  24
ATOM     23  C   UNL     1       1.473   1.568  -2.236  0.00  0.00    +0.280 C 
ATOM     24  O   UNL     1       0.995   0.222  -2.180  0.00  0.00    -0.467 OA
ENDBRANCH  21  24
ENDBRANCH   1  21
BRANCH   3  25
ATOM     25  C   UNL     1      -0.115  -4.254  -3.759  0.00  0.00    +0.184 C 
ATOM     26  O   UNL     1      -1.098  -3.858  -4.349  0.00  0.00    -0.290 OA
BRANCH  25  27
ATOM     27  C   UNL     1       0.809  -5.192  -4.416  0.00  0.00    +0.019 A 
ATOM     28  C   UNL     1       1.941  -5.655  -3.737  0.00  0.00    +0.011 A 
ATOM     29  C   UNL     1       2.802  -6.534  -4.359  0.00  0.00    +0.001 A 
ATOM     30  C   UNL     1       2.548  -6.958  -5.652  0.00  0.00    +0.000 A 
ATOM     31  C   UNL     1       1.431  -6.505  -6.330  0.00  0.00    +0.001 A 
ATOM     32  C   UNL     1       0.557  -5.630  -5.720  0.00  0.00    +0.011 A 
ENDBRANCH  25  27
ENDBRANCH   3  25
BRANCH   1  33
ATOM     33  C   UNL     1       1.670  -2.602   0.092  0.00  0.00    +0.084 C 
ATOM     34  N   UNL     1       2.238  -3.107   0.936  0.00  0.00    -0.195 NA
ENDBRANCH   1  33
TORSDOF 6
