REMARK  Name = ZINC14763897
REMARK  10 active torsions:
REMARK  status: ('A' for Active; 'I' for Inactive)
REMARK    1  A    between atoms: C_1  and  C_2
REMARK    2  A    between atoms: C_2  and  C_4
REMARK    3  A    between atoms: C_2  and  N_22
REMARK    4  A    between atoms: C_4  and  O_6
REMARK    5  A    between atoms: O_6  and  C_7
REMARK    6  A    between atoms: C_7  and  C_9
REMARK    7  A    between atoms: C_7  and  C_10
REMARK    8  A    between atoms: N_12  and  C_13
REMARK    9  A    between atoms: N_22  and  S_23
REMARK   10  A    between atoms: S_23  and  C_26
REMARK                            x       y       z     vdW  Elec       q    Type
REMARK                         _______ _______ _______ _____ _____    ______ ____
ROOT
ATOM      1  C   UNL     1       0.715  -0.483  -1.240  0.00  0.00    +0.326 C 
ATOM      2  O   UNL     1       1.713  -1.158  -1.144  0.00  0.00    -0.249 OA
ENDROOT
BRANCH   1   4
ATOM      3  C   UNL     1      -0.021   1.529   0.009  0.00  0.00    +0.037 C 
ATOM      4  C   UNL     1       0.011  -0.000   0.002  0.00  0.00    +0.182 C 
BRANCH   4   5
ATOM      5  N   UNL     1       0.726  -0.479   1.187  0.00  0.00    -0.176 NA
ATOM      6  H   UNL     1       1.693  -0.552   1.173  0.00  0.00    +0.149 HD
BRANCH   5   7
ATOM      7  S   UNL     1      -0.116  -0.896   2.550  0.00  0.00    +0.059 S 
ATOM      8  O   UNL     1       0.843  -1.340   3.500  0.00  0.00    -0.153 OA
ATOM      9  O   UNL     1      -1.014   0.173   2.816  0.00  0.00    -0.153 OA
BRANCH   7  10
ATOM     10  C   UNL     1      -1.106  -2.296   2.143  0.00  0.00    +0.105 A 
ATOM     11  C   UNL     1      -2.385  -2.117   1.649  0.00  0.00    +0.030 A 
ATOM     12  C   UNL     1      -3.162  -3.214   1.330  0.00  0.00    +0.022 A 
ATOM     13  C   UNL     1      -2.660  -4.492   1.504  0.00  0.00    +0.041 A 
ATOM     14  C   UNL     1      -1.381  -4.670   1.998  0.00  0.00    +0.022 A 
ATOM     15  C   UNL     1      -0.602  -3.572   2.312  0.00  0.00    +0.030 A 
ATOM     16 CL   UNL     1      -3.636  -5.870   1.104  0.00  0.00    -0.084 Cl
ENDBRANCH   7  10
ENDBRANCH   5   7
ENDBRANCH   4   5
ENDBRANCH   1   4
BRANCH   1  17
ATOM     17  O   UNL     1       0.235  -0.163  -2.452  0.00  0.00    -0.451 OA
BRANCH  17  18
ATOM     18  C   UNL     1       0.953  -0.654  -3.585  0.00  0.00    +0.259 C 
ATOM     19  C   UNL     1       2.018   0.365  -3.995  0.00  0.00    +0.062 C 
BRANCH  18  20
ATOM     20  C   UNL     1      -0.002  -0.871  -4.730  0.00  0.00    +0.258 C 
ATOM     21  O   UNL     1      -1.165  -0.543  -4.620  0.00  0.00    -0.271 OA
ATOM     22  N   UNL     1       0.436  -1.428  -5.877  0.00  0.00    -0.282 N 
ATOM     23  H   UNL     1       1.378  -1.628  -5.990  0.00  0.00    +0.155 HD
BRANCH  22  24
ATOM     24  C   UNL     1      -0.470  -1.718  -6.905  0.00  0.00    +0.037 A 
ATOM     25  C   UNL     1      -0.288  -2.846  -7.693  0.00  0.00    +0.027 A 
ATOM     26  C   UNL     1      -1.181  -3.134  -8.707  0.00  0.00    +0.051 A 
ATOM     27  C   UNL     1      -2.260  -2.298  -8.941  0.00  0.00    +0.166 A 
ATOM     28  C   UNL     1      -2.446  -1.165  -8.152  0.00  0.00    +0.168 A 
ATOM     29  C   UNL     1      -1.554  -0.880  -7.132  0.00  0.00    +0.072 A 
ATOM     30  O   UNL     1      -3.567  -0.514  -8.580  0.00  0.00    -0.453 OA
ATOM     31  C   UNL     1      -3.836  -1.034  -9.895  0.00  0.00    +0.466 C 
ATOM     32  O   UNL     1      -3.267  -2.356  -9.864  0.00  0.00    -0.453 OA
ENDBRANCH  22  24
ENDBRANCH  18  20
ENDBRANCH  17  18
ENDBRANCH   1  17
TORSDOF 8
