REMARK  Name = ZINC02398355
REMARK  7 active torsions:
REMARK  status: ('A' for Active; 'I' for Inactive)
REMARK    1  A    between atoms: C_1  and  O_2
REMARK    2  A    between atoms: O_2  and  C_3
REMARK    3  A    between atoms: C_3  and  C_5
REMARK    4  A    between atoms: C_5  and  C_6
REMARK    5  A    between atoms: C_6  and  C_7
REMARK    6  A    between atoms: N_9  and  N_10
REMARK    7  A    between atoms: N_24  and  C_25
REMARK                            x       y       z     vdW  Elec       q    Type
REMARK                         _______ _______ _______ _____ _____    ______ ____
ROOT
ATOM      1  N   UNL     1      -2.416   1.129   0.255  0.00  0.00    -0.234 N 
ATOM      2  C   UNL     1      -3.603   1.809   0.147  0.00  0.00    +0.216 A 
ATOM      3  N   UNL     1      -3.612   3.122   0.258  0.00  0.00    -0.207 NA
ATOM      4  C   UNL     1      -4.746   3.805   0.158  0.00  0.00    +0.117 A 
ATOM      5  C   UNL     1      -5.981   3.174  -0.069  0.00  0.00    +0.076 A 
ATOM      6  C   UNL     1      -7.144   4.059  -0.155  0.00  0.00    -0.023 A 
ATOM      7  C   UNL     1      -6.920   5.380  -0.011  0.00  0.00    -0.004 A 
ATOM      8  S   UNL     1      -5.172   5.526   0.245  0.00  0.00    -0.073 S 
ATOM      9  C   UNL     1      -7.934   6.483  -0.058  0.00  0.00    +0.043 C 
ATOM     10  C   UNL     1      -9.229   5.926  -0.665  0.00  0.00    +0.005 C 
ATOM     11  C   UNL     1      -9.563   4.599   0.022  0.00  0.00    +0.005 C 
ATOM     12  C   UNL     1      -8.555   3.528  -0.397  0.00  0.00    +0.037 C 
ATOM     13  C   UNL     1      -5.940   1.749  -0.185  0.00  0.00    +0.264 A 
ATOM     14  O   UNL     1      -6.963   1.115  -0.382  0.00  0.00    -0.267 OA
ATOM     15  N   UNL     1      -4.756   1.117  -0.078  0.00  0.00    -0.276 N 
ATOM     16  H   UNL     1      -2.410   0.159   0.251  0.00  0.00    +0.173 HD
ENDROOT
BRANCH  15  17
ATOM     17  C   UNL     1      -4.706  -0.341  -0.201  0.00  0.00    +0.093 C 
ATOM     18  C   UNL     1      -5.245  -0.756  -1.572  0.00  0.00    +0.025 C 
ATOM     19  C   UNL     1      -5.193  -2.280  -1.701  0.00  0.00    +0.002 C 
ATOM     20  C   UNL     1      -6.049  -2.914  -0.603  0.00  0.00    +0.000 C 
ATOM     21  C   UNL     1      -5.511  -2.499   0.768  0.00  0.00    +0.002 C 
ATOM     22  C   UNL     1      -5.563  -0.976   0.896  0.00  0.00    +0.025 C 
ENDBRANCH  15  17
BRANCH   1  25
ATOM     23  C   UNL     1      -0.045   1.168   0.475  0.00  0.00    +0.230 C 
ATOM     24  O   UNL     1      -0.039  -0.045   0.471  0.00  0.00    -0.274 OA
ATOM     25  N   UNL     1      -1.211   1.836   0.369  0.00  0.00    -0.234 N 
ATOM     26  H   UNL     1      -1.216   2.806   0.373  0.00  0.00    +0.173 HD
BRANCH  23  27
ATOM     27  C   UNL     1       1.250   1.928   0.592  0.00  0.00    +0.108 C 
BRANCH  27  28
ATOM     28  C   UNL     1       2.414   0.939   0.691  0.00  0.00    +0.130 C 
BRANCH  28  29
ATOM     29  C   UNL     1       3.710   1.700   0.808  0.00  0.00    +0.307 C 
ATOM     30  O   UNL     1       3.704   2.908   0.812  0.00  0.00    -0.251 OA
BRANCH  29  32
ATOM     31  C   UNL     1       6.081   1.831   1.017  0.00  0.00    +0.280 C 
ATOM     32  O   UNL     1       4.872   1.034   0.908  0.00  0.00    -0.468 OA
ENDBRANCH  29  32
ENDBRANCH  28  29
ENDBRANCH  27  28
ENDBRANCH  23  27
ENDBRANCH   1  25
TORSDOF 6
