REMARK  Name = ZINC36606980
REMARK  16 active torsions:
REMARK  status: ('A' for Active; 'I' for Inactive)
REMARK    1  A    between atoms: C_1  and  C_2
REMARK    2  A    between atoms: C_2  and  C_3
REMARK    3  A    between atoms: C_3  and  C_4
REMARK    4  A    between atoms: C_4  and  C_5
REMARK    5  A    between atoms: C_5  and  C_7
REMARK    6  A    between atoms: C_5  and  C_9
REMARK    7  A    between atoms: C_7  and  C_8
REMARK    8  A    between atoms: N_11  and  C_12
REMARK    9  A    between atoms: N_11  and  C_18
REMARK   10  A    between atoms: C_18  and  C_20
REMARK   11  A    between atoms: C_18  and  C_27
REMARK   12  A    between atoms: C_23  and  C_26
REMARK   13  A    between atoms: N_29  and  C_30
REMARK   14  A    between atoms: C_30  and  S_31
REMARK   15  A    between atoms: S_31  and  C_34
REMARK   16  A    between atoms: C_37  and  C_40
REMARK                            x       y       z     vdW  Elec       q    Type
REMARK                         _______ _______ _______ _____ _____    ______ ____
ROOT
ATOM      1  C   UNL     1       0.668  -6.200  -4.186  0.00  0.00    +0.197 C 
ENDROOT
BRANCH   1   2
ATOM      2  C   UNL     1       1.802  -7.150  -4.471  0.00  0.00    -0.018 A 
ATOM      3  C   UNL     1       2.951  -6.691  -5.087  0.00  0.00    +0.006 A 
ATOM      4  C   UNL     1       3.992  -7.562  -5.348  0.00  0.00    +0.004 A 
ATOM      5  C   UNL     1       3.884  -8.894  -4.991  0.00  0.00    -0.050 A 
ATOM      6  C   UNL     1       2.736  -9.353  -4.374  0.00  0.00    +0.004 A 
ATOM      7  C   UNL     1       1.697  -8.480  -4.109  0.00  0.00    +0.006 A 
ATOM      8  C   UNL     1       5.018  -9.844  -5.276  0.00  0.00    +0.044 C 
ENDBRANCH   1   2
BRANCH   1   9
ATOM      9  C   UNL     1       0.199  -5.577  -5.476  0.00  0.00    +0.240 C 
ATOM     10  O   UNL     1       0.245  -4.374  -5.621  0.00  0.00    -0.273 OA
ATOM     11  N   UNL     1      -0.271  -6.358  -6.470  0.00  0.00    -0.294 N 
ATOM     12  H   UNL     1      -0.307  -7.320  -6.354  0.00  0.00    +0.150 HD
BRANCH  11  13
ATOM     13  C   UNL     1      -0.727  -5.753  -7.723  0.00  0.00    +0.278 C 
BRANCH  13  14
ATOM     14  S   UNL     1       0.626  -5.774  -8.932  0.00  0.00    +0.013 S 
ATOM     15  O   UNL     1       0.181  -5.248 -10.175  0.00  0.00    -0.168 OA
ATOM     16  O   UNL     1       1.825  -5.302  -8.333  0.00  0.00    -0.168 OA
BRANCH  14  17
ATOM     17  C   UNL     1       0.924  -7.482  -9.248  0.00  0.00    +0.090 A 
ATOM     18  C   UNL     1       1.833  -8.180  -8.476  0.00  0.00    +0.027 A 
ATOM     19  C   UNL     1       2.067  -9.519  -8.723  0.00  0.00    +0.005 A 
ATOM     20  C   UNL     1       1.390 -10.162  -9.743  0.00  0.00    -0.050 A 
ATOM     21  C   UNL     1       0.480  -9.464 -10.515  0.00  0.00    +0.005 A 
ATOM     22  C   UNL     1       0.243  -8.126 -10.265  0.00  0.00    +0.027 A 
ATOM     23  C   UNL     1       1.646 -11.622 -10.014  0.00  0.00    +0.044 C 
ENDBRANCH  14  17
ENDBRANCH  13  14
ENDBRANCH  11  13
ENDBRANCH   1   9
BRANCH   1  26
ATOM     24  C   UNL     1       0.258  -4.227  -2.816  0.00  0.00    +0.224 C 
ATOM     25  O   UNL     1      -0.883  -4.212  -3.228  0.00  0.00    -0.275 OA
ATOM     26  N   UNL     1       1.128  -5.149  -3.276  0.00  0.00    -0.255 N 
BRANCH  26  27
ATOM     27  C   UNL     1       2.470  -5.101  -2.883  0.00  0.00    +0.037 A 
ATOM     28  C   UNL     1       3.000  -6.113  -2.093  0.00  0.00    +0.023 A 
ATOM     29  C   UNL     1       4.325  -6.063  -1.707  0.00  0.00    +0.002 A 
ATOM     30  C   UNL     1       5.124  -5.007  -2.106  0.00  0.00    +0.000 A 
ATOM     31  C   UNL     1       4.599  -3.998  -2.893  0.00  0.00    +0.002 A 
ATOM     32  C   UNL     1       3.276  -4.045  -3.287  0.00  0.00    +0.023 A 
ENDBRANCH  26  27
BRANCH  24  33
ATOM     33  C   UNL     1       0.704  -3.216  -1.791  0.00  0.00    +0.075 C 
BRANCH  33  34
ATOM     34  C   UNL     1       0.466  -3.775  -0.387  0.00  0.00    +0.009 C 
ATOM     35  C   UNL     1       1.403  -4.960  -0.145  0.00  0.00    +0.004 C 
ENDBRANCH  33  34
BRANCH  33  36
ATOM     36  C   UNL     1      -0.097  -1.924  -1.968  0.00  0.00    +0.013 C 
BRANCH  36  37
ATOM     37  C   UNL     1       0.439  -0.857  -1.012  0.00  0.00    +0.000 C 
BRANCH  37  39
ATOM     38  C   UNL     1       0.174   1.502  -0.232  0.00  0.00    +0.004 C 
ATOM     39  C   UNL     1      -0.362   0.435  -1.189  0.00  0.00    -0.003 C 
ENDBRANCH  37  39
ENDBRANCH  36  37
ENDBRANCH  33  36
ENDBRANCH  24  33
ENDBRANCH   1  26
TORSDOF 12
