REMARK  Name = ZINC02232882
REMARK  5 active torsions:
REMARK  status: ('A' for Active; 'I' for Inactive)
REMARK    1  A    between atoms: C_1  and  C_2
REMARK    2  A    between atoms: C_8  and  C_24
REMARK    3  A    between atoms: C_8  and  C_25
REMARK    4  A    between atoms: C_9  and  C_15
REMARK    5  A    between atoms: C_16  and  C_17
REMARK                            x       y       z     vdW  Elec       q    Type
REMARK                         _______ _______ _______ _____ _____    ______ ____
ROOT
ATOM      1  C   UNL     1       9.174  -0.088   1.319  0.00  0.00    +0.044 C 
ATOM      2  C   UNL     1       8.278   0.892   0.606  0.00  0.00    -0.050 A 
ATOM      3  C   UNL     1       8.218   0.897  -0.776  0.00  0.00    +0.005 A 
ATOM      4  C   UNL     1       7.403   1.795  -1.433  0.00  0.00    +0.024 A 
ATOM      5  C   UNL     1       6.632   2.703  -0.708  0.00  0.00    +0.036 A 
ATOM      6  C   UNL     1       6.695   2.685   0.680  0.00  0.00    -0.016 A 
ATOM      7  C   UNL     1       7.515   1.787   1.332  0.00  0.00    +0.009 A 
ATOM      8  C   UNL     1       5.759   3.755   1.204  0.00  0.00    +0.034 C 
ATOM      9  C   UNL     1       4.872   4.068  -0.021  0.00  0.00    +0.131 C 
ATOM     10  N   UNL     1       5.757   3.698  -1.159  0.00  0.00    -0.296 N 
ATOM     11  C   UNL     1       6.507   4.949  -1.421  0.00  0.00    +0.203 C 
ATOM     12  C   UNL     1       5.605   6.057  -0.923  0.00  0.00    +0.232 C 
ATOM     13  O   UNL     1       5.708   7.233  -1.201  0.00  0.00    -0.274 OA
ATOM     14  N   UNL     1       4.656   5.516  -0.109  0.00  0.00    -0.289 N 
ATOM     15  C   UNL     1       6.543   4.996   1.637  0.00  0.00    +0.020 C 
ATOM     16  C   UNL     1       4.913   3.221   2.362  0.00  0.00    +0.020 C 
ATOM     17  H   UNL     1       3.953   6.004   0.348  0.00  0.00    +0.151 HD
ENDROOT
BRANCH   9  18
ATOM     18  C   UNL     1       3.580   3.293  -0.013  0.00  0.00    +0.020 C 
ATOM     19  C   UNL     1       2.421   3.936   0.001  0.00  0.00    +0.009 C 
BRANCH  19  20
ATOM     20  C   UNL     1       1.154   3.175   0.008  0.00  0.00    -0.007 A 
ATOM     21  C   UNL     1       1.174   1.780   0.000  0.00  0.00    +0.009 A 
ATOM     22  C   UNL     1      -0.013   1.076   0.008  0.00  0.00    +0.001 A 
ATOM     23  C   UNL     1      -1.221   1.750   0.017  0.00  0.00    +0.001 A 
ATOM     24  C   UNL     1      -1.249   3.132   0.031  0.00  0.00    +0.020 A 
ATOM     25  C   UNL     1      -0.069   3.850   0.023  0.00  0.00    +0.048 A 
ATOM     26 CL   UNL     1      -0.105   5.585   0.034  0.00  0.00    -0.083 Cl
ENDBRANCH  19  20
ENDBRANCH   9  18
TORSDOF 2
