REMARK  Name = ZINC08789843
REMARK  6 active torsions:
REMARK  status: ('A' for Active; 'I' for Inactive)
REMARK    1  A    between atoms: C_1  and  S_2
REMARK    2  A    between atoms: S_2  and  C_3
REMARK    3  A    between atoms: C_3  and  C_4
REMARK    4  A    between atoms: C_4  and  C_5
REMARK    5  A    between atoms: N_13  and  C_16
REMARK    6  A    between atoms: C_16  and  C_17
REMARK                            x       y       z     vdW  Elec       q    Type
REMARK                         _______ _______ _______ _____ _____    ______ ____
ROOT
ATOM      1  C   UNL     1      -4.485   8.888   1.514  0.00  0.00    -0.057 C 
ATOM      2  C   UNL     1      -4.284   8.203   0.146  0.00  0.00    +0.073 C 
ATOM      3  C   UNL     1      -4.407   6.682   0.439  0.00  0.00    +0.088 C 
ATOM      4  C   UNL     1      -3.036   6.136   0.106  0.00  0.00    +0.225 C 
ATOM      5  O   UNL     1      -2.708   4.971   0.184  0.00  0.00    -0.275 OA
ATOM      6  N   UNL     1      -2.247   7.162  -0.288  0.00  0.00    -0.237 N 
ATOM      7  C   UNL     1      -2.848   8.357  -0.301  0.00  0.00    +0.224 C 
ATOM      8  O   UNL     1      -2.322   9.402  -0.620  0.00  0.00    -0.275 OA
ATOM      9  C   UNL     1      -4.640   6.598   1.952  0.00  0.00    +0.050 C 
ATOM     10  C   UNL     1      -3.973   5.391   2.547  0.00  0.00    -0.028 A 
ATOM     11  C   UNL     1      -2.667   4.957   2.596  0.00  0.00    +0.004 A 
ATOM     12  C   UNL     1      -2.356   3.768   3.233  0.00  0.00    +0.000 A 
ATOM     13  C   UNL     1      -3.360   3.018   3.820  0.00  0.00    +0.002 A 
ATOM     14  C   UNL     1      -4.669   3.450   3.774  0.00  0.00    +0.023 A 
ATOM     15  C   UNL     1      -4.992   4.643   3.131  0.00  0.00    +0.036 A 
ATOM     16  N   UNL     1      -6.222   5.278   2.950  0.00  0.00    -0.286 N 
ATOM     17  C   UNL     1      -6.103   6.430   2.261  0.00  0.00    +0.211 C 
ATOM     18  O   UNL     1      -6.999   7.188   1.958  0.00  0.00    -0.277 OA
ATOM     19  H   UNL     1      -7.065   4.931   3.282  0.00  0.00    +0.155 HD
ATOM     20  N   UNL     1      -4.119   7.844   2.482  0.00  0.00    +0.394 N 
ATOM     21  H   UNL     1      -4.538   8.045   3.397  0.00  0.00    -0.083 HD
ATOM     22  H   UNL     1      -3.098   7.790   2.578  0.00  0.00    -0.083 HD
ENDROOT
BRANCH   1  23
ATOM     23  C   UNL     1      -5.945   9.311   1.688  0.00  0.00    -0.004 C 
BRANCH  23  24
ATOM     24  C   UNL     1      -6.102  10.778   1.282  0.00  0.00    +0.067 C 
BRANCH  24  26
ATOM     25  C   UNL     1      -7.851  13.018   0.972  0.00  0.00    +0.084 C 
ATOM     26  S   UNL     1      -7.833  11.280   1.488  0.00  0.00    -0.164 S 
ENDBRANCH  24  26
ENDBRANCH  23  24
ENDBRANCH   1  23
BRANCH   6  27
ATOM     27  C   UNL     1      -0.847   6.975  -0.675  0.00  0.00    +0.153 C 
BRANCH  27  28
ATOM     28  C   UNL     1      -0.777   6.542  -2.116  0.00  0.00    -0.011 A 
ATOM     29  C   UNL     1      -1.335   7.333  -3.103  0.00  0.00    +0.006 A 
ATOM     30  C   UNL     1      -1.272   6.936  -4.426  0.00  0.00    +0.000 A 
ATOM     31  C   UNL     1      -0.651   5.748  -4.763  0.00  0.00    +0.001 A 
ATOM     32  C   UNL     1      -0.093   4.956  -3.777  0.00  0.00    +0.020 A 
ATOM     33  C   UNL     1      -0.151   5.355  -2.453  0.00  0.00    +0.046 A 
ATOM     34 CL   UNL     1       0.556   4.365  -1.216  0.00  0.00    -0.083 Cl
ENDBRANCH  27  28
ENDBRANCH   6  27
TORSDOF 5
