REMARK  Name = ZINC38786676
REMARK  12 active torsions:
REMARK  status: ('A' for Active; 'I' for Inactive)
REMARK    1  A    between atoms: C_1  and  C_2
REMARK    2  A    between atoms: C_2  and  N_3
REMARK    3  A    between atoms: N_3  and  C_4
REMARK    4  A    between atoms: N_3  and  C_6
REMARK    5  A    between atoms: C_4  and  C_5
REMARK    6  A    between atoms: C_6  and  C_7
REMARK    7  A    between atoms: C_7  and  N_8
REMARK    8  A    between atoms: C_11  and  S_15
REMARK    9  A    between atoms: S_15  and  C_16
REMARK   10  A    between atoms: C_16  and  C_17
REMARK   11  A    between atoms: N_19  and  C_20
REMARK   12  A    between atoms: C_20  and  C_21
REMARK                            x       y       z     vdW  Elec       q    Type
REMARK                         _______ _______ _______ _____ _____    ______ ____
ROOT
ATOM      1  N   UNL     1       1.761  -4.001   2.468  0.00  0.00    -0.298 N 
ATOM      2  C   UNL     1       0.762  -4.846   2.873  0.00  0.00    +0.029 A 
ATOM      3  C   UNL     1       0.957  -6.175   2.787  0.00  0.00    +0.004 A 
ATOM      4  C   UNL     1       2.195  -6.654   2.293  0.00  0.00    +0.108 A 
ATOM      5  N   UNL     1       3.133  -5.798   1.915  0.00  0.00    -0.186 NA
ATOM      6  C   UNL     1       2.921  -4.486   1.993  0.00  0.00    +0.350 A 
ATOM      7  O   UNL     1       3.793  -3.712   1.634  0.00  0.00    -0.244 OA
ATOM      8  C   UNL     1      -0.086  -7.184   3.185  0.00  0.00    +0.039 C 
ATOM      9  C   UNL     1      -1.147  -6.539   4.076  0.00  0.00    +0.005 C 
ATOM     10  C   UNL     1      -1.642  -5.261   3.388  0.00  0.00    +0.006 C 
ATOM     11  C   UNL     1      -0.508  -4.237   3.402  0.00  0.00    +0.054 C 
ENDROOT
BRANCH   1  12
ATOM     12  C   UNL     1       1.560  -2.552   2.548  0.00  0.00    +0.108 C 
BRANCH  12  13
ATOM     13  C   UNL     1       0.944  -2.050   1.241  0.00  0.00    -0.057 C 
BRANCH  13  14
ATOM     14  N   UNL     1       0.627  -0.621   1.366  0.00  0.00    +0.380 N 
ATOM     15  H   UNL     1       0.038  -0.476   2.173  0.00  0.00    -0.082 HD
BRANCH  14  17
ATOM     16  C   UNL     1       1.536   1.615   1.781  0.00  0.00    -0.017 C 
ATOM     17  C   UNL     1       1.871   0.144   1.526  0.00  0.00    -0.082 C 
ENDBRANCH  14  17
BRANCH  14  18
ATOM     18  C   UNL     1      -0.075  -0.167   0.159  0.00  0.00    -0.082 C 
ATOM     19  C   UNL     1      -1.442  -0.850   0.077  0.00  0.00    -0.017 C 
ENDBRANCH  14  18
ENDBRANCH  13  14
ENDBRANCH  12  13
ENDBRANCH   1  12
BRANCH   4  20
ATOM     20  S   UNL     1       2.487  -8.388   2.180  0.00  0.00    -0.096 S 
BRANCH  20  21
ATOM     21  C   UNL     1       4.168  -8.507   1.508  0.00  0.00    +0.171 C 
BRANCH  21  22
ATOM     22  C   UNL     1       4.548  -9.957   1.360  0.00  0.00    +0.224 C 
ATOM     23  O   UNL     1       3.763 -10.826   1.676  0.00  0.00    -0.275 OA
ATOM     24  N   UNL     1       5.761 -10.290   0.875  0.00  0.00    -0.311 N 
ATOM     25  H   UNL     1       6.389  -9.595   0.622  0.00  0.00    +0.149 HD
BRANCH  24  26
ATOM     26  C   UNL     1       6.131 -11.700   0.731  0.00  0.00    +0.139 C 
BRANCH  26  27
ATOM     27  C   UNL     1       7.527 -11.799   0.172  0.00  0.00    -0.027 A 
ATOM     28  C   UNL     1       7.722 -11.841  -1.196  0.00  0.00    +0.009 A 
ATOM     29  C   UNL     1       9.000 -11.931  -1.713  0.00  0.00    +0.050 A 
ATOM     30  C   UNL     1      10.091 -11.979  -0.860  0.00  0.00    +0.166 A 
ATOM     31  C   UNL     1       9.896 -11.937   0.518  0.00  0.00    +0.167 A 
ATOM     32  C   UNL     1       8.611 -11.841   1.029  0.00  0.00    +0.054 A 
ATOM     33  O   UNL     1      11.112 -11.998   1.134  0.00  0.00    -0.453 OA
ATOM     34  C   UNL     1      12.025 -12.490   0.134  0.00  0.00    +0.466 C 
ATOM     35  O   UNL     1      11.431 -12.067  -1.108  0.00  0.00    -0.453 OA
ENDBRANCH  26  27
ENDBRANCH  24  26
ENDBRANCH  21  22
ENDBRANCH  20  21
ENDBRANCH   4  20
TORSDOF 10
