REMARK  Name = ZINC39688730
REMARK  7 active torsions:
REMARK  status: ('A' for Active; 'I' for Inactive)
REMARK    1  A    between atoms: C_1  and  C_2
REMARK    2  A    between atoms: C_2  and  C_4
REMARK    3  A    between atoms: C_2  and  N_12
REMARK    4  A    between atoms: C_4  and  C_5
REMARK    5  A    between atoms: C_13  and  C_15
REMARK    6  A    between atoms: C_26  and  C_28
REMARK    7  A    between atoms: C_31  and  C_33
REMARK                            x       y       z     vdW  Elec       q    Type
REMARK                         _______ _______ _______ _____ _____    ______ ____
ROOT
ATOM      1  C   UNL     1      -4.182  -0.291  -0.448  0.00  0.00    +0.100 C 
ATOM      2  C   UNL     1      -3.985  -1.655   0.250  0.00  0.00    +0.121 C 
ATOM      3  N   UNL     1      -4.995  -2.543  -0.372  0.00  0.00    -0.294 N 
ATOM      4  C   UNL     1      -4.989  -2.163  -1.804  0.00  0.00    +0.115 C 
ATOM      5  C   UNL     1      -4.841  -0.628  -1.796  0.00  0.00    -0.004 C 
ATOM      6  C   UNL     1      -6.212   0.035  -1.895  0.00  0.00    -0.010 C 
ATOM      7  C   UNL     1      -6.822  -0.269  -3.266  0.00  0.00    -0.082 C 
ATOM      8  N   UNL     1      -5.935   0.236  -4.321  0.00  0.00    +0.379 N 
ATOM      9  C   UNL     1      -4.650  -0.473  -4.277  0.00  0.00    -0.082 C 
ATOM     10  C   UNL     1      -3.948  -0.179  -2.948  0.00  0.00    -0.010 C 
ATOM     11  C   UNL     1      -5.750  -3.484   0.230  0.00  0.00    +0.282 C 
ATOM     12  O   UNL     1      -6.473  -4.201  -0.436  0.00  0.00    -0.267 OA
ATOM     13  H   UNL     1      -6.367   0.089  -5.221  0.00  0.00    -0.086 HD
ATOM     14  H   UNL     1      -5.777   1.223  -4.183  0.00  0.00    -0.086 HD
ENDROOT
BRANCH  11  15
ATOM     15  C   UNL     1      -5.698  -3.644   1.685  0.00  0.00    +0.190 A 
ATOM     16  C   UNL     1      -6.334  -4.626   2.414  0.00  0.00    +0.055 A 
ATOM     17  C   UNL     1      -6.014  -4.402   3.757  0.00  0.00    +0.051 A 
ATOM     18  C   UNL     1      -5.203  -3.304   3.799  0.00  0.00    +0.139 A 
ATOM     19  O   UNL     1      -5.016  -2.859   2.545  0.00  0.00    -0.450 OA
BRANCH  18  20
ATOM     20  C   UNL     1      -4.624  -2.708   5.019  0.00  0.00    +0.052 A 
ATOM     21  C   UNL     1      -5.455  -2.317   6.071  0.00  0.00    +0.014 A 
ATOM     22  C   UNL     1      -4.907  -1.761   7.208  0.00  0.00    +0.001 A 
ATOM     23  C   UNL     1      -3.538  -1.590   7.310  0.00  0.00    +0.003 A 
ATOM     24  C   UNL     1      -2.707  -1.974   6.274  0.00  0.00    +0.039 A 
ATOM     25  C   UNL     1      -3.240  -2.538   5.130  0.00  0.00    +0.134 A 
ATOM     26  F   UNL     1      -2.428  -2.919   4.120  0.00  0.00    -0.205 F 
ENDBRANCH  18  20
ENDBRANCH  11  15
BRANCH   1  28
ATOM     27  N   UNL     1      -2.772   1.729  -0.677  0.00  0.00    -0.312 N 
ATOM     28  C   UNL     1      -2.853   0.384  -0.668  0.00  0.00    +0.218 C 
ATOM     29  O   UNL     1      -1.854  -0.285  -0.836  0.00  0.00    -0.275 OA
ATOM     30  H   UNL     1      -3.579   2.263  -0.614  0.00  0.00    +0.149 HD
BRANCH  27  32
ATOM     31  C   UNL     1      -1.116   2.587  -2.259  0.00  0.00    +0.028 C 
ATOM     32  C   UNL     1      -1.466   2.384  -0.784  0.00  0.00    +0.074 C 
BRANCH  32  33
ATOM     33  C   UNL     1      -1.519   3.742  -0.081  0.00  0.00    +0.057 C 
BRANCH  33  34
ATOM     34  C   UNL     1      -1.754   3.536   1.393  0.00  0.00    -0.045 A 
ATOM     35  C   UNL     1      -3.043   3.399   1.874  0.00  0.00    +0.006 A 
ATOM     36  C   UNL     1      -3.261   3.210   3.226  0.00  0.00    +0.038 A 
ATOM     37  C   UNL     1      -2.187   3.157   4.098  0.00  0.00    +0.123 A 
ATOM     38  C   UNL     1      -0.897   3.294   3.616  0.00  0.00    +0.038 A 
ATOM     39  C   UNL     1      -0.681   3.478   2.263  0.00  0.00    +0.006 A 
ATOM     40  F   UNL     1      -2.398   2.972   5.420  0.00  0.00    -0.205 F 
ENDBRANCH  33  34
ENDBRANCH  32  33
ENDBRANCH  27  32
ENDBRANCH   1  28
TORSDOF 6
