REMARK  Name = ZINC21983882
REMARK  6 active torsions:
REMARK  status: ('A' for Active; 'I' for Inactive)
REMARK    1  A    between atoms: C_4  and  C_7
REMARK    2  A    between atoms: C_7  and  C_9
REMARK    3  A    between atoms: C_7  and  N_16
REMARK    4  A    between atoms: C_17  and  C_19
REMARK    5  A    between atoms: C_19  and  N_20
REMARK    6  A    between atoms: N_29  and  C_30
REMARK                            x       y       z     vdW  Elec       q    Type
REMARK                         _______ _______ _______ _____ _____    ______ ____
ROOT
ATOM      1  N   UNL     1      -0.721   1.571  -1.179  0.00  0.00    -0.303 N 
ATOM      2  C   UNL     1      -1.773   0.883  -1.664  0.00  0.00    +0.234 C 
ATOM      3  O   UNL     1      -2.134  -0.139  -1.118  0.00  0.00    -0.274 OA
ATOM      4  H   UNL     1      -0.395   2.497  -1.674  0.00  0.00    +0.150 HD
ENDROOT
BRANCH   1   5
ATOM      5  C   UNL     1      -0.013   1.086   0.008  0.00  0.00    +0.134 C 
BRANCH   5   6
ATOM      6  C   UNL     1       1.401   1.607  -0.003  0.00  0.00    -0.023 A 
ATOM      7  C   UNL     1       1.657   2.903  -0.413  0.00  0.00    +0.007 A 
ATOM      8  C   UNL     1       2.953   3.383  -0.418  0.00  0.00    +0.020 A 
ATOM      9  C   UNL     1       3.995   2.564  -0.022  0.00  0.00    +0.041 A 
ATOM     10  C   UNL     1       3.740   1.267   0.383  0.00  0.00    +0.020 A 
ATOM     11  C   UNL     1       2.443   0.789   0.393  0.00  0.00    +0.007 A 
ATOM     12 CL   UNL     1       5.624   3.165  -0.035  0.00  0.00    -0.084 Cl
ENDBRANCH   5   6
BRANCH   5  16
ATOM     13  C   UNL     1      -2.012   2.463   3.523  0.00  0.00    +0.000 A 
ATOM     14  C   UNL     1      -1.502   1.179   3.476  0.00  0.00    +0.000 A 
ATOM     15  C   UNL     1      -0.855   0.734   2.339  0.00  0.00    +0.006 A 
ATOM     16  C   UNL     1      -0.718   1.572   1.248  0.00  0.00    -0.023 A 
ATOM     17  C   UNL     1      -1.223   2.858   1.297  0.00  0.00    +0.006 A 
ATOM     18  C   UNL     1      -1.874   3.302   2.432  0.00  0.00    +0.000 A 
ENDBRANCH   5  16
ENDBRANCH   1   5
BRANCH   2  19
ATOM     19  C   UNL     1      -2.502   1.382  -2.885  0.00  0.00    +0.222 C 
BRANCH  19  20
ATOM     20  N   UNL     1      -3.598   0.465  -3.209  0.00  0.00    -0.290 N 
ATOM     21  C   UNL     1      -4.828   0.665  -2.671  0.00  0.00    +0.204 A 
ATOM     22  N   UNL     1      -5.844  -0.110  -2.916  0.00  0.00    -0.217 NA
ATOM     23  C   UNL     1      -5.744  -1.174  -3.728  0.00  0.00    +0.170 A 
ATOM     24  C   UNL     1      -4.509  -1.462  -4.331  0.00  0.00    +0.103 A 
ATOM     25  C   UNL     1      -3.381  -0.575  -4.047  0.00  0.00    +0.265 A 
ATOM     26  O   UNL     1      -2.285  -0.768  -4.544  0.00  0.00    -0.267 OA
ATOM     27  C   UNL     1      -4.688  -2.614  -5.119  0.00  0.00    +0.150 A 
ATOM     28  N   UNL     1      -5.929  -3.001  -5.007  0.00  0.00    -0.172 NA
ATOM     29  N   UNL     1      -6.615  -2.130  -4.151  0.00  0.00    -0.214 N 
BRANCH  29  30
ATOM     30  C   UNL     1      -7.965  -2.227  -3.792  0.00  0.00    +0.068 A 
ATOM     31  C   UNL     1      -8.373  -1.872  -2.513  0.00  0.00    +0.028 A 
ATOM     32  C   UNL     1      -9.706  -1.964  -2.164  0.00  0.00    +0.002 A 
ATOM     33  C   UNL     1     -10.633  -2.420  -3.083  0.00  0.00    +0.000 A 
ATOM     34  C   UNL     1     -10.230  -2.780  -4.356  0.00  0.00    +0.002 A 
ATOM     35  C   UNL     1      -8.899  -2.685  -4.713  0.00  0.00    +0.028 A 
ENDBRANCH  29  30
ENDBRANCH  19  20
ENDBRANCH   2  19
TORSDOF 6
