REMARK  Name = ZINC37063475
REMARK  5 active torsions:
REMARK  status: ('A' for Active; 'I' for Inactive)
REMARK    1  A    between atoms: C_1  and  C_2
REMARK    2  A    between atoms: C_5  and  S_9
REMARK    3  A    between atoms: C_6  and  N_8
REMARK    4  A    between atoms: S_9  and  N_12
REMARK    5  A    between atoms: C_20  and  C_22
REMARK                            x       y       z     vdW  Elec       q    Type
REMARK                         _______ _______ _______ _____ _____    ______ ____
ROOT
ATOM      1  S   UNL     1       0.344  -4.215   0.016  0.00  0.00    +0.077 S 
ATOM      2  O   UNL     1       1.028  -3.317  -0.847  0.00  0.00    -0.150 OA
ATOM      3  O   UNL     1      -0.676  -3.785   0.907  0.00  0.00    -0.150 OA
ENDROOT
BRANCH   1   4
ATOM      4  N   UNL     1       1.500  -4.955   0.942  0.00  0.00    -0.200 N 
ATOM      5  C   UNL     1       2.806  -5.223   0.527  0.00  0.00    +0.055 A 
ATOM      6  C   UNL     1       3.420  -4.947  -0.697  0.00  0.00    +0.025 A 
ATOM      7  C   UNL     1       4.736  -5.297  -0.908  0.00  0.00    +0.002 A 
ATOM      8  C   UNL     1       5.459  -5.924   0.091  0.00  0.00    +0.000 A 
ATOM      9  C   UNL     1       4.858  -6.200   1.305  0.00  0.00    +0.005 A 
ATOM     10  C   UNL     1       3.539  -5.851   1.522  0.00  0.00    -0.023 A 
ATOM     11  C   UNL     1       2.652  -6.031   2.732  0.00  0.00    +0.061 C 
ATOM     12  C   UNL     1       1.303  -5.420   2.317  0.00  0.00    +0.099 C 
ATOM     13  C   UNL     1       0.948  -4.244   3.229  0.00  0.00    +0.030 C 
ENDBRANCH   1   4
BRANCH   1  18
ATOM     14  C   UNL     1      -2.109  -8.458  -3.510  0.00  0.00    +0.044 C 
ATOM     15  C   UNL     1      -1.499  -7.401  -2.627  0.00  0.00    -0.049 A 
ATOM     16  C   UNL     1      -0.747  -6.384  -3.186  0.00  0.00    +0.005 A 
ATOM     17  C   UNL     1      -0.185  -5.412  -2.379  0.00  0.00    +0.031 A 
ATOM     18  C   UNL     1      -0.373  -5.453  -1.012  0.00  0.00    +0.129 A 
ATOM     19  C   UNL     1      -1.129  -6.473  -0.447  0.00  0.00    +0.052 A 
ATOM     20  C   UNL     1      -1.696  -7.445  -1.261  0.00  0.00    +0.028 A 
BRANCH  19  21
ATOM     21  N   UNL     1      -1.321  -6.518   0.936  0.00  0.00    -0.356 N 
ATOM     22  H   UNL     1      -1.001  -5.793   1.494  0.00  0.00    +0.142 HD
ATOM     23  H   UNL     1      -1.776  -7.275   1.338  0.00  0.00    +0.142 HD
ENDBRANCH  19  21
ENDBRANCH   1  18
TORSDOF 3
