REMARK  Name = ZINC38745320
REMARK  9 active torsions:
REMARK  status: ('A' for Active; 'I' for Inactive)
REMARK    1  A    between atoms: C_1  and  C_2
REMARK    2  A    between atoms: C_2  and  C_3
REMARK    3  A    between atoms: C_3  and  N_4
REMARK    4  A    between atoms: C_12  and  C_14
REMARK    5  A    between atoms: C_14  and  C_15
REMARK    6  A    between atoms: C_15  and  N_16
REMARK    7  A    between atoms: C_17  and  C_19
REMARK    8  A    between atoms: C_22  and  N_26
REMARK    9  A    between atoms: C_23  and  C_25
REMARK                            x       y       z     vdW  Elec       q    Type
REMARK                         _______ _______ _______ _____ _____    ______ ____
ROOT
ATOM      1  C   UNL     1      -3.230  -5.527  -4.918  0.00  0.00    +0.109 C 
ENDROOT
BRANCH   1   2
ATOM      2  N   UNL     1      -4.401  -6.018  -5.648  0.00  0.00    -0.311 N 
ATOM      3  C   UNL     1      -4.377  -6.085  -6.994  0.00  0.00    +0.244 C 
ATOM      4  O   UNL     1      -3.383  -5.737  -7.602  0.00  0.00    -0.270 OA
ATOM      5  H   UNL     1      -5.194  -6.295  -5.163  0.00  0.00    +0.149 HD
BRANCH   3   6
ATOM      6  C   UNL     1      -5.559  -6.580  -7.731  0.00  0.00    +0.037 A 
ATOM      7  C   UNL     1      -6.703  -6.974  -7.036  0.00  0.00    +0.015 A 
ATOM      8  C   UNL     1      -7.803  -7.435  -7.730  0.00  0.00    +0.034 A 
ATOM      9  C   UNL     1      -7.773  -7.508  -9.112  0.00  0.00    +0.129 A 
ATOM     10  C   UNL     1      -6.641  -7.119  -9.806  0.00  0.00    -0.020 A 
ATOM     11  C   UNL     1      -5.537  -6.650  -9.125  0.00  0.00    +0.018 A 
ATOM     12  C   UNL     1      -6.617  -7.202 -11.311  0.00  0.00    +0.046 C 
BRANCH   9  13
ATOM     13  N   UNL     1      -8.956  -8.004  -9.850  0.00  0.00    +0.057 N 
ATOM     14  O   UNL     1      -9.257  -7.510 -10.911  0.00  0.00    -0.126 OA
ATOM     15  O   UNL     1      -9.621  -8.903  -9.391  0.00  0.00    -0.126 OA
ENDBRANCH   9  13
ENDBRANCH   3   6
ENDBRANCH   1   2
BRANCH   1  16
ATOM     16  C   UNL     1      -3.518  -5.553  -3.415  0.00  0.00    +0.054 C 
BRANCH  16  25
ATOM     17  N   UNL     1       1.015  -3.636  -0.595  0.00  0.00    -0.330 N 
ATOM     18  C   UNL     1       1.897  -4.587   0.095  0.00  0.00    +0.105 C 
ATOM     19  C   UNL     1       2.153  -5.764  -0.856  0.00  0.00    +0.024 C 
ATOM     20  C   UNL     1       0.826  -6.471  -1.134  0.00  0.00    +0.038 C 
ATOM     21  C   UNL     1      -0.219  -5.478  -1.571  0.00  0.00    -0.026 A 
ATOM     22  C   UNL     1      -0.098  -4.125  -1.287  0.00  0.00    +0.033 A 
ATOM     23  C   UNL     1      -1.086  -3.236  -1.696  0.00  0.00    +0.023 A 
ATOM     24  C   UNL     1      -2.191  -3.699  -2.383  0.00  0.00    +0.005 A 
ATOM     25  C   UNL     1      -2.313  -5.048  -2.664  0.00  0.00    -0.046 A 
ATOM     26  C   UNL     1      -1.326  -5.934  -2.267  0.00  0.00    +0.009 A 
BRANCH  17  27
ATOM     27  C   UNL     1       1.293  -2.198  -0.554  0.00  0.00    +0.105 C 
BRANCH  27  29
ATOM     28  C   UNL     1       0.883  -0.076   0.699  0.00  0.00    +0.005 C 
ATOM     29  C   UNL     1       0.593  -1.578   0.656  0.00  0.00    +0.015 C 
ENDBRANCH  27  29
ENDBRANCH  17  27
ENDBRANCH  16  25
ENDBRANCH   1  16
TORSDOF 7
