REMARK  Name = ZINC40568271
REMARK  5 active torsions:
REMARK  status: ('A' for Active; 'I' for Inactive)
REMARK    1  A    between atoms: C_1  and  O_2
REMARK    2  A    between atoms: O_2  and  C_3
REMARK    3  A    between atoms: C_3  and  C_5
REMARK    4  A    between atoms: C_6  and  N_23
REMARK    5  A    between atoms: C_10  and  C_14
REMARK                            x       y       z     vdW  Elec       q    Type
REMARK                         _______ _______ _______ _____ _____    ______ ____
ROOT
ATOM      1  C   UNL     1       0.517  -2.060  -1.188  0.00  0.00    +0.119 A 
ATOM      2  C   UNL     1       1.218  -2.807  -2.112  0.00  0.00    +0.056 A 
ATOM      3  C   UNL     1       1.247  -4.251  -1.953  0.00  0.00    +0.033 A 
ATOM      4  C   UNL     1       1.898  -5.214  -2.777  0.00  0.00    -0.031 A 
ATOM      5  C   UNL     1       1.813  -6.527  -2.458  0.00  0.00    -0.017 A 
ATOM      6  C   UNL     1       1.076  -6.927  -1.326  0.00  0.00    +0.082 A 
ATOM      7  N   UNL     1       0.467  -6.029  -0.563  0.00  0.00    -0.239 NA
ATOM      8  C   UNL     1       0.534  -4.747  -0.839  0.00  0.00    +0.112 A 
ATOM      9  S   UNL     1      -0.123  -3.289  -0.066  0.00  0.00    -0.060 S 
ATOM     10  C   UNL     1       2.490  -7.604  -3.267  0.00  0.00    +0.037 C 
ATOM     11  C   UNL     1       2.859  -7.081  -4.655  0.00  0.00    +0.005 C 
ATOM     12  C   UNL     1       3.624  -5.763  -4.489  0.00  0.00    +0.005 C 
ATOM     13  C   UNL     1       2.650  -4.704  -3.976  0.00  0.00    +0.036 C 
ENDROOT
BRANCH   6  14
ATOM     14  C   UNL     1       0.980  -8.359  -0.986  0.00  0.00    +0.038 A 
ATOM     15  C   UNL     1      -0.110  -9.075  -0.562  0.00  0.00    +0.017 A 
ATOM     16  C   UNL     1       0.042 -10.418  -0.303  0.00  0.00    +0.008 A 
ATOM     17  C   UNL     1       1.262 -10.992  -0.473  0.00  0.00    +0.046 A 
ATOM     18  S   UNL     1       2.251  -9.613  -1.028  0.00  0.00    -0.095 S 
ENDBRANCH   6  14
BRANCH   2  19
ATOM     19  N   UNL     1       1.879  -2.194  -3.167  0.00  0.00    -0.356 N 
ATOM     20  H   UNL     1       2.216  -1.290  -3.069  0.00  0.00    +0.142 HD
ATOM     21  H   UNL     1       2.003  -2.669  -4.004  0.00  0.00    +0.142 HD
ENDBRANCH   2  19
BRANCH   1  22
ATOM     22  C   UNL     1       0.351  -0.657  -1.138  0.00  0.00    +0.348 C 
ATOM     23  O   UNL     1       0.860   0.046  -1.991  0.00  0.00    -0.244 OA
BRANCH  22  25
ATOM     24  C   UNL     1      -0.499   1.325  -0.156  0.00  0.00    +0.280 C 
ATOM     25  O   UNL     1      -0.372  -0.098  -0.144  0.00  0.00    -0.464 OA
ENDBRANCH  22  25
ENDBRANCH   1  22
TORSDOF 4
