REMARK  Name = ZINC36235324
REMARK  8 active torsions:
REMARK  status: ('A' for Active; 'I' for Inactive)
REMARK    1  A    between atoms: C_4  and  C_7
REMARK    2  A    between atoms: C_8  and  C_17
REMARK    3  A    between atoms: C_17  and  C_19
REMARK    4  A    between atoms: C_19  and  O_20
REMARK    5  A    between atoms: O_20  and  C_21
REMARK    6  A    between atoms: C_21  and  C_23
REMARK    7  A    between atoms: C_25  and  S_30
REMARK    8  A    between atoms: S_30  and  N_33
REMARK                            x       y       z     vdW  Elec       q    Type
REMARK                         _______ _______ _______ _____ _____    ______ ____
ROOT
ATOM      1  C   UNL     1       3.159  -2.384  -1.805  0.00  0.00    +0.203 C 
ATOM      2  O   UNL     1       2.031  -1.967  -1.976  0.00  0.00    -0.288 OA
ENDROOT
BRANCH   1   4
ATOM      3  C   UNL     1       3.694  -0.682  -0.038  0.00  0.00    +0.058 A 
ATOM      4  C   UNL     1       4.004  -1.768  -0.854  0.00  0.00    +0.054 A 
ATOM      5  C   UNL     1       5.391  -2.146  -0.524  0.00  0.00    +0.011 A 
ATOM      6  C   UNL     1       6.254  -3.136  -0.989  0.00  0.00    +0.011 A 
ATOM      7  C   UNL     1       7.525  -3.233  -0.466  0.00  0.00    +0.001 A 
ATOM      8  C   UNL     1       7.945  -2.351   0.519  0.00  0.00    +0.002 A 
ATOM      9  C   UNL     1       7.101  -1.368   0.988  0.00  0.00    +0.026 A 
ATOM     10  C   UNL     1       5.814  -1.252   0.472  0.00  0.00    +0.048 A 
ATOM     11  N   UNL     1       4.773  -0.384   0.736  0.00  0.00    -0.354 N 
ATOM     12  H   UNL     1       4.806   0.336   1.385  0.00  0.00    +0.166 HD
BRANCH   3  16
ATOM     13  C   UNL     1      -0.017   1.380   0.010  0.00  0.00    +0.000 A 
ATOM     14  C   UNL     1       1.168   2.094   0.002  0.00  0.00    +0.001 A 
ATOM     15  C   UNL     1       2.377   1.431  -0.013  0.00  0.00    +0.010 A 
ATOM     16  C   UNL     1       2.404   0.034  -0.021  0.00  0.00    -0.001 A 
ATOM     17  C   UNL     1       1.204  -0.681  -0.013  0.00  0.00    +0.010 A 
ATOM     18  C   UNL     1       0.002  -0.004   0.002  0.00  0.00    +0.001 A 
ENDBRANCH   3  16
ENDBRANCH   1   4
BRANCH   1  19
ATOM     19  C   UNL     1       3.658  -3.558  -2.608  0.00  0.00    +0.312 C 
BRANCH  19  20
ATOM     20  O   UNL     1       2.629  -4.000  -3.494  0.00  0.00    -0.453 OA
BRANCH  20  21
ATOM     21  C   UNL     1       2.916  -5.050  -4.289  0.00  0.00    +0.341 C 
ATOM     22  O   UNL     1       4.009  -5.575  -4.231  0.00  0.00    -0.245 OA
BRANCH  21  23
ATOM     23  C   UNL     1       1.900  -5.562  -5.231  0.00  0.00    +0.079 A 
ATOM     24  C   UNL     1       0.643  -4.957  -5.304  0.00  0.00    +0.045 A 
ATOM     25  C   UNL     1      -0.300  -5.441  -6.186  0.00  0.00    +0.106 A 
ATOM     26  C   UNL     1      -0.005  -6.523  -6.997  0.00  0.00    +0.030 A 
ATOM     27  C   UNL     1       1.236  -7.128  -6.930  0.00  0.00    +0.023 A 
ATOM     28  C   UNL     1       2.194  -6.651  -6.056  0.00  0.00    +0.055 A 
ATOM     29 CL   UNL     1       3.755  -7.406  -5.979  0.00  0.00    -0.083 Cl
BRANCH  25  30
ATOM     30  S   UNL     1      -1.887  -4.679  -6.280  0.00  0.00    +0.056 S 
ATOM     31  O   UNL     1      -2.778  -5.660  -6.793  0.00  0.00    -0.153 OA
ATOM     32  O   UNL     1      -2.101  -4.033  -5.033  0.00  0.00    -0.153 OA
BRANCH  30  33
ATOM     33  N   UNL     1      -1.789  -3.484  -7.422  0.00  0.00    -0.204 NA
ATOM     34  H   UNL     1      -2.573  -3.242  -7.939  0.00  0.00    +0.144 HD
ATOM     35  H   UNL     1      -0.947  -3.026  -7.574  0.00  0.00    +0.144 HD
ENDBRANCH  30  33
ENDBRANCH  25  30
ENDBRANCH  21  23
ENDBRANCH  20  21
ENDBRANCH  19  20
ENDBRANCH   1  19
TORSDOF 8
