REMARK  Name = ZINC02971536
REMARK  8 active torsions:
REMARK  status: ('A' for Active; 'I' for Inactive)
REMARK    1  A    between atoms: C_1  and  C_2
REMARK    2  A    between atoms: C_8  and  C_10
REMARK    3  A    between atoms: C_10  and  S_11
REMARK    4  A    between atoms: S_11  and  C_12
REMARK    5  A    between atoms: N_22  and  N_23
REMARK    6  A    between atoms: C_24  and  C_26
REMARK    7  A    between atoms: C_26  and  C_27
REMARK    8  A    between atoms: C_27  and  C_28
REMARK                            x       y       z     vdW  Elec       q    Type
REMARK                         _______ _______ _______ _____ _____    ______ ____
ROOT
ATOM      1  C   UNL     1      -5.218   0.872   0.032  0.00  0.00    +0.190 A 
ATOM      2  N   UNL     1      -4.951  -0.411   0.018  0.00  0.00    -0.222 NA
ATOM      3  C   UNL     1      -5.931  -1.337   0.022  0.00  0.00    +0.079 A 
ATOM      4  C   UNL     1      -5.645  -2.706   0.013  0.00  0.00    +0.028 A 
ATOM      5  C   UNL     1      -6.669  -3.610   0.011  0.00  0.00    +0.002 A 
ATOM      6  C   UNL     1      -7.993  -3.191   0.020  0.00  0.00    +0.001 A 
ATOM      7  C   UNL     1      -8.305  -1.859   0.029  0.00  0.00    +0.015 A 
ATOM      8  C   UNL     1      -7.279  -0.914   0.031  0.00  0.00    +0.066 A 
ATOM      9  C   UNL     1      -7.554   0.529   0.040  0.00  0.00    +0.280 A 
ATOM     10  O   UNL     1      -8.694   0.955   0.048  0.00  0.00    -0.265 OA
ATOM     11  N   UNL     1      -6.491   1.367   0.040  0.00  0.00    -0.199 N 
ENDROOT
BRANCH  11  12
ATOM     12  N   UNL     1      -6.698   2.753   0.050  0.00  0.00    -0.218 N 
ATOM     13  C   UNL     1      -7.101   3.382  -1.072  0.00  0.00    +0.231 C 
ATOM     14  O   UNL     1      -7.285   2.748  -2.090  0.00  0.00    -0.274 OA
ATOM     15  H   UNL     1      -6.551   3.260   0.864  0.00  0.00    +0.176 HD
BRANCH  13  16
ATOM     16  C   UNL     1      -7.324   4.872  -1.062  0.00  0.00    +0.102 C 
BRANCH  16  17
ATOM     17  C   UNL     1      -7.774   5.330  -2.450  0.00  0.00    +0.046 C 
BRANCH  17  18
ATOM     18  C   UNL     1      -7.997   6.821  -2.440  0.00  0.00    -0.022 A 
ATOM     19  C   UNL     1      -9.166   7.452  -2.249  0.00  0.00    +0.087 A 
ATOM     20  N   UNL     1      -8.979   8.806  -2.305  0.00  0.00    -0.360 N 
ATOM     21  H   UNL     1      -9.677   9.470  -2.193  0.00  0.00    +0.165 HD
ATOM     22  C   UNL     1      -7.653   9.086  -2.548  0.00  0.00    +0.047 A 
ATOM     23  C   UNL     1      -6.979   7.855  -2.643  0.00  0.00    +0.003 A 
ATOM     24  C   UNL     1      -5.605   7.829  -2.887  0.00  0.00    +0.010 A 
ATOM     25  C   UNL     1      -4.920   9.003  -3.032  0.00  0.00    +0.001 A 
ATOM     26  C   UNL     1      -5.580  10.220  -2.940  0.00  0.00    +0.002 A 
ATOM     27  C   UNL     1      -6.936  10.269  -2.699  0.00  0.00    +0.026 A 
ENDBRANCH  17  18
ENDBRANCH  16  17
ENDBRANCH  13  16
ENDBRANCH  11  12
BRANCH   1  28
ATOM     28  S   UNL     1      -3.874   2.010   0.031  0.00  0.00    -0.077 S 
BRANCH  28  29
ATOM     29  C   UNL     1      -2.482   0.853   0.018  0.00  0.00    +0.173 C 
BRANCH  29  37
ATOM     30  C   UNL     1       3.406   4.596  -0.005  0.00  0.00    +0.089 C 
ATOM     31  C   UNL     1       2.679   3.276  -0.005  0.00  0.00    +0.136 A 
ATOM     32  C   UNL     1       1.339   3.092   0.006  0.00  0.00    +0.091 A 
ATOM     33  C   UNL     1       1.187   1.680  -0.000  0.00  0.00    +0.168 A 
ATOM     34  N   UNL     1       2.397   1.183  -0.009  0.00  0.00    -0.063 NA
ATOM     35  O   UNL     1       3.233   2.056  -0.017  0.00  0.00    -0.358 OA
ATOM     36  N   UNL     1      -0.011   0.966   0.007  0.00  0.00    -0.267 N 
ATOM     37  C   UNL     1      -1.187   1.624   0.017  0.00  0.00    +0.229 C 
ATOM     38  O   UNL     1      -1.204   2.836   0.023  0.00  0.00    -0.275 OA
ATOM     39  H   UNL     1       0.002  -0.004   0.002  0.00  0.00    +0.156 HD
ENDBRANCH  29  37
ENDBRANCH  28  29
ENDBRANCH   1  28
TORSDOF 7
