REMARK  Name = ZINC06408539
REMARK  12 active torsions:
REMARK  status: ('A' for Active; 'I' for Inactive)
REMARK    1  A    between atoms: C_1  and  C_2
REMARK    2  A    between atoms: C_9  and  C_14
REMARK    3  A    between atoms: C_14  and  C_16
REMARK    4  A    between atoms: C_14  and  N_69
REMARK    5  A    between atoms: N_20  and  C_21
REMARK    6  A    between atoms: C_21  and  C_22
REMARK    7  A    between atoms: C_21  and  C_23
REMARK    8  A    between atoms: C_21  and  C_24
REMARK    9  A    between atoms: C_25  and  C_26
REMARK   10  A    between atoms: C_25  and  N_69
REMARK   11  A    between atoms: C_32  and  C_33
REMARK   12  A    between atoms: C_32  and  N_69
REMARK                            x       y       z     vdW  Elec       q    Type
REMARK                         _______ _______ _______ _____ _____    ______ ____
ROOT
ATOM      1  C   UNL     1      -2.778  -0.018  -0.723  0.00  0.00    +0.040 C 
ENDROOT
BRANCH   1  10
ATOM      2  C   UNL     1       2.554   2.359   3.919  0.00  0.00    +0.044 C 
ATOM      3  C   UNL     1       2.062   2.057   2.526  0.00  0.00    -0.050 A 
ATOM      4  C   UNL     1       2.899   2.270   1.440  0.00  0.00    +0.005 A 
ATOM      5  C   UNL     1       2.471   2.001   0.158  0.00  0.00    +0.026 A 
ATOM      6  C   UNL     1       1.186   1.511  -0.051  0.00  0.00    +0.049 A 
ATOM      7  C   UNL     1       0.340   1.296   1.053  0.00  0.00    -0.001 A 
ATOM      8  C   UNL     1       0.797   1.576   2.345  0.00  0.00    +0.013 A 
ATOM      9  C   UNL     1      -1.010   0.779   0.823  0.00  0.00    +0.017 A 
ATOM     10  C   UNL     1      -1.396   0.520  -0.451  0.00  0.00    +0.011 A 
ATOM     11  C   UNL     1      -0.511   0.758  -1.524  0.00  0.00    +0.251 A 
ATOM     12  O   UNL     1      -0.880   0.523  -2.662  0.00  0.00    -0.268 OA
ATOM     13  N   UNL     1       0.731   1.233  -1.323  0.00  0.00    -0.322 N 
ATOM     14  H   UNL     1       1.315   1.382  -2.083  0.00  0.00    +0.169 HD
ENDBRANCH   1  10
BRANCH   1  15
ATOM     15  C   UNL     1      -3.514  -0.193   0.581  0.00  0.00    +0.143 A 
ATOM     16  N   UNL     1      -4.014   0.758   1.331  0.00  0.00    -0.115 NA
ATOM     17  N   UNL     1      -4.564   0.207   2.357  0.00  0.00    -0.023 NA
ATOM     18  N   UNL     1      -4.427  -1.071   2.281  0.00  0.00    -0.043 NA
ATOM     19  N   UNL     1      -3.789  -1.357   1.197  0.00  0.00    -0.225 N 
BRANCH  19  20
ATOM     20  C   UNL     1      -3.430  -2.698   0.727  0.00  0.00    +0.059 C 
ATOM     21  C   UNL     1      -1.920  -2.767   0.489  0.00  0.00    +0.036 C 
ATOM     22  C   UNL     1      -3.828  -3.732   1.782  0.00  0.00    +0.036 C 
ATOM     23  C   UNL     1      -4.167  -2.994  -0.581  0.00  0.00    +0.036 C 
ENDBRANCH  19  20
ENDBRANCH   1  15
BRANCH   1  24
ATOM     24  N   UNL     1      -3.498   0.928  -1.601  0.00  0.00    +0.395 N 
ATOM     25  H   UNL     1      -2.986   1.016  -2.487  0.00  0.00    -0.079 HD
BRANCH  24  26
ATOM     26  C   UNL     1      -3.575   2.256  -0.957  0.00  0.00    -0.041 C 
BRANCH  26  27
ATOM     27  C   UNL     1      -2.364   3.057  -1.364  0.00  0.00    -0.064 A 
ATOM     28  C   UNL     1      -1.358   3.302  -0.449  0.00  0.00    +0.002 A 
ATOM     29  C   UNL     1      -0.245   4.032  -0.823  0.00  0.00    +0.000 A 
ATOM     30  C   UNL     1      -0.145   4.527  -2.110  0.00  0.00    +0.000 A 
ATOM     31  C   UNL     1      -1.154   4.287  -3.024  0.00  0.00    +0.000 A 
ATOM     32  C   UNL     1      -2.264   3.552  -2.651  0.00  0.00    +0.002 A 
ENDBRANCH  26  27
ENDBRANCH  24  26
BRANCH  24  33
ATOM     33  C   UNL     1      -4.858   0.423  -1.881  0.00  0.00    -0.041 C 
BRANCH  33  34
ATOM     34  C   UNL     1      -5.433   1.196  -3.040  0.00  0.00    -0.064 A 
ATOM     35  C   UNL     1      -6.175   2.339  -2.808  0.00  0.00    +0.003 A 
ATOM     36  C   UNL     1      -6.698   3.051  -3.870  0.00  0.00    +0.020 A 
ATOM     37  C   UNL     1      -6.488   2.614  -5.166  0.00  0.00    +0.041 A 
ATOM     38  C   UNL     1      -5.750   1.466  -5.397  0.00  0.00    +0.020 A 
ATOM     39  C   UNL     1      -5.223   0.758  -4.334  0.00  0.00    +0.003 A 
ATOM     40 CL   UNL     1      -7.150   3.505  -6.501  0.00  0.00    -0.084 Cl
ENDBRANCH  33  34
ENDBRANCH  24  33
ENDBRANCH   1  24
TORSDOF 8
