REMARK  Name = ZINC63627870
REMARK  5 active torsions:
REMARK  status: ('A' for Active; 'I' for Inactive)
REMARK    1  A    between atoms: C_1  and  C_2
REMARK    2  A    between atoms: C_9  and  C_31
REMARK    3  A    between atoms: C_11  and  C_12
REMARK    4  A    between atoms: N_14  and  C_15
REMARK    5  A    between atoms: C_18  and  C_21
REMARK                            x       y       z     vdW  Elec       q    Type
REMARK                         _______ _______ _______ _____ _____    ______ ____
ROOT
ATOM      1  C   UNL     1       0.079  -4.347   2.472  0.00  0.00    +0.249 C 
ATOM      2  O   UNL     1      -0.011  -4.977   1.437  0.00  0.00    -0.270 OA
ATOM      3  N   UNL     1       0.190  -4.996   3.648  0.00  0.00    -0.281 N 
ATOM      4  H   UNL     1       0.183  -4.497   4.480  0.00  0.00    +0.155 HD
ENDROOT
BRANCH   1  15
ATOM      5  C   UNL     1       0.070   1.504   0.009  0.00  0.00    +0.046 C 
ATOM      6  C   UNL     1       0.082  -0.003   0.001  0.00  0.00    -0.024 A 
ATOM      7  C   UNL     1       0.105  -0.680  -1.179  0.00  0.00    +0.005 A 
ATOM      8  C   UNL     1       0.117  -2.073  -1.210  0.00  0.00    +0.001 A 
ATOM      9  C   UNL     1       0.106  -2.797  -0.054  0.00  0.00    +0.011 A 
ATOM     10  C   UNL     1       0.081  -2.134   1.177  0.00  0.00    +0.013 A 
ATOM     11  C   UNL     1       0.075  -0.716   1.214  0.00  0.00    +0.075 A 
ATOM     12  N   UNL     1       0.056  -0.080   2.386  0.00  0.00    -0.246 NA
ATOM     13  C   UNL     1       0.049  -0.722   3.535  0.00  0.00    +0.072 A 
ATOM     14  C   UNL     1       0.060  -2.123   3.612  0.00  0.00    +0.042 A 
ATOM     15  C   UNL     1       0.068  -2.869   2.442  0.00  0.00    +0.048 A 
BRANCH  13  16
ATOM     16  C   UNL     1       0.028   0.063   4.793  0.00  0.00    +0.000 A 
ATOM     17  C   UNL     1       0.026  -0.590   6.025  0.00  0.00    +0.010 A 
ATOM     18  C   UNL     1       0.007   0.146   7.193  0.00  0.00    +0.001 A 
ATOM     19  C   UNL     1      -0.009   1.528   7.142  0.00  0.00    +0.000 A 
ATOM     20  C   UNL     1      -0.007   2.181   5.922  0.00  0.00    +0.001 A 
ATOM     21  C   UNL     1       0.017   1.456   4.749  0.00  0.00    +0.010 A 
ENDBRANCH  13  16
ENDBRANCH   1  15
BRANCH   3  22
ATOM     22  C   UNL     1       0.315  -6.389   3.669  0.00  0.00    +0.034 A 
ATOM     23  C   UNL     1      -0.266  -7.124   4.694  0.00  0.00    +0.023 A 
ATOM     24  C   UNL     1      -0.141  -8.499   4.712  0.00  0.00    +0.008 A 
ATOM     25  C   UNL     1       0.562  -9.144   3.711  0.00  0.00    -0.021 A 
ATOM     26  C   UNL     1       1.142  -8.415   2.689  0.00  0.00    +0.008 A 
ATOM     27  C   UNL     1       1.016  -7.040   2.662  0.00  0.00    +0.023 A 
BRANCH  25  28
ATOM     28  C   UNL     1       0.697 -10.645   3.734  0.00  0.00    +0.133 C 
ATOM     29  C   UNL     1       2.072 -11.037   4.228  0.00  0.00    +0.012 C 
ATOM     30  C   UNL     1       2.650 -11.726   3.218  0.00  0.00    -0.004 A 
ATOM     31  C   UNL     1       3.964 -12.365   3.075  0.00  0.00    +0.010 A 
ATOM     32  C   UNL     1       4.264 -12.996   1.916  0.00  0.00    +0.001 A 
ATOM     33  C   UNL     1       3.354 -13.054   0.852  0.00  0.00    +0.002 A 
ATOM     34  C   UNL     1       2.129 -12.491   0.908  0.00  0.00    +0.026 A 
ATOM     35  C   UNL     1       1.708 -11.802   2.079  0.00  0.00    +0.043 A 
ATOM     36  N   UNL     1       0.588 -11.184   2.374  0.00  0.00    -0.374 N 
ATOM     37  H   UNL     1      -0.182 -11.097   1.791  0.00  0.00    +0.161 HD
ENDBRANCH  25  28
ENDBRANCH   3  22
TORSDOF 4
