REMARK  Name = ZINC10243997
REMARK  5 active torsions:
REMARK  status: ('A' for Active; 'I' for Inactive)
REMARK    1  A    between atoms: N_13  and  C_27
REMARK    2  A    between atoms: C_14  and  S_16
REMARK    3  A    between atoms: S_16  and  C_17
REMARK    4  A    between atoms: C_17  and  C_18
REMARK    5  A    between atoms: N_20  and  C_21
REMARK                            x       y       z     vdW  Elec       q    Type
REMARK                         _______ _______ _______ _____ _____    ______ ____
ROOT
ATOM      1  C   UNL     1       7.882   6.162  -1.452  0.00  0.00    +0.001 A 
ATOM      2  C   UNL     1       9.244   6.339  -1.251  0.00  0.00    +0.002 A 
ATOM      3  C   UNL     1       9.965   5.437  -0.501  0.00  0.00    +0.026 A 
ATOM      4  C   UNL     1       9.326   4.336   0.064  0.00  0.00    +0.049 A 
ATOM      5  C   UNL     1       7.947   4.162  -0.142  0.00  0.00    +0.026 A 
ATOM      6  C   UNL     1       7.235   5.088  -0.907  0.00  0.00    +0.012 A 
ATOM      7  C   UNL     1       7.569   2.932   0.567  0.00  0.00    +0.104 A 
ATOM      8  C   UNL     1       8.733   2.440   1.154  0.00  0.00    +0.132 A 
ATOM      9  N   UNL     1       9.780   3.294   0.844  0.00  0.00    -0.349 N 
ATOM     10  H   UNL     1      10.699   3.175   1.132  0.00  0.00    +0.166 HD
ATOM     11  C   UNL     1       8.657   1.250   1.907  0.00  0.00    +0.283 A 
ATOM     12  O   UNL     1       9.651   0.785   2.439  0.00  0.00    -0.265 OA
ATOM     13  N   UNL     1       7.460   0.637   2.028  0.00  0.00    -0.251 N 
ATOM     14  C   UNL     1       6.351   1.165   1.430  0.00  0.00    +0.177 A 
ATOM     15  N   UNL     1       6.411   2.270   0.721  0.00  0.00    -0.221 NA
ENDROOT
BRANCH  13  16
ATOM     16  C   UNL     1       7.355  -0.547   2.771  0.00  0.00    +0.087 A 
ATOM     17  C   UNL     1       7.526  -1.776   2.149  0.00  0.00    +0.029 A 
ATOM     18  C   UNL     1       7.427  -2.941   2.884  0.00  0.00    +0.002 A 
ATOM     19  C   UNL     1       7.147  -2.886   4.237  0.00  0.00    +0.003 A 
ATOM     20  C   UNL     1       6.971  -1.664   4.861  0.00  0.00    +0.040 A 
ATOM     21  C   UNL     1       7.073  -0.493   4.131  0.00  0.00    +0.147 A 
ATOM     22  F   UNL     1       6.900   0.700   4.740  0.00  0.00    -0.203 F 
ENDBRANCH  13  16
BRANCH  14  23
ATOM     23  S   UNL     1       4.804   0.339   1.606  0.00  0.00    -0.078 S 
BRANCH  23  24
ATOM     24  C   UNL     1       3.745   1.447   0.644  0.00  0.00    +0.173 C 
BRANCH  24  25
ATOM     25  C   UNL     1       2.331   0.926   0.654  0.00  0.00    +0.224 C 
ATOM     26  O   UNL     1       2.066  -0.095   1.254  0.00  0.00    -0.275 OA
ATOM     27  N   UNL     1       1.362   1.593  -0.002  0.00  0.00    -0.312 N 
ATOM     28  H   UNL     1       1.574   2.409  -0.482  0.00  0.00    +0.149 HD
BRANCH  27  29
ATOM     29  C   UNL     1      -0.013   1.086   0.008  0.00  0.00    +0.073 C 
ATOM     30  C   UNL     1      -0.729   1.579   1.267  0.00  0.00    +0.022 C 
ATOM     31  C   UNL     1      -2.164   1.050   1.278  0.00  0.00    +0.002 C 
ATOM     32  C   UNL     1      -2.904   1.556   0.038  0.00  0.00    +0.000 C 
ATOM     33  C   UNL     1      -2.188   1.063  -1.221  0.00  0.00    +0.002 C 
ATOM     34  C   UNL     1      -0.753   1.593  -1.232  0.00  0.00    +0.022 C 
ENDBRANCH  27  29
ENDBRANCH  24  25
ENDBRANCH  23  24
ENDBRANCH  14  23
TORSDOF 5
