REMARK  Name = ZINC35091604
REMARK  9 active torsions:
REMARK  status: ('A' for Active; 'I' for Inactive)
REMARK    1  A    between atoms: C_1  and  C_2
REMARK    2  A    between atoms: C_2  and  C_3
REMARK    3  A    between atoms: C_6  and  N_9
REMARK    4  A    between atoms: C_19  and  C_20
REMARK    5  A    between atoms: C_20  and  C_22
REMARK    6  A    between atoms: C_20  and  N_23
REMARK    7  A    between atoms: N_23  and  C_24
REMARK    8  A    between atoms: N_27  and  C_28
REMARK    9  A    between atoms: C_33  and  C_34
REMARK                            x       y       z     vdW  Elec       q    Type
REMARK                         _______ _______ _______ _____ _____    ______ ____
ROOT
ATOM      1  N   UNL     1       2.643  -1.890  -4.676  0.00  0.00    -0.263 N 
ATOM      2  C   UNL     1       1.928  -2.186  -5.787  0.00  0.00    +0.266 A 
ATOM      3  O   UNL     1       0.711  -2.162  -5.780  0.00  0.00    -0.267 OA
ATOM      4  C   UNL     1       2.678  -2.538  -7.001  0.00  0.00    +0.065 A 
ATOM      5  C   UNL     1       2.037  -2.860  -8.196  0.00  0.00    +0.015 A 
ATOM      6  C   UNL     1       2.788  -3.182  -9.304  0.00  0.00    +0.001 A 
ATOM      7  C   UNL     1       4.176  -3.189  -9.239  0.00  0.00    +0.002 A 
ATOM      8  C   UNL     1       4.829  -2.876  -8.068  0.00  0.00    +0.028 A 
ATOM      9  C   UNL     1       4.089  -2.545  -6.931  0.00  0.00    +0.078 A 
ATOM     10  N   UNL     1       4.691  -2.228  -5.758  0.00  0.00    -0.231 NA
ATOM     11  C   UNL     1       4.003  -1.915  -4.702  0.00  0.00    +0.138 A 
ENDROOT
BRANCH   1  15
ATOM     12  C   UNL     1       0.663  -0.871  -1.154  0.00  0.00    -0.047 A 
ATOM     13  C   UNL     1       1.388  -2.046  -1.223  0.00  0.00    +0.005 A 
ATOM     14  C   UNL     1       2.045  -2.387  -2.389  0.00  0.00    +0.026 A 
ATOM     15  C   UNL     1       1.977  -1.548  -3.493  0.00  0.00    +0.051 A 
ATOM     16  C   UNL     1       1.248  -0.368  -3.421  0.00  0.00    +0.026 A 
ATOM     17  C   UNL     1       0.589  -0.036  -2.253  0.00  0.00    +0.005 A 
BRANCH  12  19
ATOM     18  C   UNL     1      -1.469  -1.082   0.095  0.00  0.00    +0.009 C 
ATOM     19  C   UNL     1      -0.053  -0.503   0.120  0.00  0.00    +0.032 C 
ENDBRANCH  12  19
ENDBRANCH   1  15
BRANCH  11  20
ATOM     20  C   UNL     1       4.749  -1.570  -3.439  0.00  0.00    +0.141 C 
ATOM     21  C   UNL     1       5.688  -2.720  -3.070  0.00  0.00    +0.036 C 
BRANCH  20  22
ATOM     22  N   UNL     1       5.532  -0.350  -3.652  0.00  0.00    -0.279 N 
ATOM     23  C   UNL     1       6.563  -0.314  -4.693  0.00  0.00    +0.134 C 
ATOM     24  C   UNL     1       5.304   0.739  -2.891  0.00  0.00    +0.307 C 
ATOM     25  O   UNL     1       4.449   0.709  -2.028  0.00  0.00    -0.252 OA
ATOM     26  N   UNL     1       6.025   1.861  -3.088  0.00  0.00    -0.269 N 
ATOM     27  H   UNL     1       6.756   1.862  -3.725  0.00  0.00    +0.156 HD
BRANCH  26  28
ATOM     28  C   UNL     1       5.717   3.024  -2.372  0.00  0.00    +0.038 A 
ATOM     29  C   UNL     1       4.437   3.213  -1.868  0.00  0.00    +0.023 A 
ATOM     30  C   UNL     1       4.138   4.361  -1.162  0.00  0.00    +0.002 A 
ATOM     31  C   UNL     1       5.110   5.323  -0.958  0.00  0.00    +0.000 A 
ATOM     32  C   UNL     1       6.385   5.138  -1.459  0.00  0.00    +0.005 A 
ATOM     33  C   UNL     1       6.693   3.989  -2.161  0.00  0.00    -0.029 A 
ATOM     34  C   UNL     1       8.085   3.785  -2.701  0.00  0.00    +0.045 C 
ENDBRANCH  26  28
ENDBRANCH  20  22
ENDBRANCH  11  20
TORSDOF 5
