REMARK  Name = ZINC44161778
REMARK  6 active torsions:
REMARK  status: ('A' for Active; 'I' for Inactive)
REMARK    1  A    between atoms: C_1  and  C_2
REMARK    2  A    between atoms: C_3  and  C_27
REMARK    3  A    between atoms: C_5  and  C_14
REMARK    4  A    between atoms: N_6  and  C_7
REMARK    5  A    between atoms: C_7  and  C_8
REMARK    6  A    between atoms: N_19  and  C_20
REMARK                            x       y       z     vdW  Elec       q    Type
REMARK                         _______ _______ _______ _____ _____    ______ ____
ROOT
ATOM      1  C   UNL     1      -0.561   1.536  -0.066  0.00  0.00    +0.064 C 
ATOM      2  C   UNL     1      -0.404   0.038  -0.043  0.00  0.00    +0.028 A 
ATOM      3  C   UNL     1      -0.466  -0.797  -1.136  0.00  0.00    +0.058 A 
ATOM      4  C   UNL     1      -0.265  -2.120  -0.659  0.00  0.00    +0.042 A 
ATOM      5  C   UNL     1      -0.092  -2.037   0.684  0.00  0.00    +0.069 A 
ATOM      6  N   UNL     1      -0.172  -0.716   1.052  0.00  0.00    -0.342 N 
ENDROOT
BRANCH   5   7
ATOM      7  C   UNL     1       0.148  -3.175   1.597  0.00  0.00    +0.097 A 
ATOM      8  C   UNL     1       0.416  -2.957   2.921  0.00  0.00    +0.078 A 
ATOM      9  S   UNL     1       0.611  -4.636   3.504  0.00  0.00    -0.060 S 
ATOM     10  C   UNL     1       0.319  -5.453   1.942  0.00  0.00    +0.163 A 
ATOM     11  N   UNL     1       0.101  -4.426   1.141  0.00  0.00    -0.223 NA
ATOM     12  N   UNL     1       0.316  -6.808   1.649  0.00  0.00    -0.294 N 
ATOM     13  H   UNL     1       0.105  -7.110   0.751  0.00  0.00    +0.154 HD
BRANCH  12  14
ATOM     14  C   UNL     1       0.616  -7.740   2.648  0.00  0.00    +0.033 A 
ATOM     15  C   UNL     1       0.207  -7.514   3.956  0.00  0.00    +0.026 A 
ATOM     16  C   UNL     1       0.505  -8.435   4.940  0.00  0.00    +0.040 A 
ATOM     17  C   UNL     1       1.211  -9.584   4.625  0.00  0.00    +0.124 A 
ATOM     18  C   UNL     1       1.620  -9.811   3.321  0.00  0.00    +0.040 A 
ATOM     19  C   UNL     1       1.319  -8.896   2.332  0.00  0.00    +0.026 A 
ATOM     20  F   UNL     1       1.502 -10.484   5.589  0.00  0.00    -0.205 F 
ENDBRANCH  12  14
ENDBRANCH   5   7
BRANCH   3  21
ATOM     21  C   UNL     1      -0.698  -0.395  -2.534  0.00  0.00    +0.243 C 
ATOM     22  O   UNL     1      -0.857   0.778  -2.811  0.00  0.00    -0.270 OA
ATOM     23  N   UNL     1      -0.733  -1.328  -3.507  0.00  0.00    -0.325 N 
ATOM     24  H   UNL     1      -0.607  -2.264  -3.286  0.00  0.00    +0.145 HD
ATOM     25  H   UNL     1      -0.886  -1.063  -4.427  0.00  0.00    +0.145 HD
ENDBRANCH   3  21
BRANCH   6  26
ATOM     26  C   UNL     1      -0.031  -0.207   2.419  0.00  0.00    +0.125 C 
BRANCH  26  27
ATOM     27  C   UNL     1       1.454  -0.039   2.750  0.00  0.00    +0.009 C 
ATOM     28  C   UNL     1       2.055   1.050   1.860  0.00  0.00    +0.005 C 
ATOM     29  C   UNL     1       3.539   1.218   2.191  0.00  0.00    +0.000 C 
ATOM     30  C   UNL     1       3.692   1.618   3.660  0.00  0.00    +0.000 C 
ATOM     31  C   UNL     1       3.090   0.528   4.550  0.00  0.00    +0.000 C 
ATOM     32  C   UNL     1       1.606   0.360   4.219  0.00  0.00    +0.005 C 
ENDBRANCH  26  27
ENDBRANCH   6  26
TORSDOF 5
