REMARK  Name = ZINC06408763
REMARK  10 active torsions:
REMARK  status: ('A' for Active; 'I' for Inactive)
REMARK    1  A    between atoms: C_1  and  C_2
REMARK    2  A    between atoms: C_9  and  C_14
REMARK    3  A    between atoms: C_14  and  C_16
REMARK    4  A    between atoms: C_14  and  N_69
REMARK    5  A    between atoms: N_20  and  C_21
REMARK    6  A    between atoms: C_21  and  C_22
REMARK    7  A    between atoms: C_28  and  C_29
REMARK    8  A    between atoms: C_28  and  N_69
REMARK    9  A    between atoms: C_34  and  C_35
REMARK   10  A    between atoms: C_34  and  N_69
REMARK                            x       y       z     vdW  Elec       q    Type
REMARK                         _______ _______ _______ _____ _____    ______ ____
ROOT
ATOM      1  C   UNL     1       2.850  -1.791  -2.295  0.00  0.00    +0.039 C 
ENDROOT
BRANCH   1  10
ATOM      2  C   UNL     1       0.653   4.176  -6.192  0.00  0.00    +0.044 C 
ATOM      3  C   UNL     1       0.852   3.464  -4.879  0.00  0.00    -0.050 A 
ATOM      4  C   UNL     1       0.499   4.096  -3.694  0.00  0.00    +0.005 A 
ATOM      5  C   UNL     1       0.671   3.464  -2.481  0.00  0.00    +0.026 A 
ATOM      6  C   UNL     1       1.204   2.179  -2.442  0.00  0.00    +0.049 A 
ATOM      7  C   UNL     1       1.561   1.542  -3.645  0.00  0.00    -0.001 A 
ATOM      8  C   UNL     1       1.376   2.203  -4.864  0.00  0.00    +0.013 A 
ATOM      9  C   UNL     1       2.126   0.192  -3.593  0.00  0.00    +0.017 A 
ATOM     10  C   UNL     1       2.276  -0.401  -2.383  0.00  0.00    +0.011 A 
ATOM     11  C   UNL     1       1.902   0.282  -1.206  0.00  0.00    +0.251 A 
ATOM     12  O   UNL     1       2.050  -0.268  -0.128  0.00  0.00    -0.268 OA
ATOM     13  N   UNL     1       1.387   1.524  -1.243  0.00  0.00    -0.322 N 
ATOM     14  H   UNL     1       1.141   1.964  -0.415  0.00  0.00    +0.169 HD
ENDBRANCH   1  10
BRANCH   1  15
ATOM     15  C   UNL     1       4.141  -1.753  -1.517  0.00  0.00    +0.143 A 
ATOM     16  N   UNL     1       4.326  -1.219  -0.334  0.00  0.00    -0.115 NA
ATOM     17  N   UNL     1       5.561  -1.392  -0.009  0.00  0.00    -0.023 NA
ATOM     18  N   UNL     1       6.169  -2.016  -0.957  0.00  0.00    -0.044 NA
ATOM     19  N   UNL     1       5.327  -2.256  -1.904  0.00  0.00    -0.228 N 
BRANCH  19  20
ATOM     20  C   UNL     1       5.610  -2.947  -3.165  0.00  0.00    +0.178 C 
BRANCH  20  21
ATOM     21  C   UNL     1       6.042  -1.926  -4.220  0.00  0.00    +0.140 C 
ATOM     22  C   UNL     1       6.230  -2.629  -5.582  0.00  0.00    +0.035 C 
ATOM     23  C   UNL     1       7.490  -1.918  -6.147  0.00  0.00    +0.031 C 
ATOM     24  C   UNL     1       8.290  -1.658  -4.846  0.00  0.00    +0.160 C 
ATOM     25  O   UNL     1       7.300  -1.350  -3.852  0.00  0.00    -0.375 OA
ENDBRANCH  20  21
ENDBRANCH  19  20
ENDBRANCH   1  15
BRANCH   1  26
ATOM     26  N   UNL     1       1.885  -2.660  -1.589  0.00  0.00    +0.396 N 
ATOM     27  H   UNL     1       1.576  -2.188  -0.732  0.00  0.00    -0.080 HD
BRANCH  26  28
ATOM     28  C   UNL     1       2.529  -3.941  -1.227  0.00  0.00    -0.002 C 
BRANCH  28  29
ATOM     29  C   UNL     1       3.139  -3.799   0.143  0.00  0.00    +0.089 A 
ATOM     30  C   UNL     1       2.491  -3.952   1.313  0.00  0.00    +0.042 A 
ATOM     31  C   UNL     1       3.440  -3.732   2.338  0.00  0.00    +0.041 A 
ATOM     32  C   UNL     1       4.610  -3.458   1.734  0.00  0.00    +0.195 A 
ATOM     33  O   UNL     1       4.422  -3.500   0.405  0.00  0.00    -0.470 OA
ENDBRANCH  28  29
ENDBRANCH  26  28
BRANCH  26  34
ATOM     34  C   UNL     1       0.709  -2.912  -2.449  0.00  0.00    -0.045 C 
BRANCH  34  35
ATOM     35  C   UNL     1      -0.397  -1.929  -2.058  0.00  0.00    +0.102 C 
ATOM     36  C   UNL     1      -1.712  -2.283  -2.788  0.00  0.00    +0.032 C 
ATOM     37  C   UNL     1      -2.338  -0.909  -3.118  0.00  0.00    +0.030 C 
ATOM     38  C   UNL     1      -1.327   0.111  -2.550  0.00  0.00    +0.160 C 
ATOM     39  O   UNL     1      -0.068  -0.597  -2.509  0.00  0.00    -0.378 OA
ENDBRANCH  34  35
ENDBRANCH  26  34
ENDBRANCH   1  26
TORSDOF 9
