REMARK  Name = ZINC60370050
REMARK  12 active torsions:
REMARK  status: ('A' for Active; 'I' for Inactive)
REMARK    1  A    between atoms: C_1  and  C_2
REMARK    2  A    between atoms: N_5  and  C_11
REMARK    3  A    between atoms: C_7  and  C_10
REMARK    4  A    between atoms: C_11  and  C_12
REMARK    5  A    between atoms: N_15  and  C_18
REMARK    6  A    between atoms: C_18  and  C_20
REMARK    7  A    between atoms: C_18  and  C_21
REMARK    8  A    between atoms: N_23  and  C_24
REMARK    9  A    between atoms: C_24  and  C_25
REMARK   10  A    between atoms: C_28  and  C_31
REMARK   11  A    between atoms: C_31  and  O_33
REMARK   12  A    between atoms: O_33  and  C_34
REMARK                            x       y       z     vdW  Elec       q    Type
REMARK                         _______ _______ _______ _____ _____    ______ ____
ROOT
ATOM      1  C   UNL     1      -3.479  -7.865  -1.917  0.00  0.00    +0.016 C 
ATOM      2  C   UNL     1      -4.992  -7.639  -1.896  0.00  0.00    -0.004 C 
ENDROOT
BRANCH   1   6
ATOM      3  C   UNL     1      -1.121  -5.292   0.527  0.00  0.00    -0.000 C 
ATOM      4  C   UNL     1      -0.631  -5.652  -0.878  0.00  0.00    -0.014 C 
ATOM      5  C   UNL     1      -1.351  -6.915  -1.355  0.00  0.00    -0.077 C 
ATOM      6  N   UNL     1      -2.799  -6.676  -1.385  0.00  0.00    +0.387 N 
ATOM      7  C   UNL     1      -3.287  -6.401  -0.029  0.00  0.00    -0.077 C 
ATOM      8  C   UNL     1      -2.642  -5.117   0.499  0.00  0.00    -0.014 C 
ATOM      9  H   UNL     1      -2.996  -5.885  -1.980  0.00  0.00    -0.081 HD
BRANCH   3  10
ATOM     10  C   UNL     1      -0.465  -3.985   0.979  0.00  0.00    +0.088 C 
BRANCH  10  14
ATOM     11  C   UNL     1       3.907  -1.840   1.692  0.00  0.00    +0.039 C 
ATOM     12  C   UNL     1       3.185  -3.158   1.404  0.00  0.00    +0.130 C 
ATOM     13  C   UNL     1       1.677  -2.907   1.321  0.00  0.00    +0.115 C 
ATOM     14  N   UNL     1       0.983  -4.188   1.121  0.00  0.00    -0.297 NA
ATOM     15  C   UNL     1       1.279  -5.118   2.220  0.00  0.00    +0.115 C 
ATOM     16  C   UNL     1       2.791  -5.346   2.295  0.00  0.00    +0.130 C 
ATOM     17  O   UNL     1       3.452  -4.088   2.457  0.00  0.00    -0.371 OA
ATOM     18  C   UNL     1       3.113  -6.251   3.486  0.00  0.00    +0.039 C 
ENDBRANCH  10  14
ENDBRANCH   3  10
ENDBRANCH   1   6
BRANCH   1  19
ATOM     19  C   UNL     1      -3.027  -8.111  -3.333  0.00  0.00    +0.199 C 
ATOM     20  O   UNL     1      -2.643  -7.185  -4.016  0.00  0.00    -0.278 OA
ATOM     21  N   UNL     1      -3.050  -9.359  -3.841  0.00  0.00    -0.313 N 
ATOM     22  H   UNL     1      -3.357 -10.099  -3.295  0.00  0.00    +0.149 HD
BRANCH  21  23
ATOM     23  C   UNL     1      -2.611  -9.598  -5.218  0.00  0.00    +0.139 C 
BRANCH  23  24
ATOM     24  C   UNL     1      -2.733 -11.066  -5.537  0.00  0.00    -0.030 A 
ATOM     25  C   UNL     1      -1.670 -11.916  -5.289  0.00  0.00    +0.006 A 
ATOM     26  C   UNL     1      -1.776 -13.261  -5.579  0.00  0.00    +0.015 A 
ATOM     27  C   UNL     1      -2.959 -13.763  -6.123  0.00  0.00    +0.059 A 
ATOM     28  C   UNL     1      -4.029 -12.899  -6.371  0.00  0.00    +0.015 A 
ATOM     29  C   UNL     1      -3.911 -11.558  -6.071  0.00  0.00    +0.006 A 
BRANCH  27  30
ATOM     30  C   UNL     1      -3.080 -15.202  -6.436  0.00  0.00    +0.339 C 
ATOM     31  O   UNL     1      -2.148 -15.950  -6.220  0.00  0.00    -0.245 OA
BRANCH  30  32
ATOM     32  O   UNL     1      -4.223 -15.683  -6.962  0.00  0.00    -0.464 OA
ATOM     33  C   UNL     1      -4.270 -17.084  -7.240  0.00  0.00    +0.280 C 
ENDBRANCH  30  32
ENDBRANCH  27  30
ENDBRANCH  23  24
ENDBRANCH  21  23
ENDBRANCH   1  19
TORSDOF 8
