REMARK  Name = ZINC01344891
REMARK  5 active torsions:
REMARK  status: ('A' for Active; 'I' for Inactive)
REMARK    1  A    between atoms: C_1  and  C_2
REMARK    2  A    between atoms: C_8  and  C_10
REMARK    3  A    between atoms: C_10  and  N_16
REMARK    4  A    between atoms: N_19  and  C_20
REMARK    5  A    between atoms: C_25  and  C_26
REMARK                            x       y       z     vdW  Elec       q    Type
REMARK                         _______ _______ _______ _____ _____    ______ ____
ROOT
ATOM      1  C   UNL     1       0.302   5.267  -0.436  0.00  0.00    +0.112 C 
ATOM      2  C   UNL     1       0.370   5.362   1.089  0.00  0.00    +0.035 C 
ATOM      3  C   UNL     1       0.583   6.820   1.501  0.00  0.00    +0.003 C 
ATOM      4  C   UNL     1      -0.582   7.670   0.989  0.00  0.00    +0.000 C 
ATOM      5  C   UNL     1      -0.650   7.575  -0.537  0.00  0.00    +0.003 C 
ATOM      6  C   UNL     1      -0.863   6.117  -0.949  0.00  0.00    +0.035 C 
ENDROOT
BRANCH   1  14
ATOM      7  C   UNL     1       0.323  -1.671  -4.149  0.00  0.00    +0.075 C 
ATOM      8  C   UNL     1       0.278  -0.369  -3.391  0.00  0.00    +0.101 A 
ATOM      9  N   UNL     1      -0.104  -0.122  -2.154  0.00  0.00    -0.145 NA
ATOM     10  N   UNL     1      -0.070   1.052  -1.692  0.00  0.00    -0.126 NA
ATOM     11  C   UNL     1       0.345   2.076  -2.417  0.00  0.00    +0.188 A 
ATOM     12  S   UNL     1       0.727   1.282  -3.916  0.00  0.00    -0.036 S 
ATOM     13  N   UNL     1       0.447   3.421  -2.075  0.00  0.00    -0.262 N 
ATOM     14  C   UNL     1       0.093   3.831  -0.841  0.00  0.00    +0.242 C 
ATOM     15  O   UNL     1      -0.395   3.045  -0.057  0.00  0.00    -0.273 OA
ATOM     16  H   UNL     1       0.774   4.063  -2.725  0.00  0.00    +0.157 HD
ENDBRANCH   1  14
BRANCH   1  17
ATOM     17  N   UNL     1       1.556   5.760  -1.012  0.00  0.00    -0.285 N 
ATOM     18  C   UNL     1       2.708   5.098  -0.785  0.00  0.00    +0.305 C 
ATOM     19  O   UNL     1       2.723   4.145  -0.029  0.00  0.00    -0.252 OA
ATOM     20  N   UNL     1       3.843   5.491  -1.395  0.00  0.00    -0.269 N 
ATOM     21  H   UNL     1       1.558   6.562  -1.557  0.00  0.00    +0.151 HD
ATOM     22  H   UNL     1       3.848   6.293  -1.940  0.00  0.00    +0.156 HD
BRANCH  20  23
ATOM     23  C   UNL     1       5.016   4.743  -1.240  0.00  0.00    +0.046 A 
ATOM     24  C   UNL     1       4.948   3.420  -0.826  0.00  0.00    +0.024 A 
ATOM     25  C   UNL     1       6.106   2.683  -0.680  0.00  0.00    +0.002 A 
ATOM     26  C   UNL     1       7.335   3.265  -0.935  0.00  0.00    +0.001 A 
ATOM     27  C   UNL     1       7.406   4.584  -1.343  0.00  0.00    +0.014 A 
ATOM     28  C   UNL     1       6.251   5.325  -1.496  0.00  0.00    +0.076 A 
BRANCH  28  29
ATOM     29  C   UNL     1       6.330   6.763  -1.940  0.00  0.00    +0.419 C 
ATOM     30  F   UNL     1       7.669   7.118  -2.134  0.00  0.00    -0.166 F 
ATOM     31  F   UNL     1       5.628   6.920  -3.140  0.00  0.00    -0.166 F 
ATOM     32  F   UNL     1       5.766   7.585  -0.959  0.00  0.00    -0.166 F 
ENDBRANCH  28  29
ENDBRANCH  20  23
ENDBRANCH   1  17
TORSDOF 4
