REMARK  Name = ZINC67600648
REMARK  6 active torsions:
REMARK  status: ('A' for Active; 'I' for Inactive)
REMARK    1  A    between atoms: C_1  and  C_2
REMARK    2  A    between atoms: C_3  and  C_12
REMARK    3  A    between atoms: C_14  and  C_15
REMARK    4  A    between atoms: C_14  and  C_17
REMARK    5  A    between atoms: C_17  and  C_19
REMARK    6  A    between atoms: C_22  and  C_24
REMARK                            x       y       z     vdW  Elec       q    Type
REMARK                         _______ _______ _______ _____ _____    ______ ____
ROOT
ATOM      1  C   UNL     1      -0.005  -0.336  -2.517  0.00  0.00    +0.209 C 
ATOM      2  O   UNL     1       1.092  -0.490  -3.289  0.00  0.00    -0.286 OA
ATOM      3  C   UNL     1      -1.152   0.259  -3.045  0.00  0.00    +0.147 C 
ENDROOT
BRANCH   1   6
ATOM      4  C   UNL     1      -0.018   1.503   0.010  0.00  0.00    +0.064 C 
ATOM      5  C   UNL     1       0.002  -0.004   0.002  0.00  0.00    +0.025 A 
ATOM      6  C   UNL     1       0.008  -0.793  -1.128  0.00  0.00    +0.051 A 
ATOM      7  C   UNL     1       0.029  -2.191  -0.655  0.00  0.00    +0.011 A 
ATOM      8  C   UNL     1       0.043  -3.427  -1.297  0.00  0.00    +0.011 A 
ATOM      9  C   UNL     1       0.062  -4.583  -0.548  0.00  0.00    +0.001 A 
ATOM     10  C   UNL     1       0.067  -4.520   0.838  0.00  0.00    +0.002 A 
ATOM     11  C   UNL     1       0.053  -3.304   1.485  0.00  0.00    +0.026 A 
ATOM     12  C   UNL     1       0.034  -2.124   0.747  0.00  0.00    +0.047 A 
ATOM     13  N   UNL     1       0.024  -0.791   1.103  0.00  0.00    -0.358 N 
ATOM     14  H   UNL     1       0.028  -0.464   2.017  0.00  0.00    +0.166 HD
ENDBRANCH   1   6
BRANCH   3  15
ATOM     15  C   UNL     1      -1.165   0.706  -4.406  0.00  0.00    +0.107 C 
ATOM     16  N   UNL     1      -1.175   1.061  -5.485  0.00  0.00    -0.191 NA
ENDBRANCH   3  15
BRANCH   3  17
ATOM     17  C   UNL     1      -2.343   0.426  -2.208  0.00  0.00    +0.215 C 
ATOM     18  O   UNL     1      -2.332   0.046  -1.049  0.00  0.00    -0.285 OA
BRANCH  17  19
ATOM     19  C   UNL     1      -3.547   1.052  -2.763  0.00  0.00    +0.080 A 
ATOM     20  C   UNL     1      -4.770   1.313  -2.158  0.00  0.00    +0.131 A 
ATOM     21  N   UNL     1      -5.713   1.886  -2.852  0.00  0.00    -0.246 NA
ATOM     22  C   UNL     1      -5.532   2.227  -4.127  0.00  0.00    +0.115 A 
ATOM     23  S   UNL     1      -3.847   1.697  -4.404  0.00  0.00    -0.063 S 
BRANCH  22  24
ATOM     24  C   UNL     1      -6.466   2.873  -5.057  0.00  0.00    +0.044 A 
ATOM     25  C   UNL     1      -7.766   3.293  -4.837  0.00  0.00    +0.018 A 
ATOM     26  C   UNL     1      -8.450   3.878  -5.876  0.00  0.00    +0.008 A 
ATOM     27  C   UNL     1      -7.832   4.025  -7.079  0.00  0.00    +0.046 A 
ATOM     28  S   UNL     1      -6.219   3.328  -6.766  0.00  0.00    -0.095 S 
ENDBRANCH  22  24
ENDBRANCH  17  19
ENDBRANCH   3  17
TORSDOF 5
