REMARK  Name = ZINC37134450
REMARK  3 active torsions:
REMARK  status: ('A' for Active; 'I' for Inactive)
REMARK    1  A    between atoms: C_1  and  N_2
REMARK    2  A    between atoms: C_7  and  N_12
REMARK    3  A    between atoms: N_12  and  C_13
REMARK                            x       y       z     vdW  Elec       q    Type
REMARK                         _______ _______ _______ _____ _____    ______ ____
ROOT
ATOM      1  N   UNL     1      -0.906  -4.283  -1.109  0.00  0.00    -0.337 N 
ATOM      2  H   UNL     1      -1.812  -4.312  -1.456  0.00  0.00    +0.147 HD
ENDROOT
BRANCH   1   9
ATOM      3  C   UNL     1      -0.018   1.461   0.010  0.00  0.00    +0.172 C 
ATOM      4  N   UNL     1       0.002  -0.004   0.002  0.00  0.00    -0.271 N 
ATOM      5  C   UNL     1       0.008  -0.789  -1.088  0.00  0.00    +0.044 A 
ATOM      6  C   UNL     1       0.025  -2.081  -0.670  0.00  0.00    +0.013 A 
ATOM      7  C   UNL     1       0.032  -2.082   0.723  0.00  0.00    +0.140 A 
ATOM      8  N   UNL     1       0.025  -0.837   1.131  0.00  0.00    -0.179 NA
ATOM      9  C   UNL     1       0.033  -3.270  -1.598  0.00  0.00    +0.104 C 
ATOM     10  C   UNL     1      -0.395  -2.798  -2.993  0.00  0.00    +0.027 C 
ATOM     11  C   UNL     1       0.427  -1.569  -3.391  0.00  0.00    +0.008 C 
ATOM     12  C   UNL     1      -0.001  -0.369  -2.536  0.00  0.00    +0.055 C 
ENDBRANCH   1   9
BRANCH   1  13
ATOM     13  C   UNL     1      -0.498  -5.206  -0.144  0.00  0.00    +0.030 A 
ATOM     14  C   UNL     1       0.804  -5.155   0.357  0.00  0.00    +0.024 A 
ATOM     15  C   UNL     1       1.220  -6.048   1.299  0.00  0.00    +0.013 A 
ATOM     16  C   UNL     1       0.336  -7.025   1.772  0.00  0.00    +0.020 A 
ATOM     17  C   UNL     1       0.450  -8.104   2.748  0.00  0.00    +0.142 A 
ATOM     18  N   UNL     1      -0.698  -8.719   2.798  0.00  0.00    -0.181 NA
ATOM     19  N   UNL     1      -1.600  -8.124   1.910  0.00  0.00    -0.277 N 
ATOM     20  H   UNL     1      -2.518  -8.405   1.768  0.00  0.00    +0.189 HD
ATOM     21  C   UNL     1      -0.979  -7.082   1.272  0.00  0.00    +0.067 A 
ATOM     22  C   UNL     1      -1.389  -6.159   0.313  0.00  0.00    +0.050 A 
ENDBRANCH   1  13
TORSDOF 2
