REMARK  Name = ZINC43301697
REMARK  8 active torsions:
REMARK  status: ('A' for Active; 'I' for Inactive)
REMARK    1  A    between atoms: C_1  and  C_2
REMARK    2  A    between atoms: C_2  and  C_3
REMARK    3  A    between atoms: C_3  and  N_4
REMARK    4  A    between atoms: N_7  and  C_10
REMARK    5  A    between atoms: C_10  and  C_12
REMARK    6  A    between atoms: C_10  and  C_13
REMARK    7  A    between atoms: C_19  and  C_25
REMARK    8  A    between atoms: C_20  and  C_24
REMARK                            x       y       z     vdW  Elec       q    Type
REMARK                         _______ _______ _______ _____ _____    ______ ____
ROOT
ATOM      1  C   UNL     1      -3.573  -6.501   1.117  0.00  0.00    +0.128 A 
ATOM      2  N   UNL     1      -3.829  -7.813   1.356  0.00  0.00    -0.309 N 
ATOM      3  H   UNL     1      -3.091  -8.415   1.535  0.00  0.00    +0.170 HD
ATOM      4  C   UNL     1      -5.086  -8.294   1.349  0.00  0.00    +0.260 A 
ATOM      5  O   UNL     1      -5.298  -9.474   1.566  0.00  0.00    -0.267 OA
ATOM      6  C   UNL     1      -6.171  -7.396   1.082  0.00  0.00    +0.075 A 
ATOM      7  C   UNL     1      -7.595  -7.666   1.020  0.00  0.00    -0.026 A 
ATOM      8  C   UNL     1      -8.442  -6.659   0.751  0.00  0.00    -0.008 A 
ATOM      9  S   UNL     1      -7.363  -5.252   0.560  0.00  0.00    -0.073 S 
ATOM     10  C   UNL     1      -5.808  -6.058   0.846  0.00  0.00    +0.116 A 
ATOM     11  N   UNL     1      -4.540  -5.657   0.876  0.00  0.00    -0.225 NA
ATOM     12  C   UNL     1      -9.944  -6.707   0.639  0.00  0.00    +0.052 C 
ATOM     13  C   UNL     1      -8.118  -9.060   1.254  0.00  0.00    +0.045 C 
ENDROOT
BRANCH   1  14
ATOM     14  C   UNL     1      -2.149  -6.009   1.135  0.00  0.00    +0.120 C 
ATOM     15  C   UNL     1      -1.490  -6.404   2.459  0.00  0.00    +0.032 C 
BRANCH  14  19
ATOM     16  N   UNL     1      -1.319  -1.905   1.721  0.00  0.00    +0.381 N 
ATOM     17  C   UNL     1      -2.679  -2.382   2.006  0.00  0.00    -0.063 C 
ATOM     18  C   UNL     1      -2.656  -3.898   2.211  0.00  0.00    +0.066 C 
ATOM     19  N   UNL     1      -2.134  -4.546   0.999  0.00  0.00    -0.296 NA
ATOM     20  C   UNL     1      -0.783  -4.060   0.687  0.00  0.00    +0.066 C 
ATOM     21  C   UNL     1      -0.822  -2.542   0.494  0.00  0.00    -0.063 C 
ATOM     22  H   UNL     1      -0.713  -2.141   2.492  0.00  0.00    -0.082 HD
BRANCH  16  23
ATOM     23  C   UNL     1      -1.340  -0.447   1.542  0.00  0.00    -0.079 C 
BRANCH  23  25
ATOM     24  C   UNL     1      -1.760   1.741   2.671  0.00  0.00    +0.002 C 
ATOM     25  C   UNL     1      -1.739   0.223   2.858  0.00  0.00    -0.022 C 
ENDBRANCH  23  25
ENDBRANCH  16  23
ENDBRANCH  14  19
ENDBRANCH   1  14
TORSDOF 4
