REMARK  Name = ZINC36158872
REMARK  13 active torsions:
REMARK  status: ('A' for Active; 'I' for Inactive)
REMARK    1  A    between atoms: C_1  and  C_2
REMARK    2  A    between atoms: C_2  and  C_3
REMARK    3  A    between atoms: C_2  and  C_4
REMARK    4  A    between atoms: C_4  and  O_5
REMARK    5  A    between atoms: O_5  and  C_6
REMARK    6  A    between atoms: C_6  and  C_7
REMARK    7  A    between atoms: C_7  and  C_9
REMARK    8  A    between atoms: C_7  and  O_32
REMARK    9  A    between atoms: C_9  and  N_10
REMARK   10  A    between atoms: N_10  and  C_11
REMARK   11  A    between atoms: N_10  and  C_17
REMARK   12  A    between atoms: C_11  and  C_12
REMARK   13  A    between atoms: C_17  and  C_18
REMARK                            x       y       z     vdW  Elec       q    Type
REMARK                         _______ _______ _______ _____ _____    ______ ____
ROOT
ATOM      1  N   UNL     1      -3.577  -5.862  -0.257  0.00  0.00    +0.391 N 
ATOM      2  H   UNL     1      -2.913  -6.063  -0.990  0.00  0.00    -0.080 HD
ENDROOT
BRANCH   1   3
ATOM      3  C   UNL     1      -3.950  -4.442  -0.309  0.00  0.00    -0.044 C 
BRANCH   3   4
ATOM      4  C   UNL     1      -2.687  -3.581  -0.240  0.00  0.00    +0.124 C 
BRANCH   4   5
ATOM      5  O   UNL     1      -1.892  -3.807  -1.406  0.00  0.00    -0.391 OA
ATOM      6  H   UNL     1      -2.340  -3.590  -2.235  0.00  0.00    +0.210 HD
ENDBRANCH   4   5
BRANCH   4   7
ATOM      7  C   UNL     1      -3.080  -2.104  -0.168  0.00  0.00    +0.189 C 
BRANCH   7   8
ATOM      8  O   UNL     1      -1.908  -1.308   0.014  0.00  0.00    -0.377 OA
BRANCH   8   9
ATOM      9  C   UNL     1      -2.166   0.096   0.094  0.00  0.00    +0.163 C 
BRANCH   9  11
ATOM     10  C   UNL     1      -1.107   2.353   0.248  0.00  0.00    +0.009 C 
ATOM     11  C   UNL     1      -0.846   0.846   0.287  0.00  0.00    +0.009 C 
ATOM     12  C   UNL     1      -0.238   0.469   1.640  0.00  0.00    +0.009 C 
ENDBRANCH   9  11
ENDBRANCH   8   9
ENDBRANCH   7   8
ENDBRANCH   4   7
ENDBRANCH   3   4
ENDBRANCH   1   3
BRANCH   1  13
ATOM     13  C   UNL     1      -2.973  -6.163   1.048  0.00  0.00    -0.002 C 
BRANCH  13  14
ATOM     14  C   UNL     1      -2.474  -7.585   1.055  0.00  0.00    +0.089 A 
ATOM     15  C   UNL     1      -1.282  -8.003   0.590  0.00  0.00    +0.042 A 
ATOM     16  C   UNL     1      -1.231  -9.401   0.793  0.00  0.00    +0.041 A 
ATOM     17  C   UNL     1      -2.394  -9.754   1.370  0.00  0.00    +0.195 A 
ATOM     18  O   UNL     1      -3.140  -8.649   1.531  0.00  0.00    -0.470 OA
ENDBRANCH  13  14
ENDBRANCH   1  13
BRANCH   1  19
ATOM     19  C   UNL     1      -4.776  -6.690  -0.444  0.00  0.00    -0.003 C 
BRANCH  19  20
ATOM     20  C   UNL     1      -5.298  -6.510  -1.846  0.00  0.00    +0.094 A 
ATOM     21  N   UNL     1      -6.476  -7.087  -2.198  0.00  0.00    -0.312 N 
ATOM     22  H   UNL     1      -6.965  -7.607  -1.542  0.00  0.00    +0.170 HD
ATOM     23  C   UNL     1      -6.978  -6.951  -3.440  0.00  0.00    +0.260 A 
ATOM     24  O   UNL     1      -8.037  -7.475  -3.742  0.00  0.00    -0.267 OA
ATOM     25  C   UNL     1      -6.246  -6.179  -4.399  0.00  0.00    +0.075 A 
ATOM     26  C   UNL     1      -6.600  -5.900  -5.799  0.00  0.00    -0.023 A 
ATOM     27  C   UNL     1      -5.741  -5.144  -6.503  0.00  0.00    -0.004 A 
ATOM     28  S   UNL     1      -4.429  -4.759  -5.367  0.00  0.00    -0.073 S 
ATOM     29  C   UNL     1      -5.043  -5.623  -3.945  0.00  0.00    +0.116 A 
ATOM     30  N   UNL     1      -4.612  -5.796  -2.698  0.00  0.00    -0.229 NA
ATOM     31  C   UNL     1      -6.203  -4.928  -7.920  0.00  0.00    +0.043 C 
ATOM     32  C   UNL     1      -7.274  -6.017  -8.148  0.00  0.00    +0.010 C 
ATOM     33  C   UNL     1      -7.772  -6.272  -6.711  0.00  0.00    +0.037 C 
ENDBRANCH  19  20
ENDBRANCH   1  19
TORSDOF 11
