REMARK  Name = ZINC39773081
REMARK  14 active torsions:
REMARK  status: ('A' for Active; 'I' for Inactive)
REMARK    1  A    between atoms: C_1  and  C_2
REMARK    2  A    between atoms: C_2  and  C_4
REMARK    3  A    between atoms: C_2  and  S_12
REMARK    4  A    between atoms: C_4  and  N_6
REMARK    5  A    between atoms: S_12  and  C_13
REMARK    6  A    between atoms: C_16  and  CA_22
REMARK    7  A    between atoms: N_17  and  C_18
REMARK    8  A    between atoms: C_18  and  C_19
REMARK    9  A    between atoms: C_19  and  C_20
REMARK   10  A    between atoms: C_19  and  C_21
REMARK   11  A    between atoms: CA_22  and  C_24
REMARK   12  A    between atoms: CA_22  and  N_26
REMARK   13  A    between atoms: C_24  and  O_25
REMARK   14  A    between atoms: C_27  and  C_29
REMARK                            x       y       z     vdW  Elec       q    Type
REMARK                         _______ _______ _______ _____ _____    ______ ____
ROOT
ATOM      1  C   UNL     1      -0.502  -0.307  -2.764  0.00  0.00    +0.192 A 
ATOM      2  N   UNL     1      -1.656   0.301  -2.617  0.00  0.00    -0.122 NA
ATOM      3  N   UNL     1      -2.058   0.754  -3.750  0.00  0.00    -0.131 NA
ATOM      4  C   UNL     1      -1.193   0.465  -4.681  0.00  0.00    +0.157 A 
ATOM      5  N   UNL     1      -0.168  -0.216  -4.085  0.00  0.00    -0.304 N 
ENDROOT
BRANCH   1   6
ATOM      6  S   UNL     1       0.441  -1.087  -1.496  0.00  0.00    -0.073 S 
BRANCH   6   8
ATOM      7  C   UNL     1      -0.639   0.640   0.329  0.00  0.00    +0.029 C 
ATOM      8  C   UNL     1      -0.557  -0.852   0.000  0.00  0.00    +0.139 C 
BRANCH   8   9
ATOM      9  C   UNL     1       0.083  -1.585   1.151  0.00  0.00    +0.251 C 
ATOM     10  O   UNL     1       1.277  -1.812   1.138  0.00  0.00    -0.272 OA
BRANCH   9  11
ATOM     11  N   UNL     1      -0.659  -1.983   2.181  0.00  0.00    -0.158 NA
ATOM     12  C   UNL     1      -0.096  -2.629   3.196  0.00  0.00    +0.146 C 
ATOM     13  N   UNL     1      -0.730  -3.092   4.297  0.00  0.00    -0.325 N 
ATOM     14  C   UNL     1       0.019  -3.781   5.327  0.00  0.00    +0.114 C 
ATOM     15  C   UNL     1       1.515  -3.875   4.961  0.00  0.00    +0.095 C 
ATOM     16  S   UNL     1       1.527  -3.022   3.336  0.00  0.00    -0.092 S 
ATOM     17  H   UNL     1      -1.686  -2.961   4.397  0.00  0.00    +0.148 HD
ENDBRANCH   9  11
ENDBRANCH   8   9
ENDBRANCH   6   8
ENDBRANCH   1   6
BRANCH   5  18
ATOM     18  C   UNL     1       1.037  -0.743  -4.731  0.00  0.00    +0.128 C 
BRANCH  18  19
ATOM     19  C   UNL     1       2.090   0.364  -4.825  0.00  0.00    +0.003 C 
ATOM     20  C   UNL     1       2.539   0.761  -3.417  0.00  0.00    +0.009 C 
ATOM     21  C   UNL     1       3.294  -0.144  -5.620  0.00  0.00    +0.009 C 
ENDBRANCH  18  19
ENDBRANCH   5  18
BRANCH   4  22
ATOM     22  CA  UNL     1      -1.299   0.822  -6.141  0.00  0.00    +0.167 C 
BRANCH  22  23
ATOM     23  N   UNL     1      -1.806   2.190  -6.274  0.00  0.00    -0.299 N 
ATOM     24  C   UNL     1      -1.527   2.907  -7.380  0.00  0.00    +0.245 C 
ATOM     25  O   UNL     1      -0.854   2.419  -8.268  0.00  0.00    -0.270 OA
ATOM     26  H   UNL     1      -2.343   2.579  -5.566  0.00  0.00    +0.150 HD
BRANCH  24  27
ATOM     27  C   UNL     1      -2.038   4.287  -7.515  0.00  0.00    +0.037 A 
ATOM     28  C   UNL     1      -2.806   4.852  -6.495  0.00  0.00    +0.014 A 
ATOM     29  C   UNL     1      -3.280   6.141  -6.626  0.00  0.00    +0.021 A 
ATOM     30  C   UNL     1      -2.997   6.873  -7.766  0.00  0.00    +0.041 A 
ATOM     31  C   UNL     1      -2.235   6.318  -8.782  0.00  0.00    +0.021 A 
ATOM     32  C   UNL     1      -1.751   5.033  -8.659  0.00  0.00    +0.014 A 
ATOM     33 CL   UNL     1      -3.598   8.494  -7.925  0.00  0.00    -0.084 Cl
ENDBRANCH  24  27
ENDBRANCH  22  23
BRANCH  22  34
ATOM     34  C   UNL     1      -2.259  -0.148  -6.834  0.00  0.00    +0.186 C 
BRANCH  34  35
ATOM     35  O   UNL     1      -3.513  -0.146  -6.150  0.00  0.00    -0.393 OA
ATOM     36  H   UNL     1      -4.172  -0.740  -6.536  0.00  0.00    +0.209 HD
ENDBRANCH  34  35
ENDBRANCH  22  34
ENDBRANCH   4  22
TORSDOF 11
