REMARK  Name = ZINC15607235
REMARK  9 active torsions:
REMARK  status: ('A' for Active; 'I' for Inactive)
REMARK    1  A    between atoms: C_1  and  C_2
REMARK    2  A    between atoms: C_2  and  N_3
REMARK    3  A    between atoms: N_3  and  C_4
REMARK    4  A    between atoms: N_3  and  C_6
REMARK    5  A    between atoms: C_4  and  C_5
REMARK    6  A    between atoms: C_6  and  C_7
REMARK    7  A    between atoms: C_7  and  N_8
REMARK    8  A    between atoms: N_17  and  C_18
REMARK    9  A    between atoms: C_18  and  C_20
REMARK                            x       y       z     vdW  Elec       q    Type
REMARK                         _______ _______ _______ _____ _____    ______ ____
ROOT
ATOM      1  N   UNL     1      -2.327  -4.003   0.572  0.00  0.00    -0.314 N 
ATOM      2  C   UNL     1      -2.203  -4.930  -0.458  0.00  0.00    +0.068 A 
ATOM      3  C   UNL     1      -2.236  -4.819  -1.841  0.00  0.00    +0.028 A 
ATOM      4  C   UNL     1      -2.080  -5.944  -2.625  0.00  0.00    +0.002 A 
ATOM      5  C   UNL     1      -1.893  -7.184  -2.038  0.00  0.00    +0.002 A 
ATOM      6  C   UNL     1      -1.859  -7.306  -0.664  0.00  0.00    +0.028 A 
ATOM      7  C   UNL     1      -2.014  -6.181   0.134  0.00  0.00    +0.066 A 
ATOM      8  N   UNL     1      -2.026  -5.989   1.512  0.00  0.00    -0.326 N 
ATOM      9  C   UNL     1      -2.212  -4.663   1.756  0.00  0.00    +0.201 A 
ATOM     10  N   UNL     1      -2.274  -4.104   2.958  0.00  0.00    -0.142 NA
ATOM     11  H   UNL     1      -1.918  -6.681   2.183  0.00  0.00    +0.169 HD
ENDROOT
BRANCH  10  12
ATOM     12  C   UNL     1      -2.024  -4.835   4.051  0.00  0.00    +0.273 C 
ATOM     13  O   UNL     1      -1.652  -5.990   3.938  0.00  0.00    -0.268 OA
BRANCH  12  14
ATOM     14  C   UNL     1      -2.200  -4.242   5.394  0.00  0.00    +0.074 A 
ATOM     15  C   UNL     1      -2.632  -2.922   5.527  0.00  0.00    +0.017 A 
ATOM     16  C   UNL     1      -2.795  -2.374   6.781  0.00  0.00    +0.016 A 
ATOM     17  C   UNL     1      -2.531  -3.131   7.911  0.00  0.00    +0.021 A 
ATOM     18  C   UNL     1      -2.102  -4.440   7.790  0.00  0.00    +0.054 A 
ATOM     19  C   UNL     1      -1.940  -5.004   6.537  0.00  0.00    +0.137 A 
ATOM     20  F   UNL     1      -1.527  -6.284   6.418  0.00  0.00    -0.205 F 
ATOM     21 BR   UNL     1      -2.757  -2.370   9.628  0.00  0.00    -0.050 Br
ENDBRANCH  12  14
ENDBRANCH  10  12
BRANCH   1  22
ATOM     22  C   UNL     1      -2.539  -2.563   0.410  0.00  0.00    +0.106 C 
BRANCH  22  23
ATOM     23  C   UNL     1      -1.186  -1.854   0.331  0.00  0.00    -0.057 C 
BRANCH  23  24
ATOM     24  N   UNL     1      -1.396  -0.429   0.043  0.00  0.00    +0.380 N 
ATOM     25  H   UNL     1      -1.937  -0.332  -0.803  0.00  0.00    -0.082 HD
BRANCH  24  27
ATOM     26  C   UNL     1      -2.446   1.647   0.808  0.00  0.00    -0.017 C 
ATOM     27  C   UNL     1      -2.118   0.195   1.160  0.00  0.00    -0.082 C 
ENDBRANCH  24  27
BRANCH  24  28
ATOM     28  C   UNL     1      -0.095   0.233  -0.130  0.00  0.00    -0.082 C 
ATOM     29  C   UNL     1       0.606  -0.335  -1.365  0.00  0.00    -0.017 C 
ENDBRANCH  24  28
ENDBRANCH  23  24
ENDBRANCH  22  23
ENDBRANCH   1  22
TORSDOF 7
