REMARK  Name = ZINC35777457
REMARK  14 active torsions:
REMARK  status: ('A' for Active; 'I' for Inactive)
REMARK    1  A    between atoms: C_1  and  C_2
REMARK    2  A    between atoms: C_2  and  C_3
REMARK    3  A    between atoms: C_4  and  C_22
REMARK    4  A    between atoms: C_5  and  O_14
REMARK    5  A    between atoms: N_6  and  C_8
REMARK    6  A    between atoms: O_14  and  C_15
REMARK    7  A    between atoms: C_22  and  N_23
REMARK    8  A    between atoms: N_23  and  C_24
REMARK    9  A    between atoms: N_23  and  C_36
REMARK   10  A    between atoms: C_24  and  C_25
REMARK   11  A    between atoms: C_25  and  C_27
REMARK   12  A    between atoms: C_25  and  O_35
REMARK   13  A    between atoms: C_27  and  O_28
REMARK   14  A    between atoms: O_28  and  C_29
REMARK                            x       y       z     vdW  Elec       q    Type
REMARK                         _______ _______ _______ _____ _____    ______ ____
ROOT
ATOM      1  C   UNL     1       0.957  -2.011   0.712  0.00  0.00    +0.068 A 
ATOM      2  C   UNL     1       2.324  -1.859   0.965  0.00  0.00    +0.021 A 
ATOM      3  C   UNL     1       2.504  -1.874   2.312  0.00  0.00    +0.225 A 
ATOM      4  N   UNL     1       1.281  -2.030   2.886  0.00  0.00    -0.200 N 
ATOM      5  N   UNL     1       0.333  -2.108   1.858  0.00  0.00    -0.168 NA
ENDROOT
BRANCH   4   6
ATOM      6  C   UNL     1       1.016  -2.097   4.261  0.00  0.00    +0.069 A 
ATOM      7  C   UNL     1       1.853  -2.825   5.096  0.00  0.00    +0.028 A 
ATOM      8  C   UNL     1       1.589  -2.889   6.450  0.00  0.00    +0.002 A 
ATOM      9  C   UNL     1       0.493  -2.228   6.975  0.00  0.00    +0.000 A 
ATOM     10  C   UNL     1      -0.342  -1.502   6.146  0.00  0.00    +0.002 A 
ATOM     11  C   UNL     1      -0.080  -1.430   4.791  0.00  0.00    +0.028 A 
ENDBRANCH   4   6
BRANCH   1  13
ATOM     12  C   UNL     1      -0.066  -0.629  -1.075  0.00  0.00    +0.010 C 
ATOM     13  C   UNL     1       0.311  -2.049  -0.649  0.00  0.00    +0.054 C 
ENDBRANCH   1  13
BRANCH   3  14
ATOM     14  O   UNL     1       3.688  -1.754   2.966  0.00  0.00    -0.435 OA
BRANCH  14  15
ATOM     15  C   UNL     1       4.426  -2.879   3.159  0.00  0.00    +0.165 A 
ATOM     16  C   UNL     1       3.994  -4.091   2.643  0.00  0.00    +0.049 A 
ATOM     17  C   UNL     1       4.746  -5.233   2.841  0.00  0.00    +0.004 A 
ATOM     18  C   UNL     1       5.930  -5.169   3.551  0.00  0.00    +0.003 A 
ATOM     19  C   UNL     1       6.366  -3.962   4.067  0.00  0.00    +0.042 A 
ATOM     20  C   UNL     1       5.620  -2.815   3.868  0.00  0.00    +0.165 A 
ATOM     21  F   UNL     1       6.047  -1.635   4.367  0.00  0.00    -0.202 F 
ENDBRANCH  14  15
ENDBRANCH   3  14
BRANCH   2  22
ATOM     22  C   UNL     1       3.406  -1.707  -0.073  0.00  0.00    -0.035 C 
BRANCH  22  23
ATOM     23  N   UNL     1       3.599  -0.283  -0.375  0.00  0.00    +0.386 N 
ATOM     24  H   UNL     1       2.717   0.125  -0.650  0.00  0.00    -0.081 HD
BRANCH  23  25
ATOM     25  C   UNL     1       4.106   0.407   0.819  0.00  0.00    -0.068 C 
ATOM     26  C   UNL     1       3.145   1.341   1.557  0.00  0.00    -0.017 C 
ATOM     27  C   UNL     1       4.295   1.923   0.733  0.00  0.00    -0.017 C 
ENDBRANCH  23  25
BRANCH  23  28
ATOM     28  C   UNL     1       4.567  -0.141  -1.471  0.00  0.00    -0.043 C 
BRANCH  28  29
ATOM     29  C   UNL     1       5.874  -0.838  -1.090  0.00  0.00    +0.135 C 
BRANCH  29  30
ATOM     30  O   UNL     1       6.487  -0.140  -0.004  0.00  0.00    -0.390 OA
ATOM     31  H   UNL     1       6.702   0.782  -0.200  0.00  0.00    +0.210 HD
ENDBRANCH  29  30
BRANCH  29  32
ATOM     32  C   UNL     1       6.820  -0.841  -2.292  0.00  0.00    +0.258 C 
BRANCH  32  33
ATOM     33  O   UNL     1       7.992  -1.593  -1.974  0.00  0.00    -0.489 OA
BRANCH  33  34
ATOM     34  C   UNL     1       8.941  -1.696  -2.942  0.00  0.00    +0.121 A 
ATOM     35  C   UNL     1       8.750  -1.080  -4.170  0.00  0.00    +0.045 A 
ATOM     36  C   UNL     1       9.716  -1.185  -5.152  0.00  0.00    +0.004 A 
ATOM     37  C   UNL     1      10.873  -1.903  -4.912  0.00  0.00    +0.000 A 
ATOM     38  C   UNL     1      11.066  -2.518  -3.688  0.00  0.00    +0.004 A 
ATOM     39  C   UNL     1      10.105  -2.411  -2.701  0.00  0.00    +0.045 A 
ENDBRANCH  33  34
ENDBRANCH  32  33
ENDBRANCH  29  32
ENDBRANCH  28  29
ENDBRANCH  23  28
ENDBRANCH  22  23
ENDBRANCH   2  22
TORSDOF 13
