REMARK  Name = ZINC38740705
REMARK  11 active torsions:
REMARK  status: ('A' for Active; 'I' for Inactive)
REMARK    1  A    between atoms: C_1  and  C_2
REMARK    2  A    between atoms: C_2  and  C_3
REMARK    3  A    between atoms: C_4  and  C_30
REMARK    4  A    between atoms: C_11  and  N_16
REMARK    5  A    between atoms: C_13  and  C_15
REMARK    6  A    between atoms: C_17  and  C_19
REMARK    7  A    between atoms: C_19  and  C_20
REMARK    8  A    between atoms: C_23  and  S_26
REMARK    9  A    between atoms: S_26  and  C_27
REMARK   10  A    between atoms: C_27  and  C_28
REMARK   11  A    between atoms: C_27  and  C_29
REMARK                            x       y       z     vdW  Elec       q    Type
REMARK                         _______ _______ _______ _____ _____    ______ ____
ROOT
ATOM      1  C   UNL     1       0.841   0.773   1.707  0.00  0.00    +0.040 A 
ATOM      2  C   UNL     1       2.170   0.406   1.596  0.00  0.00    +0.050 A 
ATOM      3  N   UNL     1       2.746  -0.247   2.594  0.00  0.00    -0.215 NA
ATOM      4  C   UNL     1       2.068  -0.550   3.690  0.00  0.00    +0.256 A 
ATOM      5  N   UNL     1       0.796  -0.216   3.834  0.00  0.00    -0.171 NA
ATOM      6  C   UNL     1       0.156   0.444   2.876  0.00  0.00    +0.278 A 
ATOM      7  O   UNL     1      -1.145   0.788   3.030  0.00  0.00    -0.265 OA
ATOM      8  N   UNL     1       2.711  -1.237   4.718  0.00  0.00    -0.183 N 
ATOM      9  C   UNL     1       2.151  -1.624   5.898  0.00  0.00    +0.132 A 
ATOM     10  C   UNL     1       3.114  -2.264   6.616  0.00  0.00    +0.068 A 
ATOM     11  C   UNL     1       4.286  -2.266   5.854  0.00  0.00    +0.062 A 
ATOM     12  N   UNL     1       4.046  -1.660   4.720  0.00  0.00    -0.167 NA
ATOM     13  C   UNL     1       5.603  -2.872   6.267  0.00  0.00    +0.067 C 
ATOM     14  C   UNL     1       2.953   0.744   0.354  0.00  0.00    +0.066 C 
ENDROOT
BRANCH   9  15
ATOM     15  N   UNL     1       0.834  -1.403   6.298  0.00  0.00    -0.270 N 
ATOM     16  C   UNL     1       0.412  -1.843   7.500  0.00  0.00    +0.223 C 
ATOM     17  O   UNL     1       1.178  -2.430   8.234  0.00  0.00    -0.275 OA
ATOM     18  H   UNL     1       0.221  -0.934   5.711  0.00  0.00    +0.156 HD
BRANCH  16  19
ATOM     19  C   UNL     1      -1.012  -1.605   7.932  0.00  0.00    +0.131 C 
BRANCH  19  20
ATOM     20  C   UNL     1      -1.225  -2.190   9.304  0.00  0.00    -0.039 A 
ATOM     21  C   UNL     1      -1.642  -3.502   9.437  0.00  0.00    +0.005 A 
ATOM     22  C   UNL     1      -1.839  -4.042  10.693  0.00  0.00    +0.015 A 
ATOM     23  C   UNL     1      -1.617  -3.265  11.824  0.00  0.00    +0.008 A 
ATOM     24  C   UNL     1      -1.198  -1.947  11.686  0.00  0.00    +0.015 A 
ATOM     25  C   UNL     1      -0.998  -1.416  10.428  0.00  0.00    +0.005 A 
BRANCH  23  26
ATOM     26  S   UNL     1      -1.868  -3.949  13.428  0.00  0.00    -0.122 S 
BRANCH  26  27
ATOM     27  C   UNL     1      -0.217  -4.509  13.929  0.00  0.00    +0.045 C 
ATOM     28  C   UNL     1      -0.254  -4.966  15.389  0.00  0.00    +0.019 C 
ATOM     29  C   UNL     1       0.218  -5.676  13.041  0.00  0.00    +0.019 C 
ENDBRANCH  26  27
ENDBRANCH  23  26
ENDBRANCH  19  20
ENDBRANCH  16  19
ENDBRANCH   9  15
BRANCH   1  31
ATOM     30  C   UNL     1       0.320   3.023   0.804  0.00  0.00    +0.009 C 
ATOM     31  C   UNL     1       0.152   1.517   0.593  0.00  0.00    +0.039 C 
ENDBRANCH   1  31
TORSDOF 6
