REMARK  Name = ZINC39930272
REMARK  16 active torsions:
REMARK  status: ('A' for Active; 'I' for Inactive)
REMARK    1  A    between atoms: C_1  and  C_2
REMARK    2  A    between atoms: C_2  and  C_3
REMARK    3  A    between atoms: C_3  and  C_4
REMARK    4  A    between atoms: C_4  and  C_5
REMARK    5  A    between atoms: C_5  and  O_35
REMARK    6  A    between atoms: C_7  and  C_25
REMARK    7  A    between atoms: C_10  and  C_15
REMARK    8  A    between atoms: C_12  and  C_14
REMARK    9  A    between atoms: C_17  and  O_23
REMARK   10  A    between atoms: C_20  and  O_21
REMARK   11  A    between atoms: O_21  and  C_22
REMARK   12  A    between atoms: O_23  and  C_24
REMARK   13  A    between atoms: C_27  and  O_33
REMARK   14  A    between atoms: C_30  and  O_31
REMARK   15  A    between atoms: O_31  and  C_32
REMARK   16  A    between atoms: O_33  and  C_34
REMARK                            x       y       z     vdW  Elec       q    Type
REMARK                         _______ _______ _______ _____ _____    ______ ____
ROOT
ATOM      1  C   UNL     1       1.455  -2.521  -2.524  0.00  0.00    +0.066 C 
ATOM      2  C   UNL     1       2.895  -2.000  -2.531  0.00  0.00    +0.024 C 
ATOM      3  C   UNL     1       3.647  -2.577  -1.330  0.00  0.00    -0.034 C 
ATOM      4  N   UNL     1       3.655  -4.042  -1.411  0.00  0.00    +0.389 N 
ATOM      5  C   UNL     1       2.281  -4.553  -1.333  0.00  0.00    -0.031 C 
ATOM      6  C   UNL     1       1.477  -4.052  -2.534  0.00  0.00    +0.008 C 
ATOM      7  C   UNL     1       2.129  -4.545  -3.827  0.00  0.00    +0.009 C 
ATOM      8  H   UNL     1       4.069  -4.327  -2.286  0.00  0.00    -0.084 HD
ATOM      9  H   UNL     1       4.197  -4.418  -0.647  0.00  0.00    -0.084 HD
ENDROOT
BRANCH   5  10
ATOM     10  C   UNL     1       2.305  -6.060  -1.339  0.00  0.00    -0.016 A 
ATOM     11  C   UNL     1       3.416  -6.731  -1.810  0.00  0.00    +0.051 A 
ATOM     12  C   UNL     1       3.438  -8.118  -1.816  0.00  0.00    +0.121 A 
ATOM     13  C   UNL     1       2.344  -8.831  -1.347  0.00  0.00    +0.049 A 
ATOM     14  C   UNL     1       1.233  -8.159  -0.876  0.00  0.00    +0.049 A 
ATOM     15  C   UNL     1       1.213  -6.772  -0.866  0.00  0.00    +0.122 A 
BRANCH  15  16
ATOM     16  O   UNL     1       0.121  -6.112  -0.396  0.00  0.00    -0.495 OA
ATOM     17  C   UNL     1      -0.966  -6.909   0.076  0.00  0.00    +0.277 C 
ENDBRANCH  15  16
BRANCH  12  18
ATOM     18  O   UNL     1       4.532  -8.779  -2.280  0.00  0.00    -0.495 OA
ATOM     19  C   UNL     1       4.486 -10.207  -2.256  0.00  0.00    +0.277 C 
ENDBRANCH  12  18
ENDBRANCH   5  10
BRANCH   3  20
ATOM     20  C   UNL     1       5.065  -2.067  -1.333  0.00  0.00    -0.016 A 
ATOM     21  C   UNL     1       6.068  -2.820  -1.912  0.00  0.00    +0.051 A 
ATOM     22  C   UNL     1       7.373  -2.351  -1.915  0.00  0.00    +0.121 A 
ATOM     23  C   UNL     1       7.671  -1.125  -1.338  0.00  0.00    +0.049 A 
ATOM     24  C   UNL     1       6.668  -0.372  -0.760  0.00  0.00    +0.049 A 
ATOM     25  C   UNL     1       5.362  -0.839  -0.761  0.00  0.00    +0.122 A 
BRANCH  25  26
ATOM     26  O   UNL     1       4.373  -0.095  -0.197  0.00  0.00    -0.495 OA
ATOM     27  C   UNL     1       4.751   1.159   0.374  0.00  0.00    +0.277 C 
ENDBRANCH  25  26
BRANCH  22  28
ATOM     28  O   UNL     1       8.361  -3.092  -2.485  0.00  0.00    -0.495 OA
ATOM     29  C   UNL     1       9.682  -2.548  -2.452  0.00  0.00    +0.277 C 
ENDBRANCH  22  28
ENDBRANCH   3  20
BRANCH   1  30
ATOM     30  O   UNL     1       0.767  -2.045  -3.683  0.00  0.00    -0.388 OA
ATOM     31  H   UNL     1       0.718  -1.081  -3.743  0.00  0.00    +0.210 HD
ENDBRANCH   1  30
BRANCH   1  32
ATOM     32  C   UNL     1       0.739  -2.027  -1.265  0.00  0.00    +0.035 C 
BRANCH  32  33
ATOM     33  C   UNL     1       0.718  -0.497  -1.257  0.00  0.00    +0.003 C 
BRANCH  33  35
ATOM     34  C   UNL     1      -0.019   1.526   0.010  0.00  0.00    +0.004 C 
ATOM     35  C   UNL     1       0.002  -0.004   0.002  0.00  0.00    -0.003 C 
ENDBRANCH  33  35
ENDBRANCH  32  33
ENDBRANCH   1  32
TORSDOF 10
