REMARK  Name = ZINC00311312
REMARK  5 active torsions:
REMARK  status: ('A' for Active; 'I' for Inactive)
REMARK    1  A    between atoms: C_1  and  C_2
REMARK    2  A    between atoms: C_3  and  C_18
REMARK    3  A    between atoms: C_4  and  C_10
REMARK    4  A    between atoms: C_18  and  O_20
REMARK    5  A    between atoms: O_20  and  C_21
REMARK                            x       y       z     vdW  Elec       q    Type
REMARK                         _______ _______ _______ _____ _____    ______ ____
ROOT
ATOM      1  C   UNL     1       3.000   6.296   3.011  0.00  0.00    +0.061 C 
ATOM      2  C   UNL     1       2.797   5.761   1.617  0.00  0.00    +0.019 C 
ATOM      3  C   UNL     1       2.921   4.435   1.390  0.00  0.00    +0.078 C 
ATOM      4  C   UNL     1       2.709   3.939  -0.026  0.00  0.00    +0.144 C 
ATOM      5  N   UNL     1       2.382   4.952  -1.045  0.00  0.00    -0.315 N 
ATOM      6  C   UNL     1       2.293   6.240  -0.663  0.00  0.00    +0.135 C 
ATOM      7  S   UNL     1       1.915   7.428  -1.837  0.00  0.00    -0.019 S 
ATOM      8  N   UNL     1       2.491   6.623   0.605  0.00  0.00    -0.300 N 
ATOM      9  H   UNL     1       2.235   4.697  -1.969  0.00  0.00    +0.149 HD
ATOM     10  H   UNL     1       2.412   7.567   0.815  0.00  0.00    +0.154 HD
ENDROOT
BRANCH   4  11
ATOM     11  C   UNL     1       1.592   2.928  -0.002  0.00  0.00    +0.014 A 
ATOM     12  C   UNL     1       1.882   1.575  -0.042  0.00  0.00    +0.048 A 
ATOM     13  C   UNL     1       0.857   0.647  -0.019  0.00  0.00    +0.020 A 
ATOM     14  C   UNL     1      -0.458   1.070   0.038  0.00  0.00    +0.003 A 
ATOM     15  C   UNL     1      -0.748   2.421   0.083  0.00  0.00    +0.020 A 
ATOM     16  C   UNL     1       0.277   3.350   0.060  0.00  0.00    +0.048 A 
ATOM     17 CL   UNL     1      -0.089   5.047   0.109  0.00  0.00    -0.083 Cl
ATOM     18 CL   UNL     1       3.533   1.044  -0.120  0.00  0.00    -0.083 Cl
ENDBRANCH   4  11
BRANCH   3  19
ATOM     19  C   UNL     1       3.238   3.540   2.438  0.00  0.00    +0.338 C 
ATOM     20  O   UNL     1       3.527   3.970   3.539  0.00  0.00    -0.245 OA
BRANCH  19  21
ATOM     21  O   UNL     1       3.221   2.209   2.217  0.00  0.00    -0.465 OA
ATOM     22  C   UNL     1       3.553   1.364   3.321  0.00  0.00    +0.280 C 
ENDBRANCH  19  21
ENDBRANCH   3  19
TORSDOF 3
