REMARK  Name = ZINC04712973
REMARK  8 active torsions:
REMARK  status: ('A' for Active; 'I' for Inactive)
REMARK    1  A    between atoms: C_1  and  C_2
REMARK    2  A    between atoms: C_2  and  C_5
REMARK    3  A    between atoms: N_3  and  O_4
REMARK    4  A    between atoms: C_10  and  C_32
REMARK    5  A    between atoms: C_21  and  C_31
REMARK    6  A    between atoms: C_24  and  O_27
REMARK    7  A    between atoms: O_27  and  C_28
REMARK    8  A    between atoms: C_28  and  C_30
REMARK                            x       y       z     vdW  Elec       q    Type
REMARK                         _______ _______ _______ _____ _____    ______ ____
ROOT
ATOM      1  C   UNL     1       0.078  -0.631  -1.208  0.00  0.00    -0.021 C 
ATOM      2  C   UNL     1       0.203  -0.095  -2.420  0.00  0.00    -0.021 C 
ATOM      3  C   UNL     1       0.121  -1.181  -3.482  0.00  0.00    +0.032 C 
ATOM      4  C   UNL     1      -0.644  -2.302  -2.750  0.00  0.00    +0.006 C 
ATOM      5  C   UNL     1      -0.081  -2.147  -1.323  0.00  0.00    -0.002 C 
ATOM      6  C   UNL     1       1.328  -2.734  -1.214  0.00  0.00    +0.012 C 
ATOM      7  C   UNL     1       1.369  -4.167  -1.736  0.00  0.00    +0.005 C 
ATOM      8  C   UNL     1       1.009  -4.146  -3.227  0.00  0.00    -0.001 C 
ATOM      9  C   UNL     1      -0.432  -3.662  -3.355  0.00  0.00    -0.003 C 
ATOM     10  C   UNL     1      -0.821  -3.663  -4.835  0.00  0.00    +0.004 C 
ATOM     11  C   UNL     1      -0.697  -5.081  -5.395  0.00  0.00    +0.004 C 
ATOM     12  C   UNL     1      -0.226  -6.027  -4.289  0.00  0.00    -0.001 C 
ATOM     13  C   UNL     1       1.151  -5.558  -3.799  0.00  0.00    -0.026 C 
ATOM     14  C   UNL     1       1.644  -6.505  -2.704  0.00  0.00    +0.011 C 
ATOM     15  C   UNL     1       1.786  -7.917  -3.276  0.00  0.00    +0.045 C 
ATOM     16  C   UNL     1       0.428  -8.397  -3.792  0.00  0.00    +0.177 C 
ATOM     17  C   UNL     1      -0.101  -7.445  -4.850  0.00  0.00    +0.048 C 
ATOM     18  C   UNL     1       2.157  -5.542  -4.952  0.00  0.00    +0.012 C 
ATOM     19  C   UNL     1      -1.031  -2.711  -0.266  0.00  0.00    +0.016 C 
ENDROOT
BRANCH   1  21
ATOM     20  C   UNL     1       1.410   0.448   0.717  0.00  0.00    +0.069 C 
ATOM     21  C   UNL     1       0.097   0.121   0.054  0.00  0.00    +0.080 C 
ATOM     22  N   UNL     1      -1.016   0.505   0.596  0.00  0.00    -0.092 NA
BRANCH  22  23
ATOM     23  O   UNL     1      -2.241   0.303  -0.085  0.00  0.00    -0.409 OA
ATOM     24  H   UNL     1      -3.007   0.689   0.362  0.00  0.00    +0.328 HD
ENDBRANCH  22  23
ENDBRANCH   1  21
BRANCH  16  25
ATOM     25  O   UNL     1       0.561  -9.715  -4.327  0.00  0.00    -0.462 OA
BRANCH  25  26
ATOM     26  C   UNL     1       0.372 -10.739  -3.480  0.00  0.00    +0.304 C 
ATOM     27  O   UNL     1       0.102 -10.523  -2.322  0.00  0.00    -0.251 OA
ATOM     28  C   UNL     1       0.496 -12.158  -3.973  0.00  0.00    +0.136 C 
ENDBRANCH  25  26
ENDBRANCH  16  25
TORSDOF 4
