REMARK  Name = ZINC22925005
REMARK  12 active torsions:
REMARK  status: ('A' for Active; 'I' for Inactive)
REMARK    1  A    between atoms: C_1  and  C_2
REMARK    2  A    between atoms: C_6  and  C_33
REMARK    3  A    between atoms: C_9  and  O_11
REMARK    4  A    between atoms: O_11  and  C_12
REMARK    5  A    between atoms: C_12  and  C_13
REMARK    6  A    between atoms: C_13  and  C_15
REMARK    7  A    between atoms: C_13  and  O_32
REMARK    8  A    between atoms: C_15  and  N_16
REMARK    9  A    between atoms: N_19  and  C_22
REMARK   10  A    between atoms: C_22  and  C_23
REMARK   11  A    between atoms: C_33  and  C_34
REMARK   12  A    between atoms: C_33  and  C_35
REMARK                            x       y       z     vdW  Elec       q    Type
REMARK                         _______ _______ _______ _____ _____    ______ ____
ROOT
ATOM      1  N   UNL     1       2.385   5.651  -0.116  0.00  0.00    -0.303 NA
ATOM      2  C   UNL     1       1.667   6.121  -1.309  0.00  0.00    +0.066 C 
ATOM      3  C   UNL     1       1.477   7.637  -1.223  0.00  0.00    -0.063 C 
ATOM      4  N   UNL     1       2.790   8.287  -1.112  0.00  0.00    +0.384 N 
ATOM      5  C   UNL     1       3.508   7.818   0.081  0.00  0.00    -0.063 C 
ATOM      6  C   UNL     1       3.699   6.301  -0.006  0.00  0.00    +0.066 C 
ATOM      7  H   UNL     1       3.382   8.010  -1.997  0.00  0.00    -0.081 HD
ENDROOT
BRANCH   1   8
ATOM      8  C   UNL     1       2.521   4.189  -0.125  0.00  0.00    +0.117 C 
BRANCH   8   9
ATOM      9  C   UNL     1       1.139   3.547   0.010  0.00  0.00    +0.154 C 
BRANCH   9  10
ATOM     10  O   UNL     1       0.539   3.962   1.239  0.00  0.00    -0.388 OA
ATOM     11  H   UNL     1       0.356   5.030   1.429  0.00  0.00    +0.210 HD
ENDBRANCH   9  10
BRANCH   9  12
ATOM     12  C   UNL     1       1.280   2.024   0.001  0.00  0.00    +0.192 C 
BRANCH  12  13
ATOM     13  O   UNL     1      -0.017   1.425   0.010  0.00  0.00    -0.374 OA
BRANCH  13  20
ATOM     14  C   UNL     1      -2.496  -0.038   0.026  0.00  0.00    +0.010 C 
ATOM     15  C   UNL     1      -1.247  -0.527  -0.710  0.00  0.00    +0.015 C 
ATOM     16  C   UNL     1      -1.226  -2.057  -0.719  0.00  0.00    +0.006 C 
ATOM     17  C   UNL     1      -1.206  -2.575   0.721  0.00  0.00    +0.004 C 
ATOM     18  C   UNL     1       0.043  -2.052   1.433  0.00  0.00    -0.006 C 
ATOM     19  C   UNL     1       0.023  -0.522   1.442  0.00  0.00    +0.035 C 
ATOM     20  C   UNL     1       0.002  -0.004   0.002  0.00  0.00    +0.121 C 
BRANCH  18  21
ATOM     21  C   UNL     1       0.064  -2.569   2.873  0.00  0.00    -0.014 C 
ATOM     22  C   UNL     1       0.085  -4.099   2.864  0.00  0.00    +0.007 C 
ATOM     23  C   UNL     1       1.313  -2.046   3.585  0.00  0.00    +0.007 C 
ENDBRANCH  18  21
ENDBRANCH  13  20
ENDBRANCH  12  13
ENDBRANCH   9  12
ENDBRANCH   8   9
ENDBRANCH   1   8
BRANCH   4  24
ATOM     24  C   UNL     1       2.654   9.750  -1.103  0.00  0.00    -0.043 C 
BRANCH  24  25
ATOM     25  C   UNL     1       1.711  10.174  -2.199  0.00  0.00    -0.060 A 
ATOM     26  C   UNL     1       2.202  10.464  -3.458  0.00  0.00    +0.005 A 
ATOM     27  C   UNL     1       1.340  10.847  -4.469  0.00  0.00    +0.050 A 
ATOM     28  C   UNL     1      -0.018  10.954  -4.218  0.00  0.00    +0.166 A 
ATOM     29  C   UNL     1      -0.512  10.667  -2.948  0.00  0.00    +0.166 A 
ATOM     30  C   UNL     1       0.357  10.277  -1.942  0.00  0.00    +0.051 A 
ATOM     31  O   UNL     1      -1.866  10.844  -2.956  0.00  0.00    -0.453 OA
ATOM     32  C   UNL     1      -2.143  11.635  -4.128  0.00  0.00    +0.466 C 
ATOM     33  O   UNL     1      -1.062  11.311  -5.022  0.00  0.00    -0.453 OA
ENDBRANCH  24  25
ENDBRANCH   4  24
TORSDOF 9
