REMARK  Name = ZINC39765855
REMARK  10 active torsions:
REMARK  status: ('A' for Active; 'I' for Inactive)
REMARK    1  A    between atoms: C_1  and  C_2
REMARK    2  A    between atoms: C_2  and  C_3
REMARK    3  A    between atoms: C_3  and  C_5
REMARK    4  A    between atoms: C_3  and  S_13
REMARK    5  A    between atoms: S_13  and  C_14
REMARK    6  A    between atoms: C_17  and  C_20
REMARK    7  A    between atoms: N_18  and  C_19
REMARK    8  A    between atoms: C_20  and  C_22
REMARK    9  A    between atoms: C_20  and  N_23
REMARK   10  A    between atoms: C_24  and  C_26
REMARK                            x       y       z     vdW  Elec       q    Type
REMARK                         _______ _______ _______ _____ _____    ______ ____
ROOT
ATOM      1  C   UNL     1      -0.121   1.832   2.428  0.00  0.00    +0.192 A 
ATOM      2  N   UNL     1       0.417   2.527   1.453  0.00  0.00    -0.122 NA
ATOM      3  N   UNL     1       0.181   3.778   1.627  0.00  0.00    -0.132 NA
ATOM      4  C   UNL     1      -0.516   3.955   2.714  0.00  0.00    +0.154 A 
ATOM      5  N   UNL     1      -0.739   2.722   3.260  0.00  0.00    -0.308 N 
ATOM      6  C   UNL     1      -1.482   2.418   4.486  0.00  0.00    +0.152 C 
ENDROOT
BRANCH   4   7
ATOM      7  C   UNL     1      -0.993   5.275   3.263  0.00  0.00    +0.138 C 
ATOM      8  C   UNL     1       0.184   6.019   3.898  0.00  0.00    +0.036 C 
BRANCH   7   9
ATOM      9  N   UNL     1      -1.553   6.083   2.177  0.00  0.00    -0.302 N 
ATOM     10  C   UNL     1      -2.467   7.035   2.447  0.00  0.00    +0.245 C 
ATOM     11  O   UNL     1      -2.828   7.223   3.593  0.00  0.00    -0.270 OA
ATOM     12  H   UNL     1      -1.265   5.932   1.263  0.00  0.00    +0.150 HD
BRANCH  10  13
ATOM     13  C   UNL     1      -3.032   7.850   1.351  0.00  0.00    +0.038 A 
ATOM     14  C   UNL     1      -2.624   7.631   0.034  0.00  0.00    +0.014 A 
ATOM     15  C   UNL     1      -3.154   8.395  -0.985  0.00  0.00    +0.022 A 
ATOM     16  C   UNL     1      -4.089   9.377  -0.705  0.00  0.00    +0.059 A 
ATOM     17  C   UNL     1      -4.499   9.598   0.601  0.00  0.00    +0.060 A 
ATOM     18  C   UNL     1      -3.980   8.836   1.628  0.00  0.00    +0.034 A 
ATOM     19 CL   UNL     1      -5.672  10.831   0.944  0.00  0.00    -0.082 Cl
ATOM     20 CL   UNL     1      -4.751  10.334  -1.993  0.00  0.00    -0.082 Cl
ENDBRANCH  10  13
ENDBRANCH   7   9
ENDBRANCH   4   7
BRANCH   1  21
ATOM     21  S   UNL     1      -0.065   0.082   2.623  0.00  0.00    -0.073 S 
BRANCH  21  22
ATOM     22  C   UNL     1       0.787  -0.498   1.130  0.00  0.00    +0.140 C 
BRANCH  22  23
ATOM     23  C   UNL     1       2.223  -0.043   1.162  0.00  0.00    +0.232 C 
ATOM     24  O   UNL     1       2.761   0.190   2.224  0.00  0.00    -0.274 OA
ATOM     25  N   UNL     1       2.909   0.104   0.012  0.00  0.00    -0.264 N 
ATOM     26  C   UNL     1       4.234   0.524   0.041  0.00  0.00    +0.164 A 
ATOM     27  N   UNL     1       4.976   0.815   1.088  0.00  0.00    -0.233 NA
ATOM     28  C   UNL     1       6.230   1.203   0.948  0.00  0.00    +0.120 A 
ATOM     29  C   UNL     1       6.712   1.287  -0.316  0.00  0.00    +0.068 A 
ATOM     30  S   UNL     1       5.280   0.776  -1.253  0.00  0.00    -0.061 S 
ATOM     31  H   UNL     1       2.478  -0.083  -0.837  0.00  0.00    +0.157 HD
ENDBRANCH  22  23
BRANCH  22  33
ATOM     32  C   UNL     1      -0.713  -2.484   0.902  0.00  0.00    +0.005 C 
ATOM     33  C   UNL     1       0.737  -2.027   1.076  0.00  0.00    +0.020 C 
ENDBRANCH  22  33
ENDBRANCH  21  22
ENDBRANCH   1  21
TORSDOF 7
