REMARK  Name = ZINC17713124
REMARK  7 active torsions:
REMARK  status: ('A' for Active; 'I' for Inactive)
REMARK    1  A    between atoms: C_4  and  C_7
REMARK    2  A    between atoms: C_7  and  N_8
REMARK    3  A    between atoms: C_9  and  C_29
REMARK    4  A    between atoms: C_10  and  C_23
REMARK    5  A    between atoms: C_12  and  S_13
REMARK    6  A    between atoms: S_13  and  C_14
REMARK    7  A    between atoms: C_14  and  C_15
REMARK                            x       y       z     vdW  Elec       q    Type
REMARK                         _______ _______ _______ _____ _____    ______ ____
ROOT
ATOM      1  N   UNL     1       0.002  -0.004   0.002  0.00  0.00    -0.314 N 
ATOM      2  C   UNL     1      -0.003  -0.819  -1.115  0.00  0.00    +0.078 A 
ATOM      3  C   UNL     1       0.024  -2.118  -0.648  0.00  0.00    +0.098 A 
ATOM      4  N   UNL     1       0.036  -2.070   0.699  0.00  0.00    -0.221 NA
ATOM      5  C   UNL     1       0.023  -0.818   1.093  0.00  0.00    +0.171 A 
ENDROOT
BRANCH   3   6
ATOM      6  C   UNL     1       0.032  -3.345  -1.478  0.00  0.00    +0.002 A 
ATOM      7  C   UNL     1      -0.676  -3.383  -2.679  0.00  0.00    +0.010 A 
ATOM      8  C   UNL     1      -0.661  -4.527  -3.450  0.00  0.00    +0.001 A 
ATOM      9  C   UNL     1       0.046  -5.639  -3.029  0.00  0.00    +0.000 A 
ATOM     10  C   UNL     1       0.746  -5.609  -1.836  0.00  0.00    +0.001 A 
ATOM     11  C   UNL     1       0.743  -4.469  -1.059  0.00  0.00    +0.010 A 
ENDBRANCH   3   6
BRANCH   2  12
ATOM     12  C   UNL     1      -0.029  -0.386  -2.525  0.00  0.00    +0.001 A 
ATOM     13  C   UNL     1      -0.907   0.621  -2.934  0.00  0.00    +0.010 A 
ATOM     14  C   UNL     1      -0.923   1.024  -4.253  0.00  0.00    +0.001 A 
ATOM     15  C   UNL     1      -0.079   0.425  -5.173  0.00  0.00    +0.000 A 
ATOM     16  C   UNL     1       0.789  -0.576  -4.776  0.00  0.00    +0.001 A 
ATOM     17  C   UNL     1       0.820  -0.985  -3.459  0.00  0.00    +0.010 A 
ENDBRANCH   2  12
BRANCH   1  18
ATOM     18  C   UNL     1      -0.018   1.461   0.010  0.00  0.00    +0.159 C 
BRANCH  18  22
ATOM     19  C   UNL     1       3.990   2.940  -0.020  0.00  0.00    +0.000 A 
ATOM     20  C   UNL     1       3.330   2.707  -1.212  0.00  0.00    +0.000 A 
ATOM     21  C   UNL     1       2.033   2.228  -1.203  0.00  0.00    +0.005 A 
ATOM     22  C   UNL     1       1.396   1.982  -0.001  0.00  0.00    -0.028 A 
ATOM     23  C   UNL     1       2.054   2.221   1.192  0.00  0.00    +0.005 A 
ATOM     24  C   UNL     1       3.352   2.695   1.182  0.00  0.00    +0.000 A 
ENDBRANCH  18  22
ENDBRANCH   1  18
BRANCH   5  25
ATOM     25  S   UNL     1       0.031  -0.278   2.770  0.00  0.00    -0.080 S 
BRANCH  25  26
ATOM     26  C   UNL     1       0.060  -1.877   3.617  0.00  0.00    +0.153 C 
BRANCH  26  27
ATOM     27  C   UNL     1       0.071  -1.657   5.107  0.00  0.00    +0.146 A 
ATOM     28  N   UNL     1       1.221  -1.551   5.750  0.00  0.00    -0.199 NA
ATOM     29  C   UNL     1       1.235  -1.351   7.066  0.00  0.00    +0.217 A 
ATOM     30  N   UNL     1       0.090  -1.269   7.735  0.00  0.00    -0.181 NA
ATOM     31  C   UNL     1      -1.064  -1.382   7.087  0.00  0.00    +0.217 A 
ATOM     32  N   UNL     1      -1.069  -1.576   5.770  0.00  0.00    -0.199 NA
ATOM     33  N   UNL     1      -2.256  -1.298   7.777  0.00  0.00    -0.327 N 
ATOM     34  N   UNL     1       2.436  -1.235   7.734  0.00  0.00    -0.327 N 
ATOM     35  H   UNL     1      -3.098  -1.380   7.304  0.00  0.00    +0.145 HD
ATOM     36  H   UNL     1      -2.251  -1.156   8.737  0.00  0.00    +0.145 HD
ATOM     37  H   UNL     1       2.445  -1.094   8.694  0.00  0.00    +0.145 HD
ATOM     38  H   UNL     1       3.272  -1.295   7.245  0.00  0.00    +0.145 HD
ENDBRANCH  26  27
ENDBRANCH  25  26
ENDBRANCH   5  25
TORSDOF 7
