REMARK  Name = ZINC63557162
REMARK  9 active torsions:
REMARK  status: ('A' for Active; 'I' for Inactive)
REMARK    1  A    between atoms: C_1  and  C_2
REMARK    2  A    between atoms: C_2  and  C_3
REMARK    3  A    between atoms: C_3  and  C_4
REMARK    4  A    between atoms: C_3  and  C_5
REMARK    5  A    between atoms: C_3  and  C_6
REMARK    6  A    between atoms: C_13  and  C_15
REMARK    7  A    between atoms: N_20  and  C_22
REMARK    8  A    between atoms: C_22  and  C_23
REMARK    9  A    between atoms: C_23  and  C_24
REMARK                            x       y       z     vdW  Elec       q    Type
REMARK                         _______ _______ _______ _____ _____    ______ ____
ROOT
ATOM      1  C   UNL     1      -3.656  -5.712  -4.852  0.00  0.00    +0.101 C 
ATOM      2  C   UNL     1      -2.732  -6.951  -4.851  0.00  0.00    +0.110 C 
ATOM      3  C   UNL     1      -3.555  -8.028  -5.523  0.00  0.00    +0.216 C 
ATOM      4  O   UNL     1      -3.110  -9.064  -5.970  0.00  0.00    -0.276 OA
ATOM      5  N   UNL     1      -4.850  -7.670  -5.551  0.00  0.00    -0.300 N 
ATOM      6  C   UNL     1      -5.056  -6.361  -4.919  0.00  0.00    +0.121 C 
ENDROOT
BRANCH   1  13
ATOM      7  C   UNL     1      -1.413  -2.063   0.004  0.00  0.00    +0.159 C 
ATOM      8  N   UNL     1      -2.781  -2.620  -0.084  0.00  0.00    -0.253 N 
ATOM      9  N   UNL     1      -3.039  -3.370  -1.210  0.00  0.00    -0.163 NA
ATOM     10  C   UNL     1      -2.160  -3.584  -2.139  0.00  0.00    +0.179 C 
ATOM     11  S   UNL     1      -0.707  -2.715  -1.565  0.00  0.00    -0.064 S 
ATOM     12  N   UNL     1      -2.312  -4.320  -3.310  0.00  0.00    -0.263 N 
ATOM     13  C   UNL     1      -3.491  -4.914  -3.584  0.00  0.00    +0.224 C 
ATOM     14  O   UNL     1      -4.418  -4.807  -2.810  0.00  0.00    -0.275 OA
ATOM     15  H   UNL     1      -3.449  -2.469   0.603  0.00  0.00    +0.169 HD
ATOM     16  H   UNL     1      -1.570  -4.406  -3.929  0.00  0.00    +0.157 HD
BRANCH   7  17
ATOM     17  C   UNL     1      -1.433  -0.534   0.013  0.00  0.00    -0.006 C 
ATOM     18  C   UNL     1      -2.149  -0.040   1.272  0.00  0.00    +0.013 C 
ATOM     19  C   UNL     1      -2.173  -0.027  -1.227  0.00  0.00    +0.013 C 
BRANCH  17  21
ATOM     20  C   UNL     1      -0.019   1.526   0.010  0.00  0.00    +0.004 C 
ATOM     21  C   UNL     1       0.002  -0.004   0.002  0.00  0.00    +0.006 C 
ENDBRANCH  17  21
ENDBRANCH   7  17
ENDBRANCH   1  13
BRANCH   5  22
ATOM     22  C   UNL     1      -5.919  -8.481  -6.140  0.00  0.00    +0.112 C 
BRANCH  22  23
ATOM     23  C   UNL     1      -6.499  -9.411  -5.073  0.00  0.00    +0.052 C 
BRANCH  23  24
ATOM     24  C   UNL     1      -7.599 -10.245  -5.678  0.00  0.00    -0.040 C 
ATOM     25  C   UNL     1      -7.488 -11.494  -6.183  0.00  0.00    +0.000 A 
ATOM     26  C   UNL     1      -6.353 -12.415  -6.316  0.00  0.00    +0.030 A 
ATOM     27  C   UNL     1      -6.555 -13.629  -6.879  0.00  0.00    +0.042 A 
ATOM     28  C   UNL     1      -7.819 -14.028  -7.337  0.00  0.00    +0.022 A 
ATOM     29  C   UNL     1      -8.909 -13.237  -7.249  0.00  0.00    +0.027 A 
ATOM     30  C   UNL     1      -8.812 -11.939  -6.674  0.00  0.00    +0.043 A 
ATOM     31  N   UNL     1      -9.707 -11.001  -6.479  0.00  0.00    -0.380 N 
ATOM     32  C   UNL     1      -9.052  -9.857  -5.836  0.00  0.00    +0.144 C 
ATOM     33 CL   UNL     1      -5.215 -14.721  -7.038  0.00  0.00    -0.084 Cl
ATOM     34  H   UNL     1     -10.645 -11.057  -6.717  0.00  0.00    +0.160 HD
ENDBRANCH  23  24
ENDBRANCH  22  23
ENDBRANCH   5  22
TORSDOF 6
