REMARK  Name = ZINC19144816
REMARK  7 active torsions:
REMARK  status: ('A' for Active; 'I' for Inactive)
REMARK    1  A    between atoms: C_1  and  C_2
REMARK    2  A    between atoms: C_4  and  C_30
REMARK    3  A    between atoms: N_5  and  C_7
REMARK    4  A    between atoms: C_10  and  N_13
REMARK    5  A    between atoms: C_16  and  N_59
REMARK    6  A    between atoms: C_19  and  N_59
REMARK    7  A    between atoms: C_25  and  C_27
REMARK                            x       y       z     vdW  Elec       q    Type
REMARK                         _______ _______ _______ _____ _____    ______ ____
ROOT
ATOM      1  N   UNL     1      -0.767   2.530  -1.235  0.00  0.00    -0.330 N 
ATOM      2  C   UNL     1      -0.030   2.023  -0.070  0.00  0.00    +0.103 C 
ATOM      3  C   UNL     1      -0.808   2.345   1.207  0.00  0.00    +0.003 C 
ATOM      4  C   UNL     1      -2.192   1.694   1.134  0.00  0.00    -0.068 C 
ATOM      5  C   UNL     1      -2.920   2.201  -0.114  0.00  0.00    +0.003 C 
ATOM      6  C   UNL     1      -2.081   1.884  -1.353  0.00  0.00    +0.103 C 
ENDROOT
BRANCH   1  10
ATOM      7  C   UNL     1       1.451   2.055  -4.730  0.00  0.00    +0.066 A 
ATOM      8  C   UNL     1       0.189   2.631  -4.782  0.00  0.00    +0.029 A 
ATOM      9  C   UNL     1      -0.546   2.788  -3.624  0.00  0.00    +0.025 A 
ATOM     10  C   UNL     1      -0.023   2.370  -2.407  0.00  0.00    +0.030 A 
ATOM     11  C   UNL     1       1.242   1.799  -2.355  0.00  0.00    +0.025 A 
ATOM     12  C   UNL     1       1.974   1.637  -3.514  0.00  0.00    +0.029 A 
BRANCH   7  17
ATOM     13  C   UNL     1       2.581   1.231  -9.491  0.00  0.00    +0.067 C 
ATOM     14  C   UNL     1       2.685   1.529  -8.017  0.00  0.00    +0.061 A 
ATOM     15  C   UNL     1       3.867   1.778  -7.312  0.00  0.00    +0.047 A 
ATOM     16  C   UNL     1       3.541   2.006  -6.018  0.00  0.00    +0.042 A 
ATOM     17  N   UNL     1       2.198   1.895  -5.907  0.00  0.00    -0.237 N 
ATOM     18  N   UNL     1       1.684   1.598  -7.176  0.00  0.00    -0.171 NA
ATOM     19  C   UNL     1       4.502   2.323  -4.902  0.00  0.00    +0.066 C 
ENDBRANCH   7  17
ENDBRANCH   1  10
BRANCH   4  20
ATOM     20  N   UNL     1      -2.964   2.056   2.338  0.00  0.00    +0.384 N 
ATOM     21  H   UNL     1      -3.434   2.955   2.180  0.00  0.00    -0.085 HD
ATOM     22  H   UNL     1      -2.325   2.139   3.137  0.00  0.00    -0.085 HD
BRANCH  20  23
ATOM     23  C   UNL     1      -3.975   1.022   2.628  0.00  0.00    -0.055 C 
ATOM     24  C   UNL     1      -3.351  -0.082   3.484  0.00  0.00    +0.012 C 
ATOM     25  C   UNL     1      -4.421  -0.992   4.014  0.00  0.00    -0.033 C 
ATOM     26  C   UNL     1      -5.679  -0.689   4.048  0.00  0.00    -0.030 C 
ATOM     27  C   UNL     1      -6.245   0.609   3.553  0.00  0.00    +0.038 C 
ATOM     28  C   UNL     1      -5.132   1.651   3.415  0.00  0.00    +0.065 C 
BRANCH  28  29
ATOM     29  C   UNL     1      -4.651   2.063   4.782  0.00  0.00    +0.212 C 
ATOM     30  O   UNL     1      -4.820   1.327   5.731  0.00  0.00    -0.276 OA
ATOM     31  N   UNL     1      -4.031   3.248   4.950  0.00  0.00    -0.329 N 
ATOM     32  H   UNL     1      -3.896   3.836   4.190  0.00  0.00    +0.145 HD
ATOM     33  H   UNL     1      -3.721   3.513   5.830  0.00  0.00    +0.145 HD
ENDBRANCH  28  29
ENDBRANCH  20  23
ENDBRANCH   4  20
TORSDOF 5
