REMARK  Name = ZINC13495828
REMARK  14 active torsions:
REMARK  status: ('A' for Active; 'I' for Inactive)
REMARK    1  A    between atoms: C_1  and  C_2
REMARK    2  A    between atoms: C_2  and  C_3
REMARK    3  A    between atoms: C_3  and  C_5
REMARK    4  A    between atoms: C_3  and  N_73
REMARK    5  A    between atoms: N_9  and  C_10
REMARK    6  A    between atoms: C_10  and  C_11
REMARK    7  A    between atoms: C_14  and  O_17
REMARK    8  A    between atoms: O_17  and  C_18
REMARK    9  A    between atoms: C_19  and  C_20
REMARK   10  A    between atoms: C_19  and  N_73
REMARK   11  A    between atoms: C_20  and  C_21
REMARK   12  A    between atoms: C_27  and  C_28
REMARK   13  A    between atoms: C_27  and  N_73
REMARK   14  A    between atoms: C_32  and  C_40
REMARK                            x       y       z     vdW  Elec       q    Type
REMARK                         _______ _______ _______ _____ _____    ______ ____
ROOT
ATOM      1  N   UNL     1       1.268   2.005   0.452  0.00  0.00    +0.389 N 
ATOM      2  H   UNL     1       1.680   1.960   1.391  0.00  0.00    -0.080 HD
ENDROOT
BRANCH   1   3
ATOM      3  C   UNL     1       0.068   1.142   0.412  0.00  0.00    +0.003 C 
BRANCH   3   4
ATOM      4  C   UNL     1      -0.410   0.968  -1.007  0.00  0.00    +0.138 A 
ATOM      5  N   UNL     1       0.333   0.719  -2.058  0.00  0.00    -0.115 NA
ATOM      6  N   UNL     1      -0.443   0.638  -3.083  0.00  0.00    -0.023 NA
ATOM      7  N   UNL     1      -1.661   0.837  -2.715  0.00  0.00    -0.044 NA
ATOM      8  N   UNL     1      -1.681   1.044  -1.441  0.00  0.00    -0.226 N 
BRANCH   8   9
ATOM      9  C   UNL     1      -2.866   1.313  -0.623  0.00  0.00    +0.182 C 
BRANCH   9  10
ATOM     10  C   UNL     1      -3.112   2.799  -0.567  0.00  0.00    -0.026 A 
ATOM     11  C   UNL     1      -2.538   3.556   0.438  0.00  0.00    +0.009 A 
ATOM     12  C   UNL     1      -2.757   4.919   0.488  0.00  0.00    +0.046 A 
ATOM     13  C   UNL     1      -3.563   5.526  -0.464  0.00  0.00    +0.120 A 
ATOM     14  C   UNL     1      -4.143   4.763  -1.467  0.00  0.00    +0.046 A 
ATOM     15  C   UNL     1      -3.916   3.401  -1.516  0.00  0.00    +0.009 A 
BRANCH  13  16
ATOM     16  O   UNL     1      -3.785   6.866  -0.414  0.00  0.00    -0.495 OA
ATOM     17  C   UNL     1      -3.156   7.588   0.647  0.00  0.00    +0.277 C 
ENDBRANCH  13  16
ENDBRANCH   9  10
ENDBRANCH   8   9
ENDBRANCH   3   4
BRANCH   3  19
ATOM     18  C   UNL     1       0.823  -0.058   2.469  0.00  0.00    +0.002 C 
ATOM     19  C   UNL     1       0.424  -0.224   1.002  0.00  0.00    -0.011 C 
ENDBRANCH   3  19
ENDBRANCH   1   3
BRANCH   1  20
ATOM     20  C   UNL     1       2.263   1.532  -0.532  0.00  0.00    -0.073 C 
BRANCH  20  21
ATOM     21  C   UNL     1       3.656   1.949  -0.057  0.00  0.00    +0.016 C 
BRANCH  21  22
ATOM     22  C   UNL     1       4.695   1.401  -1.002  0.00  0.00    -0.049 A 
ATOM     23  C   UNL     1       5.249   0.156  -0.773  0.00  0.00    +0.003 A 
ATOM     24  C   UNL     1       6.198  -0.349  -1.642  0.00  0.00    +0.000 A 
ATOM     25  C   UNL     1       6.600   0.397  -2.735  0.00  0.00    +0.000 A 
ATOM     26  C   UNL     1       6.050   1.645  -2.960  0.00  0.00    +0.000 A 
ATOM     27  C   UNL     1       5.097   2.147  -2.094  0.00  0.00    +0.003 A 
ENDBRANCH  21  22
ENDBRANCH  20  21
ENDBRANCH   1  20
BRANCH   1  28
ATOM     28  C   UNL     1       0.894   3.405   0.159  0.00  0.00    -0.037 C 
BRANCH  28  29
ATOM     29  C   UNL     1       2.028   4.306   0.574  0.00  0.00    +0.001 A 
ATOM     30  C   UNL     1       2.802   4.895  -0.370  0.00  0.00    +0.017 A 
ATOM     31  C   UNL     1       3.894   5.768   0.065  0.00  0.00    -0.001 A 
ATOM     32  C   UNL     1       4.723   6.407  -0.862  0.00  0.00    +0.013 A 
ATOM     33  C   UNL     1       5.737   7.212  -0.423  0.00  0.00    -0.050 A 
ATOM     34  C   UNL     1       5.951   7.400   0.936  0.00  0.00    +0.005 A 
ATOM     35  C   UNL     1       5.145   6.781   1.867  0.00  0.00    +0.026 A 
ATOM     36  C   UNL     1       4.107   5.957   1.444  0.00  0.00    +0.049 A 
ATOM     37  N   UNL     1       3.288   5.324   2.354  0.00  0.00    -0.322 N 
ATOM     38  H   UNL     1       3.436   5.456   3.303  0.00  0.00    +0.169 HD
ATOM     39  C   UNL     1       2.285   4.528   1.944  0.00  0.00    +0.251 A 
ATOM     40  O   UNL     1       1.579   3.985   2.776  0.00  0.00    -0.268 OA
ATOM     41  C   UNL     1       6.630   7.900  -1.422  0.00  0.00    +0.044 C 
ENDBRANCH  28  29
ENDBRANCH   1  28
TORSDOF 11
