REMARK  Name = ZINC32095388
REMARK  6 active torsions:
REMARK  status: ('A' for Active; 'I' for Inactive)
REMARK    1  A    between atoms: C_7  and  C_11
REMARK    2  A    between atoms: C_11  and  C_12
REMARK    3  A    between atoms: C_12  and  N_13
REMARK    4  A    between atoms: C_14  and  C_16
REMARK    5  A    between atoms: C_19  and  C_22
REMARK    6  A    between atoms: C_22  and  N_23
REMARK                            x       y       z     vdW  Elec       q    Type
REMARK                         _______ _______ _______ _____ _____    ______ ____
ROOT
ATOM      1  C   UNL     1      -0.018   1.503   0.010  0.00  0.00    +0.075 C 
ATOM      2  C   UNL     1      -0.735   1.996   1.269  0.00  0.00    +0.013 C 
ATOM      3  C   UNL     1      -0.755   3.526   1.278  0.00  0.00    +0.006 C 
ATOM      4  C   UNL     1      -1.495   4.033   0.038  0.00  0.00    +0.011 C 
ATOM      5  C   UNL     1      -0.779   3.539  -1.221  0.00  0.00    +0.006 C 
ATOM      6  C   UNL     1      -0.758   2.010  -1.229  0.00  0.00    +0.013 C 
ENDROOT
BRANCH   1   8
ATOM      7  N   UNL     1       0.604  -0.675   1.004  0.00  0.00    -0.315 N 
ATOM      8  C   UNL     1       0.002  -0.004   0.002  0.00  0.00    +0.216 C 
ATOM      9  O   UNL     1      -0.523  -0.613  -0.906  0.00  0.00    -0.276 OA
ATOM     10  H   UNL     1       1.081  -0.123   1.827  0.00  0.00    +0.149 HD
BRANCH   7  11
ATOM     11  C   UNL     1       0.624  -2.140   0.996  0.00  0.00    +0.109 C 
BRANCH  11  12
ATOM     12  C   UNL     1       1.364  -2.647   2.235  0.00  0.00    +0.056 C 
BRANCH  12  19
ATOM     13  C   UNL     1       4.189  -5.805   0.230  0.00  0.00    +0.001 A 
ATOM     14  C   UNL     1       3.816  -7.114   0.502  0.00  0.00    +0.002 A 
ATOM     15  C   UNL     1       2.718  -7.383   1.289  0.00  0.00    +0.026 A 
ATOM     16  C   UNL     1       1.973  -6.333   1.817  0.00  0.00    +0.047 A 
ATOM     17  C   UNL     1       2.354  -5.008   1.537  0.00  0.00    +0.003 A 
ATOM     18  C   UNL     1       3.471  -4.759   0.738  0.00  0.00    +0.010 A 
ATOM     19  C   UNL     1       1.385  -4.154   2.227  0.00  0.00    -0.021 A 
ATOM     20  C   UNL     1       0.521  -4.968   2.854  0.00  0.00    +0.087 A 
ATOM     21  N   UNL     1       0.853  -6.273   2.616  0.00  0.00    -0.360 N 
ATOM     22  H   UNL     1       0.372  -7.201   2.959  0.00  0.00    +0.165 HD
ENDBRANCH  12  19
ENDBRANCH  11  12
ENDBRANCH   7  11
ENDBRANCH   1   8
BRANCH   4  23
ATOM     23  C   UNL     1      -1.516   5.563   0.046  0.00  0.00    +0.152 C 
BRANCH  23  24
ATOM     24  N   UNL     1      -2.304   6.034   1.188  0.00  0.00    -0.210 N 
ATOM     25  C   UNL     1      -1.700   6.261   2.378  0.00  0.00    +0.278 A 
ATOM     26  O   UNL     1      -0.505   6.082   2.527  0.00  0.00    -0.265 OA
ATOM     27  C   UNL     1      -2.546   6.734   3.486  0.00  0.00    +0.068 A 
ATOM     28  C   UNL     1      -2.018   6.997   4.749  0.00  0.00    +0.015 A 
ATOM     29  C   UNL     1      -2.849   7.439   5.754  0.00  0.00    +0.001 A 
ATOM     30  C   UNL     1      -4.205   7.624   5.518  0.00  0.00    +0.002 A 
ATOM     31  C   UNL     1      -4.746   7.370   4.278  0.00  0.00    +0.030 A 
ATOM     32  C   UNL     1      -3.924   6.921   3.242  0.00  0.00    +0.100 A 
ATOM     33  N   UNL     1      -4.422   6.662   2.007  0.00  0.00    -0.131 NA
ATOM     34  N   UNL     1      -3.676   6.254   1.045  0.00  0.00    -0.062 NA
ENDBRANCH  23  24
ENDBRANCH   4  23
TORSDOF 6
