REMARK  Name = ZINC33371017
REMARK  11 active torsions:
REMARK  status: ('A' for Active; 'I' for Inactive)
REMARK    1  A    between atoms: C_1  and  C_2
REMARK    2  A    between atoms: C_3  and  C_33
REMARK    3  A    between atoms: C_8  and  C_23
REMARK    4  A    between atoms: C_10  and  C_11
REMARK    5  A    between atoms: C_11  and  C_12
REMARK    6  A    between atoms: C_27  and  O_29
REMARK    7  A    between atoms: O_29  and  C_30
REMARK    8  A    between atoms: C_30  and  C_31
REMARK    9  A    between atoms: C_33  and  O_35
REMARK   10  A    between atoms: O_35  and  C_36
REMARK   11  A    between atoms: C_36  and  C_37
REMARK                            x       y       z     vdW  Elec       q    Type
REMARK                         _______ _______ _______ _____ _____    ______ ____
ROOT
ATOM      1  C   UNL     1      -6.484  -5.634   0.711  0.00  0.00    +0.067 C 
ATOM      2  C   UNL     1      -5.021  -5.287   0.614  0.00  0.00    +0.062 A 
ATOM      3  C   UNL     1      -4.046  -6.275   0.630  0.00  0.00    +0.120 A 
ATOM      4  S   UNL     1      -2.568  -5.281   0.481  0.00  0.00    -0.045 S 
ATOM      5  C   UNL     1      -3.344  -3.729   0.425  0.00  0.00    +0.169 A 
ATOM      6  N   UNL     1      -4.627  -4.045   0.512  0.00  0.00    -0.229 NA
ATOM      7  N   UNL     1      -2.768  -2.478   0.313  0.00  0.00    -0.232 N 
ATOM      8  C   UNL     1      -1.330  -2.209   0.221  0.00  0.00    +0.152 C 
ATOM      9  C   UNL     1      -1.175  -0.709   0.113  0.00  0.00    +0.077 C 
ATOM     10  C   UNL     1      -2.479  -0.179   0.150  0.00  0.00    +0.250 C 
ATOM     11  O   UNL     1      -2.772   1.000   0.089  0.00  0.00    -0.282 OA
ATOM     12  C   UNL     1      -3.435  -1.312   0.275  0.00  0.00    +0.293 C 
ATOM     13  O   UNL     1      -4.642  -1.200   0.331  0.00  0.00    -0.266 OA
ENDROOT
BRANCH   8  14
ATOM     14  C   UNL     1      -0.630  -2.712   1.458  0.00  0.00    -0.019 A 
ATOM     15  C   UNL     1      -1.242  -2.596   2.693  0.00  0.00    +0.006 A 
ATOM     16  C   UNL     1      -0.605  -3.062   3.828  0.00  0.00    +0.004 A 
ATOM     17  C   UNL     1       0.649  -3.634   3.733  0.00  0.00    +0.045 A 
ATOM     18  C   UNL     1       1.267  -3.746   2.496  0.00  0.00    +0.121 A 
ATOM     19  C   UNL     1       0.624  -3.283   1.357  0.00  0.00    +0.051 A 
BRANCH  18  20
ATOM     20  O   UNL     1       2.501  -4.308   2.400  0.00  0.00    -0.488 OA
BRANCH  20  21
ATOM     21  C   UNL     1       3.103  -4.762   3.613  0.00  0.00    +0.256 C 
BRANCH  21  22
ATOM     22  C   UNL     1       4.457  -5.351   3.312  0.00  0.00    +0.006 C 
ATOM     23  C   UNL     1       5.486  -5.046   4.064  0.00  0.00    +0.007 C 
ENDBRANCH  21  22
ENDBRANCH  20  21
ENDBRANCH  18  20
ENDBRANCH   8  14
BRANCH   9  24
ATOM     24  C   UNL     1       0.002  -0.004   0.002  0.00  0.00    +0.195 C 
ATOM     25  O   UNL     1       1.180  -0.661  -0.053  0.00  0.00    -0.287 OA
BRANCH  24  26
ATOM     26  C   UNL     1      -0.024   1.471  -0.057  0.00  0.00    +0.025 A 
ATOM     27  C   UNL     1      -0.782   2.140  -1.027  0.00  0.00    +0.031 A 
ATOM     28  C   UNL     1      -0.780   3.520  -1.042  0.00  0.00    +0.111 A 
ATOM     29  N   UNL     1      -0.070   4.206  -0.167  0.00  0.00    -0.263 NA
ATOM     30  C   UNL     1       0.661   3.618   0.759  0.00  0.00    +0.111 A 
ATOM     31  C   UNL     1       0.714   2.241   0.851  0.00  0.00    +0.031 A 
ENDBRANCH  24  26
ENDBRANCH   9  24
BRANCH   3  32
ATOM     32  C   UNL     1      -4.188  -7.726   0.733  0.00  0.00    +0.348 C 
ATOM     33  O   UNL     1      -5.295  -8.224   0.822  0.00  0.00    -0.244 OA
BRANCH  32  34
ATOM     34  O   UNL     1      -3.093  -8.514   0.729  0.00  0.00    -0.457 OA
BRANCH  34  35
ATOM     35  C   UNL     1      -3.306  -9.923   0.833  0.00  0.00    +0.259 C 
BRANCH  35  36
ATOM     36  C   UNL     1      -1.978 -10.635   0.813  0.00  0.00    +0.006 C 
ATOM     37  C   UNL     1      -1.738 -11.597   1.669  0.00  0.00    +0.007 C 
ENDBRANCH  35  36
ENDBRANCH  34  35
ENDBRANCH  32  34
ENDBRANCH   3  32
TORSDOF 10
