REMARK  Name = ZINC39266804
REMARK  11 active torsions:
REMARK  status: ('A' for Active; 'I' for Inactive)
REMARK    1  A    between atoms: C_1  and  C_2
REMARK    2  A    between atoms: C_5  and  S_8
REMARK    3  A    between atoms: S_8  and  N_11
REMARK    4  A    between atoms: N_11  and  C_12
REMARK    5  A    between atoms: N_11  and  C_19
REMARK    6  A    between atoms: C_12  and  C_13
REMARK    7  A    between atoms: C_13  and  C_14
REMARK    8  A    between atoms: C_19  and  C_20
REMARK    9  A    between atoms: N_22  and  C_23
REMARK   10  A    between atoms: N_27  and  C_29
REMARK   11  A    between atoms: C_29  and  C_30
REMARK                            x       y       z     vdW  Elec       q    Type
REMARK                         _______ _______ _______ _____ _____    ______ ____
ROOT
ATOM      1  N   UNL     1       1.651  -4.999  -0.034  0.00  0.00    -0.167 NA
ENDROOT
BRANCH   1   2
ATOM      2  S   UNL     1       0.063  -4.530  -0.023  0.00  0.00    +0.061 S 
ATOM      3  O   UNL     1      -0.476  -4.950   1.223  0.00  0.00    -0.153 OA
ATOM      4  O   UNL     1      -0.490  -4.937  -1.267  0.00  0.00    -0.153 OA
BRANCH   2   9
ATOM      5  C   UNL     1      -0.018   1.503   0.010  0.00  0.00    +0.044 C 
ATOM      6  C   UNL     1       0.002  -0.004   0.002  0.00  0.00    -0.050 A 
ATOM      7  C   UNL     1       0.006  -0.689  -1.199  0.00  0.00    +0.005 A 
ATOM      8  C   UNL     1       0.025  -2.071  -1.206  0.00  0.00    +0.029 A 
ATOM      9  C   UNL     1       0.040  -2.768  -0.013  0.00  0.00    +0.106 A 
ATOM     10  C   UNL     1       0.037  -2.084   1.188  0.00  0.00    +0.029 A 
ATOM     11  C   UNL     1       0.023  -0.702   1.195  0.00  0.00    +0.005 A 
ENDBRANCH   2   9
ENDBRANCH   1   2
BRANCH   1  12
ATOM     12  C   UNL     1       2.360  -5.214   1.229  0.00  0.00    +0.115 C 
BRANCH  12  13
ATOM     13  C   UNL     1       2.304  -6.697   1.601  0.00  0.00    +0.059 C 
BRANCH  13  14
ATOM     14  C   UNL     1       3.034  -6.918   2.900  0.00  0.00    -0.009 A 
ATOM     15  C   UNL     1       2.552  -6.881   4.167  0.00  0.00    +0.011 A 
ATOM     16  C   UNL     1       3.416  -7.118   5.220  0.00  0.00    +0.008 A 
ATOM     17  C   UNL     1       4.719  -7.380   4.955  0.00  0.00    +0.045 A 
ATOM     18  S   UNL     1       4.756  -7.302   3.172  0.00  0.00    -0.102 S 
ENDBRANCH  13  14
ENDBRANCH  12  13
ENDBRANCH   1  12
BRANCH   1  19
ATOM     19  C   UNL     1       2.346  -5.200  -1.308  0.00  0.00    +0.205 C 
BRANCH  19  20
ATOM     20  C   UNL     1       3.089  -3.942  -1.678  0.00  0.00    +0.229 C 
ATOM     21  O   UNL     1       3.042  -2.974  -0.950  0.00  0.00    -0.274 OA
ATOM     22  N   UNL     1       3.805  -3.894  -2.819  0.00  0.00    -0.313 N 
ATOM     23  H   UNL     1       3.843  -4.668  -3.401  0.00  0.00    +0.149 HD
BRANCH  22  24
ATOM     24  C   UNL     1       4.527  -2.671  -3.179  0.00  0.00    +0.055 C 
ATOM     25  C   UNL     1       5.940  -2.677  -2.552  0.00  0.00    +0.002 C 
ATOM     26  C   UNL     1       6.831  -3.195  -3.709  0.00  0.00    -0.077 C 
ATOM     27  N   UNL     1       6.226  -2.565  -4.911  0.00  0.00    +0.384 N 
ATOM     28  C   UNL     1       4.761  -2.616  -4.700  0.00  0.00    -0.056 C 
ATOM     29  H   UNL     1       6.532  -1.607  -4.993  0.00  0.00    -0.081 HD
BRANCH  27  30
ATOM     30  C   UNL     1       6.591  -3.321  -6.117  0.00  0.00    -0.043 C 
BRANCH  30  31
ATOM     31  C   UNL     1       8.074  -3.200  -6.355  0.00  0.00    -0.064 A 
ATOM     32  C   UNL     1       8.568  -2.166  -7.128  0.00  0.00    +0.002 A 
ATOM     33  C   UNL     1       9.929  -2.055  -7.346  0.00  0.00    +0.000 A 
ATOM     34  C   UNL     1      10.795  -2.978  -6.792  0.00  0.00    +0.000 A 
ATOM     35  C   UNL     1      10.301  -4.012  -6.018  0.00  0.00    +0.000 A 
ATOM     36  C   UNL     1       8.941  -4.120  -5.796  0.00  0.00    +0.002 A 
ENDBRANCH  30  31
ENDBRANCH  27  30
ENDBRANCH  22  24
ENDBRANCH  19  20
ENDBRANCH   1  19
TORSDOF 10
