REMARK  Name = ZINC21889568
REMARK  9 active torsions:
REMARK  status: ('A' for Active; 'I' for Inactive)
REMARK    1  A    between atoms: C_1  and  C_2
REMARK    2  A    between atoms: C_2  and  O_3
REMARK    3  A    between atoms: O_3  and  C_4
REMARK    4  A    between atoms: C_4  and  C_6
REMARK    5  A    between atoms: C_6  and  N_7
REMARK    6  A    between atoms: C_23  and  C_25
REMARK    7  A    between atoms: C_28  and  C_31
REMARK    8  A    between atoms: C_31  and  C_32
REMARK    9  A    between atoms: C_31  and  C_33
REMARK                            x       y       z     vdW  Elec       q    Type
REMARK                         _______ _______ _______ _____ _____    ______ ____
ROOT
ATOM      1  N   UNL     1       3.742  -4.429  -4.366  0.00  0.00    -0.289 N 
ATOM      2  C   UNL     1       4.574  -3.379  -4.217  0.00  0.00    +0.304 C 
ATOM      3  O   UNL     1       5.727  -3.560  -3.877  0.00  0.00    -0.253 OA
ATOM      4  N   UNL     1       4.127  -2.128  -4.444  0.00  0.00    -0.269 N 
ATOM      5  C   UNL     1       5.038  -0.970  -4.394  0.00  0.00    +0.147 C 
ATOM      6  C   UNL     1       4.406   0.206  -3.703  0.00  0.00    -0.006 A 
ATOM      7  C   UNL     1       4.771   0.553  -2.418  0.00  0.00    +0.007 A 
ATOM      8  C   UNL     1       4.212   1.667  -1.818  0.00  0.00    +0.000 A 
ATOM      9  C   UNL     1       3.290   2.439  -2.502  0.00  0.00    +0.002 A 
ATOM     10  C   UNL     1       2.906   2.086  -3.782  0.00  0.00    +0.026 A 
ATOM     11  C   UNL     1       3.447   0.957  -4.374  0.00  0.00    +0.051 A 
ATOM     12  N   UNL     1       2.986   0.499  -5.618  0.00  0.00    -0.318 N 
ATOM     13  C   UNL     1       2.808   1.189  -6.773  0.00  0.00    +0.091 A 
ATOM     14  C   UNL     1       2.343   0.329  -7.706  0.00  0.00    +0.020 A 
ATOM     15  C   UNL     1       2.233  -0.940  -7.097  0.00  0.00    +0.025 A 
ATOM     16  C   UNL     1       2.633  -0.809  -5.822  0.00  0.00    +0.049 A 
ATOM     17  C   UNL     1       2.706  -1.867  -4.752  0.00  0.00    +0.155 C 
ATOM     18  H   UNL     1       2.724  -4.274  -4.753  0.00  0.00    +0.151 HD
ENDROOT
BRANCH  17  19
ATOM     19  C   UNL     1       2.001  -1.382  -3.512  0.00  0.00    -0.021 A 
ATOM     20  C   UNL     1       2.479  -1.732  -2.263  0.00  0.00    +0.006 A 
ATOM     21  C   UNL     1       1.832  -1.286  -1.125  0.00  0.00    +0.004 A 
ATOM     22  C   UNL     1       0.707  -0.491  -1.237  0.00  0.00    -0.045 A 
ATOM     23  C   UNL     1       0.226  -0.146  -2.486  0.00  0.00    +0.004 A 
ATOM     24  C   UNL     1       0.875  -0.587  -3.623  0.00  0.00    +0.006 A 
BRANCH  22  25
ATOM     25  C   UNL     1       0.002  -0.006   0.004  0.00  0.00    +0.013 C 
ATOM     26  C   UNL     1      -1.440  -0.517   0.003  0.00  0.00    +0.012 C 
ATOM     27  C   UNL     1       0.000   1.524   0.024  0.00  0.00    +0.012 C 
ENDBRANCH  22  25
ENDBRANCH  17  19
BRANCH   1  28
ATOM     28  C   UNL     1       4.195  -5.777  -4.013  0.00  0.00    +0.226 C 
BRANCH  28  29
ATOM     29  C   UNL     1       3.085  -6.763  -4.272  0.00  0.00    +0.324 C 
ATOM     30  O   UNL     1       2.025  -6.379  -4.706  0.00  0.00    -0.249 OA
BRANCH  29  31
ATOM     31  O   UNL     1       3.274  -8.068  -4.020  0.00  0.00    -0.464 OA
BRANCH  31  33
ATOM     32  C   UNL     1       2.561 -10.395  -3.946  0.00  0.00    +0.048 C 
ATOM     33  C   UNL     1       2.161  -8.960  -4.292  0.00  0.00    +0.229 C 
ENDBRANCH  31  33
ENDBRANCH  29  31
ENDBRANCH  28  29
ENDBRANCH   1  28
TORSDOF 6
