REMARK  Name = ZINC39695834
REMARK  6 active torsions:
REMARK  status: ('A' for Active; 'I' for Inactive)
REMARK    1  A    between atoms: C_1  and  C_2
REMARK    2  A    between atoms: C_9  and  C_11
REMARK    3  A    between atoms: C_11  and  C_13
REMARK    4  A    between atoms: C_11  and  N_14
REMARK    5  A    between atoms: C_15  and  C_17
REMARK    6  A    between atoms: C_28  and  C_30
REMARK                            x       y       z     vdW  Elec       q    Type
REMARK                         _______ _______ _______ _____ _____    ______ ____
ROOT
ATOM      1  C   UNL     1       2.554  -8.616   0.300  0.00  0.00    +0.100 C 
ATOM      2  C   UNL     1       1.229  -9.345  -0.014  0.00  0.00    +0.121 C 
ATOM      3  N   UNL     1       1.598 -10.779  -0.082  0.00  0.00    -0.300 N 
ATOM      4  C   UNL     1       2.583 -10.958   1.012  0.00  0.00    +0.115 C 
ATOM      5  C   UNL     1       3.440  -9.677   0.974  0.00  0.00    -0.004 C 
ATOM      6  C   UNL     1       3.800  -9.242   2.391  0.00  0.00    -0.010 C 
ATOM      7  C   UNL     1       4.728 -10.284   3.020  0.00  0.00    -0.082 C 
ATOM      8  N   UNL     1       5.941 -10.418   2.204  0.00  0.00    +0.379 N 
ATOM      9  C   UNL     1       5.595 -10.927   0.872  0.00  0.00    -0.082 C 
ATOM     10  C   UNL     1       4.703  -9.911   0.152  0.00  0.00    -0.010 C 
ATOM     11  C   UNL     1       1.142 -11.710  -0.943  0.00  0.00    +0.219 C 
ATOM     12  O   UNL     1       0.392 -11.390  -1.841  0.00  0.00    -0.275 OA
ATOM     13  H   UNL     1       6.385  -9.517   2.114  0.00  0.00    -0.086 HD
ATOM     14  H   UNL     1       6.577 -11.060   2.653  0.00  0.00    -0.086 HD
ENDROOT
BRANCH  11  15
ATOM     15  C   UNL     1       1.564 -13.149  -0.791  0.00  0.00    +0.079 C 
ATOM     16  C   UNL     1       1.472 -13.859  -2.147  0.00  0.00    +0.017 C 
ATOM     17  C   UNL     1       2.072 -15.259  -2.002  0.00  0.00    +0.027 C 
ATOM     18  C   UNL     1       1.491 -15.949  -0.802  0.00  0.00    -0.031 C 
ATOM     19  C   UNL     1       0.868 -15.339   0.154  0.00  0.00    -0.030 C 
ATOM     20  C   UNL     1       0.634 -13.856   0.196  0.00  0.00    +0.039 C 
ENDBRANCH  11  15
BRANCH   1  22
ATOM     21  N   UNL     1       3.125  -6.391   1.218  0.00  0.00    -0.305 N 
ATOM     22  C   UNL     1       2.309  -7.463   1.239  0.00  0.00    +0.219 C 
ATOM     23  O   UNL     1       1.377  -7.501   2.014  0.00  0.00    -0.275 OA
ATOM     24  H   UNL     1       3.870  -6.361   0.598  0.00  0.00    +0.149 HD
BRANCH  21  25
ATOM     25  C   UNL     1       2.886  -5.270   2.131  0.00  0.00    +0.136 C 
ATOM     26  C   UNL     1       1.860  -4.318   1.513  0.00  0.00    +0.036 C 
BRANCH  25  35
ATOM     27  C   UNL     1       8.700  -1.246   4.453  0.00  0.00    +0.044 C 
ATOM     28  C   UNL     1       7.808  -2.130   3.619  0.00  0.00    -0.048 A 
ATOM     29  C   UNL     1       8.257  -2.603   2.395  0.00  0.00    +0.005 A 
ATOM     30  C   UNL     1       7.464  -3.406   1.625  0.00  0.00    +0.030 A 
ATOM     31  C   UNL     1       6.186  -3.756   2.070  0.00  0.00    +0.089 A 
ATOM     32  C   UNL     1       5.731  -3.277   3.310  0.00  0.00    +0.067 A 
ATOM     33  C   UNL     1       6.553  -2.467   4.081  0.00  0.00    +0.031 A 
ATOM     34  N   UNL     1       4.458  -3.785   3.470  0.00  0.00    -0.340 N 
ATOM     35  C   UNL     1       4.178  -4.532   2.368  0.00  0.00    +0.128 A 
ATOM     36  N   UNL     1       5.188  -4.515   1.549  0.00  0.00    -0.231 NA
ATOM     37  H   UNL     1       3.871  -3.637   4.229  0.00  0.00    +0.167 HD
ENDBRANCH  25  35
ENDBRANCH  21  25
ENDBRANCH   1  22
TORSDOF 4
