REMARK  Name = ZINC40476475
REMARK  8 active torsions:
REMARK  status: ('A' for Active; 'I' for Inactive)
REMARK    1  A    between atoms: C_1  and  C_2
REMARK    2  A    between atoms: C_2  and  C_3
REMARK    3  A    between atoms: C_2  and  C_4
REMARK    4  A    between atoms: C_4  and  S_5
REMARK    5  A    between atoms: S_5  and  C_6
REMARK    6  A    between atoms: C_17  and  C_19
REMARK    7  A    between atoms: C_30  and  C_32
REMARK    8  A    between atoms: C_30  and  C_33
REMARK                            x       y       z     vdW  Elec       q    Type
REMARK                         _______ _______ _______ _____ _____    ______ ____
ROOT
ATOM      1  C   UNL     1       3.138  -0.628  -2.696  0.00  0.00    +0.171 A 
ATOM      2  N   UNL     1       4.457  -0.427  -2.969  0.00  0.00    -0.302 N 
ATOM      3  H   UNL     1       5.012   0.064  -2.342  0.00  0.00    +0.171 HD
ATOM      4  C   UNL     1       4.994  -0.910  -4.109  0.00  0.00    +0.258 A 
ATOM      5  O   UNL     1       6.176  -0.738  -4.361  0.00  0.00    -0.267 OA
ATOM      6  C   UNL     1       4.170  -1.611  -4.998  0.00  0.00    +0.069 A 
ATOM      7  C   UNL     1       2.836  -1.783  -4.675  0.00  0.00    +0.135 A 
ATOM      8  N   UNL     1       2.359  -1.292  -3.526  0.00  0.00    -0.208 NA
ATOM      9  N   UNL     1       2.005  -2.464  -5.544  0.00  0.00    -0.302 N 
ATOM     10  C   UNL     1       2.354  -2.629  -6.856  0.00  0.00    +0.017 C 
ATOM     11  C   UNL     1       3.636  -2.498  -7.255  0.00  0.00    +0.024 C 
ATOM     12  C   UNL     1       4.731  -2.167  -6.273  0.00  0.00    +0.092 C 
ATOM     13  C   UNL     1       3.997  -2.672  -8.603  0.00  0.00    +0.162 C 
ATOM     14  O   UNL     1       5.157  -2.528  -8.933  0.00  0.00    -0.292 OA
ATOM     15  C   UNL     1       2.974  -3.035  -9.645  0.00  0.00    +0.086 C 
ATOM     16  C   UNL     1       1.837  -3.814  -8.977  0.00  0.00    -0.023 C 
ATOM     17  C   UNL     1       1.263  -2.957  -7.847  0.00  0.00    +0.058 C 
ATOM     18  C   UNL     1       0.743  -4.112 -10.005  0.00  0.00    +0.011 C 
ATOM     19  C   UNL     1       2.377  -5.126  -8.405  0.00  0.00    +0.011 C 
ATOM     20  H   UNL     1       1.167  -2.829  -5.220  0.00  0.00    +0.153 HD
ENDROOT
BRANCH  12  21
ATOM     21  C   UNL     1       5.511  -3.418  -5.964  0.00  0.00    -0.034 A 
ATOM     22  C   UNL     1       4.880  -4.499  -5.376  0.00  0.00    +0.006 A 
ATOM     23  C   UNL     1       5.595  -5.647  -5.093  0.00  0.00    +0.022 A 
ATOM     24  C   UNL     1       6.942  -5.716  -5.397  0.00  0.00    +0.059 A 
ATOM     25  C   UNL     1       7.574  -4.634  -5.986  0.00  0.00    +0.060 A 
ATOM     26  C   UNL     1       6.856  -3.487  -6.274  0.00  0.00    +0.026 A 
ATOM     27 CL   UNL     1       9.266  -4.719  -6.368  0.00  0.00    -0.082 Cl
ATOM     28 CL   UNL     1       7.841  -7.158  -5.040  0.00  0.00    -0.082 Cl
ENDBRANCH  12  21
BRANCH   1  29
ATOM     29  S   UNL     1       2.460   0.006  -1.198  0.00  0.00    -0.088 S 
BRANCH  29  30
ATOM     30  C   UNL     1       0.718  -0.497  -1.257  0.00  0.00    +0.080 C 
BRANCH  30  32
ATOM     31  C   UNL     1      -0.019   1.526   0.010  0.00  0.00    +0.008 C 
ATOM     32  C   UNL     1       0.002  -0.004   0.002  0.00  0.00    -0.007 C 
ATOM     33  C   UNL     1      -1.433  -0.534   0.013  0.00  0.00    +0.008 C 
ENDBRANCH  30  32
ENDBRANCH  29  30
ENDBRANCH   1  29
TORSDOF 4
