REMARK  Name = ZINC64613395
REMARK  5 active torsions:
REMARK  status: ('A' for Active; 'I' for Inactive)
REMARK    1  A    between atoms: C_1  and  C_2
REMARK    2  A    between atoms: C_5  and  C_9
REMARK    3  A    between atoms: C_6  and  C_8
REMARK    4  A    between atoms: C_11  and  C_15
REMARK    5  A    between atoms: C_18  and  C_21
REMARK                            x       y       z     vdW  Elec       q    Type
REMARK                         _______ _______ _______ _____ _____    ______ ____
ROOT
ATOM      1  C   UNL     1       0.213  -4.242  -0.222  0.00  0.00    +0.091 C 
ATOM      2  C   UNL     1       0.358  -5.083   0.820  0.00  0.00    +0.037 C 
ATOM      3  C   UNL     1       0.406  -6.456   0.174  0.00  0.00    +0.215 C 
ATOM      4  N   UNL     1       0.268  -6.158  -1.261  0.00  0.00    -0.174 NA
ATOM      5  N   UNL     1       0.163  -4.936  -1.389  0.00  0.00    -0.154 NA
ENDROOT
BRANCH   1  10
ATOM      6  C   UNL     1      -0.169   1.488   0.212  0.00  0.00    +0.044 C 
ATOM      7  C   UNL     1      -0.069  -0.011   0.099  0.00  0.00    -0.050 A 
ATOM      8  C   UNL     1      -0.960  -0.815   0.787  0.00  0.00    +0.004 A 
ATOM      9  C   UNL     1      -0.873  -2.189   0.687  0.00  0.00    +0.010 A 
ATOM     10  C   UNL     1       0.114  -2.765  -0.110  0.00  0.00    +0.005 A 
ATOM     11  C   UNL     1       1.008  -1.951  -0.801  0.00  0.00    -0.041 A 
ATOM     12  C   UNL     1       0.909  -0.578  -0.698  0.00  0.00    +0.007 A 
ATOM     13  C   UNL     1       2.079  -2.567  -1.665  0.00  0.00    +0.044 C 
ENDBRANCH   1  10
BRANCH   3  14
ATOM     14  C   UNL     1      -0.756  -7.324   0.663  0.00  0.00    +0.322 C 
ATOM     15  N   UNL     1      -0.681  -8.666   0.065  0.00  0.00    -0.287 N 
ATOM     16  C   UNL     1      -0.542  -9.562   1.109  0.00  0.00    +0.168 C 
ATOM     17  N   UNL     1      -0.523  -8.952   2.249  0.00  0.00    -0.067 NA
ATOM     18  O   UNL     1      -0.651  -7.551   2.077  0.00  0.00    -0.367 OA
ATOM     19  H   UNL     1      -0.721  -8.882  -0.880  0.00  0.00    +0.151 HD
BRANCH  16  20
ATOM     20  C   UNL     1      -0.431 -11.029   0.944  0.00  0.00    +0.018 A 
ATOM     21  C   UNL     1      -0.457 -11.593  -0.331  0.00  0.00    +0.013 A 
ATOM     22  C   UNL     1      -0.353 -12.961  -0.480  0.00  0.00    +0.021 A 
ATOM     23  C   UNL     1      -0.223 -13.773   0.634  0.00  0.00    +0.041 A 
ATOM     24  C   UNL     1      -0.197 -13.218   1.903  0.00  0.00    +0.021 A 
ATOM     25  C   UNL     1      -0.294 -11.851   2.062  0.00  0.00    +0.013 A 
ATOM     26 CL   UNL     1      -0.092 -15.493   0.440  0.00  0.00    -0.084 Cl
ENDBRANCH  16  20
ENDBRANCH   3  14
TORSDOF 3
