REMARK  Name = ZINC56047410
REMARK  6 active torsions:
REMARK  status: ('A' for Active; 'I' for Inactive)
REMARK    1  A    between atoms: C_1  and  C_2
REMARK    2  A    between atoms: C_6  and  C_8
REMARK    3  A    between atoms: C_11  and  C_16
REMARK    4  A    between atoms: C_16  and  O_18
REMARK    5  A    between atoms: O_18  and  C_19
REMARK    6  A    between atoms: C_20  and  C_22
REMARK                            x       y       z     vdW  Elec       q    Type
REMARK                         _______ _______ _______ _____ _____    ______ ____
ROOT
ATOM      1  C   UNL     1       0.749  -2.482   2.023  0.00  0.00    +0.138 C 
ATOM      2  C   UNL     1       2.085  -3.020   2.501  0.00  0.00    +0.054 C 
ATOM      3  C   UNL     1       2.163  -4.403   2.754  0.00  0.00    +0.148 C 
ATOM      4  N   UNL     1       1.112  -5.181   2.577  0.00  0.00    -0.186 NA
ATOM      5  C   UNL     1      -0.077  -4.757   2.161  0.00  0.00    +0.155 C 
ATOM      6  S   UNL     1      -1.337  -5.903   1.984  0.00  0.00    -0.017 S 
ATOM      7  N   UNL     1      -0.333  -3.471   1.870  0.00  0.00    -0.314 N 
ATOM      8  C   UNL     1       3.174  -2.192   2.680  0.00  0.00    +0.193 C 
ATOM      9  O   UNL     1       4.387  -2.720   2.954  0.00  0.00    -0.287 OA
ATOM     10  H   UNL     1      -1.213  -3.200   1.567  0.00  0.00    +0.149 HD
ENDROOT
BRANCH   1  16
ATOM     11  C   UNL     1       0.850   1.663  -0.779  0.00  0.00    +0.044 C 
ATOM     12  C   UNL     1       1.012   0.170  -0.651  0.00  0.00    -0.050 A 
ATOM     13  C   UNL     1       1.357  -0.585  -1.756  0.00  0.00    +0.003 A 
ATOM     14  C   UNL     1       1.506  -1.954  -1.638  0.00  0.00    +0.001 A 
ATOM     15  C   UNL     1       1.309  -2.568  -0.415  0.00  0.00    +0.006 A 
ATOM     16  C   UNL     1       0.964  -1.813   0.690  0.00  0.00    -0.022 A 
ATOM     17  C   UNL     1       0.820  -0.443   0.573  0.00  0.00    +0.009 A 
ENDBRANCH   1  16
BRANCH   8  18
ATOM     18  C   UNL     1       3.014  -0.733   2.573  0.00  0.00    +0.022 A 
ATOM     19  C   UNL     1       2.023  -0.078   3.313  0.00  0.00    +0.014 A 
ATOM     20  C   UNL     1       1.879   1.288   3.208  0.00  0.00    +0.039 A 
ATOM     21  C   UNL     1       2.713   2.014   2.370  0.00  0.00    +0.123 A 
ATOM     22  C   UNL     1       3.698   1.371   1.634  0.00  0.00    +0.039 A 
ATOM     23  C   UNL     1       3.856   0.007   1.734  0.00  0.00    +0.014 A 
ATOM     24  F   UNL     1       2.567   3.354   2.271  0.00  0.00    -0.205 F 
ENDBRANCH   8  18
BRANCH   3  25
ATOM     25  C   UNL     1       3.443  -4.993   3.225  0.00  0.00    +0.356 C 
ATOM     26  O   UNL     1       3.699  -5.021   4.411  0.00  0.00    -0.243 OA
BRANCH  25  27
ATOM     27  O   UNL     1       4.319  -5.497   2.336  0.00  0.00    -0.464 OA
ATOM     28  C   UNL     1       5.530  -6.049   2.859  0.00  0.00    +0.280 C 
ENDBRANCH  25  27
ENDBRANCH   3  25
TORSDOF 4
