REMARK  Name = ZINC13499507
REMARK  18 active torsions:
REMARK  status: ('A' for Active; 'I' for Inactive)
REMARK    1  A    between atoms: C_1  and  C_2
REMARK    2  A    between atoms: C_2  and  C_3
REMARK    3  A    between atoms: C_3  and  C_4
REMARK    4  A    between atoms: C_4  and  C_6
REMARK    5  A    between atoms: C_4  and  N_71
REMARK    6  A    between atoms: N_10  and  C_11
REMARK    7  A    between atoms: C_11  and  C_12
REMARK    8  A    between atoms: C_11  and  C_13
REMARK    9  A    between atoms: C_11  and  C_14
REMARK   10  A    between atoms: C_14  and  C_15
REMARK   11  A    between atoms: C_16  and  C_17
REMARK   12  A    between atoms: C_16  and  N_71
REMARK   13  A    between atoms: C_17  and  C_18
REMARK   14  A    between atoms: C_18  and  O_19
REMARK   15  A    between atoms: C_20  and  C_21
REMARK   16  A    between atoms: C_20  and  N_71
REMARK   17  A    between atoms: C_25  and  C_34
REMARK   18  A    between atoms: C_26  and  C_33
REMARK                            x       y       z     vdW  Elec       q    Type
REMARK                         _______ _______ _______ _____ _____    ______ ____
ROOT
ATOM      1  N   UNL     1      -5.641   4.229  -1.319  0.00  0.00    +0.389 N 
ATOM      2  H   UNL     1      -5.014   4.706  -1.977  0.00  0.00    -0.080 HD
ENDROOT
BRANCH   1   3
ATOM      3  C   UNL     1      -6.952   4.912  -1.322  0.00  0.00    +0.003 C 
BRANCH   3   4
ATOM      4  C   UNL     1      -7.792   4.449  -0.161  0.00  0.00    +0.139 A 
ATOM      5  N   UNL     1      -7.394   4.284   1.077  0.00  0.00    -0.115 NA
ATOM      6  N   UNL     1      -8.402   3.881   1.770  0.00  0.00    -0.023 NA
ATOM      7  N   UNL     1      -9.432   3.776   1.004  0.00  0.00    -0.043 NA
ATOM      8  N   UNL     1      -9.096   4.117  -0.194  0.00  0.00    -0.225 N 
BRANCH   8   9
ATOM      9  C   UNL     1      -9.970   4.141  -1.369  0.00  0.00    +0.061 C 
ATOM     10  C   UNL     1      -9.924   5.528  -2.012  0.00  0.00    +0.036 C 
ATOM     11  C   UNL     1      -9.494   3.095  -2.380  0.00  0.00    +0.036 C 
BRANCH   9  12
ATOM     12  C   UNL     1     -11.405   3.822  -0.944  0.00  0.00    +0.026 C 
ATOM     13  C   UNL     1     -12.318   3.847  -2.172  0.00  0.00    +0.006 C 
ENDBRANCH   9  12
ENDBRANCH   8   9
ENDBRANCH   3   4
BRANCH   3  14
ATOM     14  C   UNL     1      -6.720   6.421  -1.214  0.00  0.00    -0.008 C 
BRANCH  14  16
ATOM     15  C   UNL     1      -5.640   8.397  -2.296  0.00  0.00    +0.004 C 
ATOM     16  C   UNL     1      -5.976   6.913  -2.457  0.00  0.00    -0.005 C 
ENDBRANCH  14  16
ENDBRANCH   3  14
ENDBRANCH   1   3
BRANCH   1  17
ATOM     17  C   UNL     1      -5.804   2.822  -1.743  0.00  0.00    -0.075 C 
BRANCH  17  18
ATOM     18  C   UNL     1      -6.071   2.792  -3.249  0.00  0.00    +0.009 C 
BRANCH  18  19
ATOM     19  C   UNL     1      -6.158   1.339  -3.722  0.00  0.00    +0.154 C 
BRANCH  19  20
ATOM     20  O   UNL     1      -6.407   1.310  -5.129  0.00  0.00    -0.395 OA
ATOM     21  H   UNL     1      -6.475   0.419  -5.498  0.00  0.00    +0.209 HD
ENDBRANCH  19  20
ENDBRANCH  18  19
ENDBRANCH  17  18
ENDBRANCH   1  17
BRANCH   1  22
ATOM     22  C   UNL     1      -5.047   4.283   0.034  0.00  0.00    -0.037 C 
BRANCH  22  23
ATOM     23  C   UNL     1      -3.561   4.064  -0.084  0.00  0.00    +0.001 A 
ATOM     24  C   UNL     1      -2.724   5.129  -0.155  0.00  0.00    +0.017 A 
ATOM     25  C   UNL     1      -1.286   4.883  -0.274  0.00  0.00    -0.001 A 
ATOM     26  C   UNL     1      -0.376   5.941  -0.368  0.00  0.00    +0.013 A 
ATOM     27  C   UNL     1       0.960   5.677  -0.477  0.00  0.00    -0.047 A 
ATOM     28  C   UNL     1       1.422   4.369  -0.497  0.00  0.00    -0.046 A 
ATOM     29  C   UNL     1       0.544   3.311  -0.405  0.00  0.00    +0.030 A 
ATOM     30  C   UNL     1      -0.821   3.554  -0.298  0.00  0.00    +0.049 A 
ATOM     31  N   UNL     1      -1.723   2.515  -0.211  0.00  0.00    -0.322 N 
ATOM     32  H   UNL     1      -1.401   1.600  -0.224  0.00  0.00    +0.169 HD
ATOM     33  C   UNL     1      -3.043   2.751  -0.107  0.00  0.00    +0.251 A 
ATOM     34  O   UNL     1      -3.811   1.808  -0.033  0.00  0.00    -0.268 OA
ATOM     35  C   UNL     1       2.900   4.102  -0.620  0.00  0.00    +0.044 C 
ATOM     36  C   UNL     1       1.940   6.817  -0.579  0.00  0.00    +0.044 C 
ENDBRANCH  22  23
ENDBRANCH   1  22
TORSDOF 12
