REMARK  Name = ZINC09830147
REMARK  7 active torsions:
REMARK  status: ('A' for Active; 'I' for Inactive)
REMARK    1  A    between atoms: C_1  and  C_2
REMARK    2  A    between atoms: C_2  and  C_3
REMARK    3  A    between atoms: C_3  and  C_5
REMARK    4  A    between atoms: C_3  and  N_6
REMARK    5  A    between atoms: C_7  and  C_9
REMARK    6  A    between atoms: C_10  and  O_21
REMARK    7  A    between atoms: C_14  and  C_20
REMARK                            x       y       z     vdW  Elec       q    Type
REMARK                         _______ _______ _______ _____ _____    ______ ____
ROOT
ATOM      1  C   UNL     1      -1.965   3.138   5.775  0.00  0.00    +0.162 A 
ATOM      2  C   UNL     1      -0.571   2.929   5.758  0.00  0.00    +0.232 A 
ATOM      3  N   UNL     1       0.013   2.503   4.650  0.00  0.00    -0.194 NA
ATOM      4  C   UNL     1      -0.685   2.263   3.539  0.00  0.00    +0.144 A 
ATOM      5  C   UNL     1      -0.012   1.811   2.390  0.00  0.00    +0.050 A 
ATOM      6  C   UNL     1      -0.719   1.564   1.250  0.00  0.00    -0.046 A 
ATOM      7  C   UNL     1      -2.105   1.768   1.239  0.00  0.00    +0.021 A 
ATOM      8  C   UNL     1      -2.736   2.199   2.355  0.00  0.00    +0.096 A 
ATOM      9  N   UNL     1      -2.038   2.449   3.498  0.00  0.00    -0.267 N 
ATOM     10  C   UNL     1      -2.698   2.881   4.595  0.00  0.00    +0.274 A 
ATOM     11  O   UNL     1      -3.905   3.048   4.566  0.00  0.00    -0.266 OA
ATOM     12  C   UNL     1      -0.013   1.080   0.010  0.00  0.00    +0.044 C 
ENDROOT
BRANCH   1  14
ATOM     13  N   UNL     1      -3.950   3.917   6.955  0.00  0.00    -0.308 N 
ATOM     14  C   UNL     1      -2.638   3.609   6.988  0.00  0.00    +0.255 C 
ATOM     15  O   UNL     1      -2.012   3.724   8.026  0.00  0.00    -0.270 OA
ATOM     16  H   UNL     1      -4.465   3.756   6.149  0.00  0.00    +0.149 HD
BRANCH  13  17
ATOM     17  C   UNL     1      -4.597   4.493   8.135  0.00  0.00    +0.070 C 
ATOM     18  C   UNL     1      -5.035   3.369   9.077  0.00  0.00    +0.028 C 
BRANCH  17  20
ATOM     19  C   UNL     1      -5.373   6.498   6.862  0.00  0.00    +0.005 C 
ATOM     20  C   UNL     1      -5.822   5.301   7.702  0.00  0.00    +0.018 C 
ENDBRANCH  17  20
ENDBRANCH  13  17
ENDBRANCH   1  14
BRANCH   2  21
ATOM     21  O   UNL     1       0.166   3.163   6.868  0.00  0.00    -0.492 OA
ATOM     22  H   UNL     1       1.110   2.990   6.757  0.00  0.00    +0.294 HD
ENDBRANCH   2  21
TORSDOF 4
