REMARK  Name = ZINC18178941
REMARK  12 active torsions:
REMARK  status: ('A' for Active; 'I' for Inactive)
REMARK    1  A    between atoms: C_1  and  C_2
REMARK    2  A    between atoms: C_2  and  C_29
REMARK    3  A    between atoms: C_4  and  C_8
REMARK    4  A    between atoms: C_4  and  C_21
REMARK    5  A    between atoms: C_8  and  C_9
REMARK    6  A    between atoms: C_9  and  N_10
REMARK    7  A    between atoms: C_11  and  C_12
REMARK    8  A    between atoms: C_15  and  N_18
REMARK    9  A    between atoms: N_18  and  C_19
REMARK   10  A    between atoms: N_18  and  C_20
REMARK   11  A    between atoms: C_26  and  O_27
REMARK   12  A    between atoms: O_27  and  C_28
REMARK                            x       y       z     vdW  Elec       q    Type
REMARK                         _______ _______ _______ _____ _____    ______ ____
ROOT
ATOM      1  C   UNL     1      -0.570   1.630   0.411  0.00  0.00    +0.041 C 
ATOM      2  C   UNL     1      -0.464   0.153   0.026  0.00  0.00    +0.065 C 
ATOM      3  C   UNL     1       0.434   0.009  -1.206  0.00  0.00    +0.046 C 
ATOM      4  C   UNL     1       0.584  -1.476  -1.549  0.00  0.00    +0.005 C 
ATOM      5  C   UNL     1       1.146  -2.216  -0.331  0.00  0.00    +0.040 C 
ATOM      6  C   UNL     1       0.221  -1.986   0.867  0.00  0.00    +0.161 C 
ATOM      7  O   UNL     1       0.100  -0.584   1.113  0.00  0.00    -0.374 OA
ATOM      8  C   UNL     1      -1.857  -0.393  -0.292  0.00  0.00    +0.041 C 
ENDROOT
BRANCH   4   9
ATOM      9  C   UNL     1       1.528  -1.632  -2.713  0.00  0.00    +0.001 A 
ATOM     10  C   UNL     1       2.080  -0.515  -3.310  0.00  0.00    +0.008 A 
ATOM     11  C   UNL     1       2.946  -0.657  -4.378  0.00  0.00    +0.001 A 
ATOM     12  C   UNL     1       3.263  -1.917  -4.852  0.00  0.00    +0.004 A 
ATOM     13  C   UNL     1       2.714  -3.037  -4.258  0.00  0.00    +0.046 A 
ATOM     14  C   UNL     1       1.849  -2.897  -3.182  0.00  0.00    +0.124 A 
BRANCH  14  15
ATOM     15  O   UNL     1       1.312  -3.998  -2.593  0.00  0.00    -0.495 OA
ATOM     16  C   UNL     1       1.686  -5.268  -3.129  0.00  0.00    +0.277 C 
ENDBRANCH  14  15
ENDBRANCH   4   9
BRANCH   4  17
ATOM     17  C   UNL     1      -0.783  -2.057  -1.915  0.00  0.00    +0.033 C 
BRANCH  17  18
ATOM     18  C   UNL     1      -1.380  -1.262  -3.078  0.00  0.00    +0.113 C 
BRANCH  18  19
ATOM     19  N   UNL     1      -2.744  -1.728  -3.338  0.00  0.00    -0.390 N 
ATOM     20  C   UNL     1      -3.747  -0.932  -3.151  0.00  0.00    +0.086 C 
ATOM     21  H   UNL     1      -2.896  -2.634  -3.651  0.00  0.00    +0.159 HD
BRANCH  20  22
ATOM     22  C   UNL     1      -5.120  -1.400  -3.413  0.00  0.00    -0.009 A 
ATOM     23  C   UNL     1      -5.341  -2.707  -3.858  0.00  0.00    +0.011 A 
ATOM     24  C   UNL     1      -6.624  -3.142  -4.101  0.00  0.00    +0.024 A 
ATOM     25  C   UNL     1      -7.701  -2.282  -3.904  0.00  0.00    +0.029 A 
ATOM     26  C   UNL     1      -7.484  -0.980  -3.461  0.00  0.00    +0.024 A 
ATOM     27  C   UNL     1      -6.204  -0.541  -3.210  0.00  0.00    +0.011 A 
BRANCH  25  28
ATOM     28  N   UNL     1      -8.997  -2.724  -4.152  0.00  0.00    -0.336 N 
ATOM     29  C   UNL     1      -9.227  -4.094  -4.618  0.00  0.00    +0.129 C 
ATOM     30  C   UNL     1     -10.132  -1.821  -3.945  0.00  0.00    +0.129 C 
ENDBRANCH  25  28
ENDBRANCH  20  22
ENDBRANCH  18  19
ENDBRANCH  17  18
ENDBRANCH   4  17
TORSDOF 7
