REMARK  Name = ZINC19295989
REMARK  5 active torsions:
REMARK  status: ('A' for Active; 'I' for Inactive)
REMARK    1  A    between atoms: C_4  and  C_7
REMARK    2  A    between atoms: C_7  and  N_8
REMARK    3  A    between atoms: N_13  and  C_14
REMARK    4  A    between atoms: C_14  and  C_16
REMARK    5  A    between atoms: C_16  and  N_17
REMARK                            x       y       z     vdW  Elec       q    Type
REMARK                         _______ _______ _______ _____ _____    ______ ____
ROOT
ATOM      1  C   UNL     1      -0.013   1.086   0.008  0.00  0.00    +0.215 C 
ENDROOT
BRANCH   1   2
ATOM      2  N   UNL     1      -0.698   1.558   1.213  0.00  0.00    -0.215 N 
ATOM      3  C   UNL     1      -0.418   2.721   1.840  0.00  0.00    +0.251 C 
ATOM      4  O   UNL     1       0.416   3.544   1.527  0.00  0.00    -0.272 OA
ATOM      5  C   UNL     1      -1.365   2.780   3.010  0.00  0.00    +0.138 C 
ATOM      6  C   UNL     1      -2.272   4.014   2.935  0.00  0.00    +0.045 C 
ATOM      7  C   UNL     1      -1.524   5.024   3.833  0.00  0.00    +0.038 C 
ATOM      8  C   UNL     1      -0.716   4.178   4.796  0.00  0.00    -0.042 A 
ATOM      9  C   UNL     1      -0.623   2.882   4.315  0.00  0.00    -0.012 A 
ATOM     10  C   UNL     1       0.080   1.932   5.037  0.00  0.00    +0.006 A 
ATOM     11  C   UNL     1       0.686   2.271   6.232  0.00  0.00    +0.000 A 
ATOM     12  C   UNL     1       0.591   3.564   6.711  0.00  0.00    +0.000 A 
ATOM     13  C   UNL     1      -0.109   4.514   5.993  0.00  0.00    +0.004 A 
ATOM     14  N   UNL     1      -2.139   1.541   2.920  0.00  0.00    -0.281 N 
ATOM     15  C   UNL     1      -1.678   0.888   1.834  0.00  0.00    +0.310 C 
ATOM     16  O   UNL     1      -2.103  -0.188   1.461  0.00  0.00    -0.252 OA
ATOM     17  H   UNL     1      -2.915   1.322   3.668  0.00  0.00    +0.152 HD
ENDBRANCH   1   2
BRANCH   1  18
ATOM     18  C   UNL     1      -0.742   1.585  -1.213  0.00  0.00    +0.256 C 
ATOM     19  O   UNL     1      -1.739   2.270  -1.088  0.00  0.00    -0.272 OA
BRANCH  18  25
ATOM     20  N   UNL     1      -0.647   1.516  -4.821  0.00  0.00    -0.324 N 
ATOM     21  C   UNL     1      -1.450   2.067  -5.767  0.00  0.00    +0.095 A 
ATOM     22  C   UNL     1      -2.504   2.791  -5.373  0.00  0.00    +0.066 A 
ATOM     23  S   UNL     1      -2.374   2.694  -3.596  0.00  0.00    -0.061 S 
ATOM     24  C   UNL     1      -0.941   1.719  -3.505  0.00  0.00    +0.166 A 
ATOM     25  N   UNL     1      -0.295   1.277  -2.424  0.00  0.00    -0.155 NA
BRANCH  20  26
ATOM     26  C   UNL     1       0.518   0.716  -5.207  0.00  0.00    +0.158 C 
BRANCH  26  30
ATOM     27  C   UNL     1      -0.628  -3.382  -5.579  0.00  0.00    +0.000 A 
ATOM     28  C   UNL     1      -0.704  -2.542  -6.673  0.00  0.00    +0.000 A 
ATOM     29  C   UNL     1      -0.334  -1.215  -6.553  0.00  0.00    +0.005 A 
ATOM     30  C   UNL     1       0.113  -0.730  -5.338  0.00  0.00    -0.028 A 
ATOM     31  C   UNL     1       0.194  -1.572  -4.245  0.00  0.00    +0.005 A 
ATOM     32  C   UNL     1      -0.182  -2.897  -4.364  0.00  0.00    +0.000 A 
ENDBRANCH  26  30
ENDBRANCH  20  26
ENDBRANCH  18  25
ENDBRANCH   1  18
TORSDOF 5
