REMARK  Name = ZINC48808408
REMARK  4 active torsions:
REMARK  status: ('A' for Active; 'I' for Inactive)
REMARK    1  A    between atoms: C_1  and  C_2
REMARK    2  A    between atoms: C_3  and  C_4
REMARK    3  A    between atoms: C_5  and  C_6
REMARK    4  A    between atoms: C_12  and  C_15
REMARK                            x       y       z     vdW  Elec       q    Type
REMARK                         _______ _______ _______ _____ _____    ______ ____
ROOT
ATOM      1  C   UNL     1       2.470   0.127   4.188  0.00  0.00    +0.240 C 
ATOM      2  O   UNL     1       2.538   1.341   4.148  0.00  0.00    -0.271 OA
ATOM      3  N   UNL     1       2.984  -0.542   5.240  0.00  0.00    -0.293 N 
ATOM      4  C   UNL     1       3.022  -2.013   5.256  0.00  0.00    +0.136 C 
ATOM      5  C   UNL     1       4.446  -2.456   5.614  0.00  0.00    +0.179 C 
ATOM      6  O   UNL     1       4.856  -1.796   6.815  0.00  0.00    -0.369 OA
ATOM      7  C   UNL     1       4.922  -0.372   6.707  0.00  0.00    +0.166 C 
ATOM      8  C   UNL     1       3.528   0.177   6.402  0.00  0.00    +0.144 C 
ENDROOT
BRANCH   7   9
ATOM      9  C   UNL     1       5.422   0.208   8.005  0.00  0.00    -0.017 A 
ATOM     10  C   UNL     1       5.077  -0.385   9.205  0.00  0.00    +0.007 A 
ATOM     11  C   UNL     1       5.535   0.146  10.396  0.00  0.00    +0.020 A 
ATOM     12  C   UNL     1       6.339   1.272  10.386  0.00  0.00    +0.041 A 
ATOM     13  C   UNL     1       6.684   1.865   9.185  0.00  0.00    +0.020 A 
ATOM     14  C   UNL     1       6.230   1.329   7.995  0.00  0.00    +0.007 A 
ATOM     15 CL   UNL     1       6.915   1.941  11.882  0.00  0.00    -0.084 Cl
ENDBRANCH   7   9
BRANCH   1  17
ATOM     16  C   UNL     1       1.228   0.067   2.091  0.00  0.00    +0.005 C 
ATOM     17  C   UNL     1       1.832  -0.607   3.096  0.00  0.00    +0.067 C 
BRANCH  16  20
ATOM     18  C   UNL     1      -0.021   1.504   0.012  0.00  0.00    +0.035 C 
ATOM     19  C   UNL     1      -0.006  -0.003   0.007  0.00  0.00    -0.030 C 
ATOM     20  C   UNL     1       0.590  -0.667   0.998  0.00  0.00    -0.004 C 
ENDBRANCH  16  20
ENDBRANCH   1  17
TORSDOF 3
