REMARK  Name = ZINC15404609
REMARK  4 active torsions:
REMARK  status: ('A' for Active; 'I' for Inactive)
REMARK    1  A    between atoms: C_1  and  C_2
REMARK    2  A    between atoms: C_2  and  C_4
REMARK    3  A    between atoms: C_2  and  N_51
REMARK    4  A    between atoms: C_15  and  C_17
REMARK                            x       y       z     vdW  Elec       q    Type
REMARK                         _______ _______ _______ _____ _____    ______ ____
ROOT
ATOM      1  C   UNL     1       2.303  -2.790  -0.450  0.00  0.00    +0.206 C 
ATOM      2  O   UNL     1       3.380  -2.251  -0.591  0.00  0.00    -0.277 OA
ATOM      3  N   UNL     1       1.205  -2.049  -0.202  0.00  0.00    -0.262 N 
ATOM      4  C   UNL     1      -0.113  -2.678  -0.028  0.00  0.00    +0.209 C 
ATOM      5  C   UNL     1      -1.148  -1.857  -0.754  0.00  0.00    +0.235 C 
ATOM      6  O   UNL     1      -2.137  -2.399  -1.199  0.00  0.00    -0.274 OA
ATOM      7  N   UNL     1      -0.988  -0.530  -0.914  0.00  0.00    -0.283 N 
ATOM      8  C   UNL     1       0.168   0.111  -0.453  0.00  0.00    +0.056 A 
ATOM      9  C   UNL     1       1.284  -0.651  -0.100  0.00  0.00    +0.058 A 
ATOM     10  C   UNL     1       2.436  -0.030   0.346  0.00  0.00    +0.026 A 
ATOM     11  C   UNL     1       2.479   1.349   0.445  0.00  0.00    +0.014 A 
ATOM     12  C   UNL     1       1.374   2.105   0.100  0.00  0.00    +0.057 A 
ATOM     13  C   UNL     1       0.219   1.491  -0.349  0.00  0.00    +0.037 A 
ATOM     14  H   UNL     1      -1.680  -0.013  -1.353  0.00  0.00    +0.155 HD
ENDROOT
BRANCH  12  15
ATOM     15  C   UNL     1       1.429   3.607   0.213  0.00  0.00    +0.417 C 
ATOM     16  F   UNL     1       1.005   3.994   1.489  0.00  0.00    -0.166 F 
ATOM     17  F   UNL     1       2.742   4.043   0.006  0.00  0.00    -0.166 F 
ATOM     18  F   UNL     1       0.590   4.178  -0.750  0.00  0.00    -0.166 F 
ENDBRANCH  12  15
BRANCH   1  20
ATOM     19  C   UNL     1       2.217  -4.902   0.848  0.00  0.00    -0.004 C 
ATOM     20  C   UNL     1       2.191  -4.290  -0.554  0.00  0.00    +0.017 C 
BRANCH  20  28
ATOM     21  C   UNL     1       3.381  -6.276  -1.259  0.00  0.00    -0.078 C 
ATOM     22  C   UNL     1       4.369  -6.815  -2.293  0.00  0.00    -0.019 C 
ATOM     23  C   UNL     1       5.800  -6.597  -1.792  0.00  0.00    -0.002 C 
ATOM     24  C   UNL     1       6.153  -5.114  -1.934  0.00  0.00    -0.000 C 
ATOM     25  C   UNL     1       5.667  -4.606  -3.292  0.00  0.00    -0.002 C 
ATOM     26  C   UNL     1       4.532  -3.603  -3.089  0.00  0.00    -0.019 C 
ATOM     27  C   UNL     1       3.247  -4.357  -2.733  0.00  0.00    -0.078 C 
ATOM     28  N   UNL     1       3.344  -4.800  -1.325  0.00  0.00    +0.387 N 
ATOM     29  H   UNL     1       4.209  -4.426  -0.917  0.00  0.00    -0.081 HD
ENDBRANCH  20  28
ENDBRANCH   1  20
TORSDOF 3
