REMARK  Name = ZINC67294377
REMARK  6 active torsions:
REMARK  status: ('A' for Active; 'I' for Inactive)
REMARK    1  A    between atoms: C_1  and  C_2
REMARK    2  A    between atoms: C_9  and  C_11
REMARK    3  A    between atoms: C_16  and  O_33
REMARK    4  A    between atoms: N_21  and  C_22
REMARK    5  A    between atoms: C_26  and  O_28
REMARK    6  A    between atoms: O_28  and  C_29
REMARK                            x       y       z     vdW  Elec       q    Type
REMARK                         _______ _______ _______ _____ _____    ______ ____
ROOT
ATOM      1  C   UNL     1      -0.178  -6.280  -0.943  0.00  0.00    +0.098 A 
ATOM      2  C   UNL     1      -0.163  -7.034  -2.108  0.00  0.00    +0.030 A 
ATOM      3  C   UNL     1      -0.232  -8.446  -1.992  0.00  0.00    +0.018 A 
ATOM      4  C   UNL     1      -0.019  -9.261  -3.115  0.00  0.00    +0.015 A 
ATOM      5  C   UNL     1      -0.047 -10.618  -2.984  0.00  0.00    +0.046 A 
ATOM      6  C   UNL     1      -0.292 -11.204  -1.743  0.00  0.00    +0.120 A 
ATOM      7  C   UNL     1      -0.525 -10.415  -0.627  0.00  0.00    +0.092 A 
ATOM      8  C   UNL     1      -0.508  -9.035  -0.743  0.00  0.00    +0.141 A 
ATOM      9  O   UNL     1      -0.777  -8.255   0.332  0.00  0.00    -0.438 OA
ATOM     10  C   UNL     1      -0.226  -7.011   0.338  0.00  0.00    +0.212 A 
ATOM     11  N   UNL     1       0.242  -6.476   1.445  0.00  0.00    -0.325 N 
ATOM     12  H   UNL     1       0.724  -5.635   1.411  0.00  0.00    +0.169 HD
ENDROOT
BRANCH   1  21
ATOM     13  C   UNL     1      -0.484   1.518   0.044  0.00  0.00    +0.045 C 
ATOM     14  C   UNL     1      -0.418   0.012   0.039  0.00  0.00    -0.032 A 
ATOM     15  C   UNL     1       0.158  -0.661  -1.030  0.00  0.00    +0.008 A 
ATOM     16  C   UNL     1       0.199  -2.043  -0.995  0.00  0.00    +0.044 A 
ATOM     17  C   UNL     1      -0.335  -2.708   0.103  0.00  0.00    +0.125 A 
ATOM     18  N   UNL     1      -0.876  -2.031   1.103  0.00  0.00    -0.240 NA
ATOM     19  C   UNL     1      -0.924  -0.712   1.100  0.00  0.00    +0.116 A 
ATOM     20  N   UNL     1      -0.300  -4.100   0.151  0.00  0.00    -0.266 N 
ATOM     21  C   UNL     1      -0.142  -4.810  -0.984  0.00  0.00    +0.254 C 
ATOM     22  O   UNL     1       0.031  -4.234  -2.042  0.00  0.00    -0.270 OA
ATOM     23  H   UNL     1      -0.390  -4.558   1.001  0.00  0.00    +0.157 HD
ENDBRANCH   1  21
BRANCH  11  24
ATOM     24  C   UNL     1       0.050  -7.105   2.644  0.00  0.00    +0.045 A 
ATOM     25  C   UNL     1      -1.203  -7.637   2.964  0.00  0.00    +0.026 A 
ATOM     26  C   UNL     1      -1.393  -8.271   4.174  0.00  0.00    +0.006 A 
ATOM     27  C   UNL     1      -0.348  -8.383   5.073  0.00  0.00    +0.046 A 
ATOM     28  C   UNL     1       0.900  -7.858   4.764  0.00  0.00    +0.132 A 
ATOM     29  C   UNL     1       1.105  -7.225   3.550  0.00  0.00    +0.071 A 
BRANCH  28  30
ATOM     30  O   UNL     1       1.923  -7.971   5.652  0.00  0.00    -0.406 OA
BRANCH  30  31
ATOM     31  C   UNL     1       1.643  -8.642   6.883  0.00  0.00    +0.575 C 
ATOM     32  F   UNL     1       1.230  -9.951   6.616  0.00  0.00    -0.133 F 
ATOM     33  F   UNL     1       2.797  -8.668   7.673  0.00  0.00    -0.133 F 
ATOM     34  F   UNL     1       0.627  -7.962   7.563  0.00  0.00    -0.133 F 
ENDBRANCH  30  31
ENDBRANCH  28  30
ENDBRANCH  11  24
BRANCH   6  35
ATOM     35  O   UNL     1      -0.304 -12.556  -1.627  0.00  0.00    -0.507 OA
ATOM     36  H   UNL     1       0.558 -12.941  -1.418  0.00  0.00    +0.292 HD
ENDBRANCH   6  35
TORSDOF 5
