REMARK  Name = ZINC44978057
REMARK  5 active torsions:
REMARK  status: ('A' for Active; 'I' for Inactive)
REMARK    1  A    between atoms: C_1  and  C_2
REMARK    2  A    between atoms: C_4  and  C_9
REMARK    3  A    between atoms: C_7  and  N_8
REMARK    4  A    between atoms: C_11  and  C_14
REMARK    5  A    between atoms: C_19  and  C_22
REMARK                            x       y       z     vdW  Elec       q    Type
REMARK                         _______ _______ _______ _____ _____    ______ ____
ROOT
ATOM      1  C   UNL     1       0.029  -2.816  -2.482  0.00  0.00    +0.258 A 
ATOM      2  N   UNL     1       0.041  -4.123  -2.625  0.00  0.00    -0.192 NA
ATOM      3  C   UNL     1       0.040  -4.440  -3.921  0.00  0.00    +0.175 A 
ATOM      4  N   UNL     1       0.027  -3.346  -4.629  0.00  0.00    -0.061 NA
ATOM      5  O   UNL     1       0.014  -2.264  -3.709  0.00  0.00    -0.333 OA
ENDROOT
BRANCH   1   9
ATOM      6  C   UNL     1      -0.018   1.503   0.010  0.00  0.00    +0.045 C 
ATOM      7  C   UNL     1       0.002  -0.004   0.002  0.00  0.00    -0.029 A 
ATOM      8  C   UNL     1       0.006  -0.685  -1.195  0.00  0.00    +0.018 A 
ATOM      9  C   UNL     1       0.025  -2.082  -1.202  0.00  0.00    +0.040 A 
ATOM     10  C   UNL     1       0.041  -2.784   0.007  0.00  0.00    +0.015 A 
ATOM     11  C   UNL     1       0.037  -2.097   1.200  0.00  0.00    +0.024 A 
ATOM     12  C   UNL     1       0.023  -0.705   1.204  0.00  0.00    +0.028 A 
BRANCH  12  13
ATOM     13  N   UNL     1       0.025  -0.013   2.412  0.00  0.00    -0.358 N 
ATOM     14  H   UNL     1       0.011   0.956   2.416  0.00  0.00    +0.142 HD
ATOM     15  H   UNL     1       0.039  -0.501   3.250  0.00  0.00    +0.142 HD
ENDBRANCH  12  13
ENDBRANCH   1   9
BRANCH   3  16
ATOM     16  C   UNL     1       0.052  -5.841  -4.478  0.00  0.00    +0.061 C 
ATOM     17  C   UNL     1       1.300  -6.035  -5.341  0.00  0.00    +0.011 C 
ATOM     18  C   UNL     1       1.313  -7.457  -5.906  0.00  0.00    +0.001 C 
ATOM     19  C   UNL     1       0.063  -7.677  -6.761  0.00  0.00    +0.003 C 
ATOM     20  C   UNL     1      -1.185  -7.482  -5.898  0.00  0.00    -0.013 C 
ATOM     21  C   UNL     1      -1.198  -6.061  -5.333  0.00  0.00    +0.014 C 
ATOM     22  C   UNL     1      -1.172  -8.489  -4.746  0.00  0.00    +0.007 C 
ENDBRANCH   3  16
TORSDOF 3
