REMARK  Name = ZINC17057348
REMARK  4 active torsions:
REMARK  status: ('A' for Active; 'I' for Inactive)
REMARK    1  A    between atoms: C_1  and  S_2
REMARK    2  A    between atoms: S_2  and  C_3
REMARK    3  A    between atoms: C_8  and  C_18
REMARK    4  A    between atoms: C_11  and  C_13
REMARK                            x       y       z     vdW  Elec       q    Type
REMARK                         _______ _______ _______ _____ _____    ______ ____
ROOT
ATOM      1  C   UNL     1      -1.702  -0.454   0.016  0.00  0.00    +0.210 A 
ATOM      2  N   UNL     1      -2.729   0.404   0.024  0.00  0.00    -0.184 NA
ATOM      3  C   UNL     1      -3.859  -0.261   0.036  0.00  0.00    +0.250 A 
ATOM      4  N   UNL     1      -3.553  -1.595   0.026  0.00  0.00    -0.221 N 
ATOM      5  N   UNL     1      -2.165  -1.687   0.014  0.00  0.00    -0.141 NA
ATOM      6  C   UNL     1      -4.576  -2.640   0.017  0.00  0.00    +0.147 C 
ATOM      7  C   UNL     1      -5.817  -2.096   0.733  0.00  0.00    +0.091 C 
ATOM      8  C   UNL     1      -6.099  -0.678   0.322  0.00  0.00    +0.090 C 
ATOM      9  N   UNL     1      -5.144   0.175   0.033  0.00  0.00    -0.212 NA
ENDROOT
BRANCH   6  10
ATOM     10  C   UNL     1      -4.924  -3.000  -1.405  0.00  0.00    -0.023 A 
ATOM     11  C   UNL     1      -5.423  -2.035  -2.259  0.00  0.00    +0.006 A 
ATOM     12  C   UNL     1      -5.742  -2.365  -3.563  0.00  0.00    +0.000 A 
ATOM     13  C   UNL     1      -5.561  -3.660  -4.013  0.00  0.00    +0.000 A 
ATOM     14  C   UNL     1      -5.061  -4.625  -3.158  0.00  0.00    +0.000 A 
ATOM     15  C   UNL     1      -4.738  -4.294  -1.856  0.00  0.00    +0.006 A 
ENDBRANCH   6  10
BRANCH   8  16
ATOM     16  C   UNL     1      -7.444  -0.246   0.244  0.00  0.00    +0.149 A 
ATOM     17  C   UNL     1      -7.874   1.014  -0.120  0.00  0.00    +0.051 A 
ATOM     18  C   UNL     1      -9.275   0.990  -0.059  0.00  0.00    +0.042 A 
ATOM     19  C   UNL     1      -9.638  -0.252   0.331  0.00  0.00    +0.196 A 
ATOM     20  O   UNL     1      -8.536  -0.994   0.507  0.00  0.00    -0.462 OA
ENDBRANCH   8  16
BRANCH   1  22
ATOM     21  C   UNL     1      -0.022   1.810   0.012  0.00  0.00    +0.093 C 
ATOM     22  S   UNL     1       0.002  -0.004   0.002  0.00  0.00    -0.088 S 
ENDBRANCH   1  22
TORSDOF 3
