REMARK  Name = ZINC45638775
REMARK  6 active torsions:
REMARK  status: ('A' for Active; 'I' for Inactive)
REMARK    1  A    between atoms: C_1  and  C_2
REMARK    2  A    between atoms: C_6  and  C_19
REMARK    3  A    between atoms: C_8  and  N_11
REMARK    4  A    between atoms: N_14  and  N_15
REMARK    5  A    between atoms: C_19  and  C_20
REMARK    6  A    between atoms: C_19  and  C_21
REMARK                            x       y       z     vdW  Elec       q    Type
REMARK                         _______ _______ _______ _____ _____    ______ ____
ROOT
ATOM      1  N   UNL     1       1.537  -2.391   2.465  0.00  0.00    -0.295 N 
ATOM      2  C   UNL     1       2.884  -2.336   2.462  0.00  0.00    +0.316 C 
ATOM      3  O   UNL     1       3.475  -1.970   1.465  0.00  0.00    -0.251 OA
ATOM      4  N   UNL     1       3.575  -2.688   3.564  0.00  0.00    -0.217 N 
ATOM      5  H   UNL     1       1.065  -2.684   3.261  0.00  0.00    +0.151 HD
ATOM      6  H   UNL     1       4.544  -2.648   3.562  0.00  0.00    +0.174 HD
ENDROOT
BRANCH   1  12
ATOM      7  C   UNL     1      -0.301   1.434  -0.071  0.00  0.00    +0.007 C 
ATOM      8  C   UNL     1      -0.150  -0.088  -0.028  0.00  0.00    -0.012 C 
ATOM      9  C   UNL     1      -1.535  -0.737   0.011  0.00  0.00    +0.004 C 
ATOM     10  C   UNL     1      -1.385  -2.259   0.054  0.00  0.00    +0.006 C 
ATOM     11  C   UNL     1      -0.600  -2.658   1.305  0.00  0.00    +0.012 C 
ATOM     12  C   UNL     1       0.785  -2.009   1.267  0.00  0.00    +0.078 C 
ATOM     13  C   UNL     1       0.634  -0.487   1.224  0.00  0.00    +0.026 C 
BRANCH  11  14
ATOM     14  C   UNL     1      -0.449  -4.180   1.349  0.00  0.00    -0.012 C 
ATOM     15  C   UNL     1      -1.824  -4.824   1.536  0.00  0.00    +0.007 C 
ATOM     16  C   UNL     1       0.169  -4.669   0.037  0.00  0.00    +0.007 C 
ENDBRANCH  11  14
ENDBRANCH   1  12
BRANCH   4  17
ATOM     17  N   UNL     1       2.894  -3.111   4.713  0.00  0.00    -0.217 N 
ATOM     18  C   UNL     1       3.585  -3.462   5.815  0.00  0.00    +0.313 C 
ATOM     19  O   UNL     1       2.994  -3.829   6.812  0.00  0.00    -0.252 OA
ATOM     20  N   UNL     1       4.932  -3.408   5.812  0.00  0.00    -0.312 N 
ATOM     21  H   UNL     1       1.925  -3.150   4.715  0.00  0.00    +0.174 HD
ATOM     22  H   UNL     1       5.403  -3.115   5.017  0.00  0.00    +0.147 HD
ATOM     23  H   UNL     1       5.429  -3.661   6.605  0.00  0.00    +0.147 HD
ENDBRANCH   4  17
TORSDOF 3
