REMARK  Name = ZINC06623695
REMARK  7 active torsions:
REMARK  status: ('A' for Active; 'I' for Inactive)
REMARK    1  A    between atoms: C_1  and  C_2
REMARK    2  A    between atoms: C_9  and  C_32
REMARK    3  A    between atoms: C_10  and  C_16
REMARK    4  A    between atoms: C_16  and  C_17
REMARK    5  A    between atoms: N_19  and  C_20
REMARK    6  A    between atoms: C_20  and  C_21
REMARK    7  A    between atoms: C_21  and  C_22
REMARK                            x       y       z     vdW  Elec       q    Type
REMARK                         _______ _______ _______ _____ _____    ______ ____
ROOT
ATOM      1  C   UNL     1       0.025   0.017   2.485  0.00  0.00    +0.138 C 
ENDROOT
BRANCH   1  11
ATOM      2  C   UNL     1      -0.068   0.922  -5.677  0.00  0.00    +0.047 C 
ATOM      3  C   UNL     1      -0.043  -0.465  -5.087  0.00  0.00    -0.005 A 
ATOM      4  C   UNL     1      -0.035  -1.624  -5.758  0.00  0.00    +0.199 A 
ATOM      5  O   UNL     1      -0.013  -2.659  -4.900  0.00  0.00    -0.463 OA
ATOM      6  C   UNL     1      -0.005  -2.227  -3.622  0.00  0.00    +0.139 A 
ATOM      7  C   UNL     1      -0.024  -0.818  -3.661  0.00  0.00    +0.024 A 
ATOM      8  C   UNL     1      -0.021  -0.081  -2.484  0.00  0.00    +0.023 A 
ATOM      9  C   UNL     1      -0.006  -0.750  -1.260  0.00  0.00    +0.022 A 
ATOM     10  C   UNL     1       0.002  -0.004   0.002  0.00  0.00    -0.029 A 
ATOM     11  C   UNL     1       0.023  -0.707   1.163  0.00  0.00    +0.049 A 
ATOM     12  C   UNL     1       0.041  -2.118   1.129  0.00  0.00    +0.341 A 
ATOM     13  O   UNL     1       0.059  -2.736   2.178  0.00  0.00    -0.245 OA
ATOM     14  O   UNL     1       0.038  -2.796  -0.029  0.00  0.00    -0.422 OA
ATOM     15  C   UNL     1       0.018  -2.160  -1.222  0.00  0.00    +0.143 A 
ATOM     16  C   UNL     1       0.016  -2.884  -2.401  0.00  0.00    +0.093 A 
ATOM     17  C   UNL     1      -0.018   1.503   0.010  0.00  0.00    +0.045 C 
ENDBRANCH   1  11
BRANCH   1  18
ATOM     18  C   UNL     1      -1.394   0.239   2.939  0.00  0.00    +0.218 C 
ATOM     19  O   UNL     1      -2.317  -0.152   2.256  0.00  0.00    -0.275 OA
ATOM     20  N   UNL     1      -1.638   0.872   4.103  0.00  0.00    -0.315 N 
ATOM     21  H   UNL     1      -0.900   1.184   4.649  0.00  0.00    +0.149 HD
BRANCH  20  22
ATOM     22  C   UNL     1      -3.018   1.087   4.545  0.00  0.00    +0.109 C 
BRANCH  22  23
ATOM     23  C   UNL     1      -3.016   1.822   5.887  0.00  0.00    +0.056 C 
BRANCH  23  24
ATOM     24  C   UNL     1      -4.435   2.044   6.341  0.00  0.00    -0.021 A 
ATOM     25  C   UNL     1      -5.172   3.150   6.148  0.00  0.00    +0.087 A 
ATOM     26  N   UNL     1      -6.414   2.985   6.697  0.00  0.00    -0.360 N 
ATOM     27  H   UNL     1      -7.122   3.647   6.683  0.00  0.00    +0.165 HD
ATOM     28  C   UNL     1      -6.507   1.741   7.280  0.00  0.00    +0.047 A 
ATOM     29  C   UNL     1      -5.271   1.097   7.082  0.00  0.00    +0.003 A 
ATOM     30  C   UNL     1      -5.073  -0.195   7.571  0.00  0.00    +0.010 A 
ATOM     31  C   UNL     1      -6.082  -0.829   8.242  0.00  0.00    +0.001 A 
ATOM     32  C   UNL     1      -7.302  -0.198   8.440  0.00  0.00    +0.002 A 
ATOM     33  C   UNL     1      -7.519   1.077   7.965  0.00  0.00    +0.026 A 
ENDBRANCH  23  24
ENDBRANCH  22  23
ENDBRANCH  20  22
ENDBRANCH   1  18
TORSDOF 5
