REMARK  Name = ZINC39970633
REMARK  10 active torsions:
REMARK  status: ('A' for Active; 'I' for Inactive)
REMARK    1  A    between atoms: C_1  and  C_2
REMARK    2  A    between atoms: C_7  and  C_37
REMARK    3  A    between atoms: N_9  and  S_10
REMARK    4  A    between atoms: S_10  and  C_13
REMARK    5  A    between atoms: C_16  and  N_19
REMARK    6  A    between atoms: N_19  and  C_20
REMARK    7  A    between atoms: C_20  and  N_22
REMARK    8  A    between atoms: N_25  and  C_28
REMARK    9  A    between atoms: C_28  and  C_29
REMARK   10  A    between atoms: C_30  and  C_31
REMARK                            x       y       z     vdW  Elec       q    Type
REMARK                         _______ _______ _______ _____ _____    ______ ____
ROOT
ATOM      1  N   UNL     1      -1.312   3.083   7.313  0.00  0.00    -0.297 N 
ATOM      2  H   UNL     1      -1.827   3.900   7.218  0.00  0.00    +0.154 HD
ENDROOT
BRANCH   1   6
ATOM      3  C   UNL     1       0.514   1.373   3.982  0.00  0.00    +0.106 A 
ATOM      4  C   UNL     1      -0.096   0.566   4.925  0.00  0.00    +0.030 A 
ATOM      5  C   UNL     1      -0.702   1.130   6.030  0.00  0.00    +0.025 A 
ATOM      6  C   UNL     1      -0.699   2.509   6.194  0.00  0.00    +0.033 A 
ATOM      7  C   UNL     1      -0.085   3.316   5.246  0.00  0.00    +0.025 A 
ATOM      8  C   UNL     1       0.524   2.746   4.145  0.00  0.00    +0.030 A 
BRANCH   3   9
ATOM      9  S   UNL     1       1.286   0.649   2.573  0.00  0.00    +0.061 S 
ATOM     10  O   UNL     1       1.308   1.649   1.564  0.00  0.00    -0.153 OA
ATOM     11  O   UNL     1       0.671  -0.617   2.378  0.00  0.00    -0.153 OA
BRANCH   9  18
ATOM     12  C   UNL     1       3.320   2.484   1.861  0.00  0.00    +0.026 C 
ATOM     13  C   UNL     1       3.911   1.339   2.687  0.00  0.00    +0.077 C 
ATOM     14  C   UNL     1       5.029   0.657   1.893  0.00  0.00    +0.020 C 
ATOM     15  C   UNL     1       5.521  -0.570   2.663  0.00  0.00    +0.003 C 
ATOM     16  C   UNL     1       4.370  -1.565   2.829  0.00  0.00    +0.020 C 
ATOM     17  C   UNL     1       3.244  -0.908   3.633  0.00  0.00    +0.077 C 
ATOM     18  N   UNL     1       2.864   0.351   2.978  0.00  0.00    -0.171 NA
ATOM     19  C   UNL     1       2.037  -1.847   3.687  0.00  0.00    +0.026 C 
ENDBRANCH   9  18
ENDBRANCH   3   9
ENDBRANCH   1   6
BRANCH   1  20
ATOM     20  C   UNL     1      -1.188   2.502   8.522  0.00  0.00    +0.137 C 
ATOM     21  S   UNL     1      -0.173   1.137   8.716  0.00  0.00    -0.018 S 
BRANCH  20  22
ATOM     22  N   UNL     1      -1.863   2.995   9.579  0.00  0.00    -0.316 N 
ATOM     23  C   UNL     1      -2.815   4.105   9.418  0.00  0.00    +0.088 C 
ATOM     24  C   UNL     1      -4.136   3.713  10.088  0.00  0.00    -0.059 C 
ATOM     25  N   UNL     1      -3.882   3.330  11.482  0.00  0.00    +0.384 N 
ATOM     26  C   UNL     1      -3.045   2.125  11.526  0.00  0.00    -0.059 C 
ATOM     27  C   UNL     1      -1.673   2.435  10.926  0.00  0.00    +0.088 C 
ATOM     28  H   UNL     1      -3.409   4.085  11.956  0.00  0.00    -0.081 HD
BRANCH  25  29
ATOM     29  C   UNL     1      -5.160   3.061  12.155  0.00  0.00    -0.051 C 
BRANCH  29  30
ATOM     30  C   UNL     1      -4.912   2.788  13.616  0.00  0.00    -0.045 C 
ATOM     31  C   UNL     1      -5.543   3.498  14.540  0.00  0.00    +0.002 C 
BRANCH  31  32
ATOM     32  C   UNL     1      -5.299   3.230  15.973  0.00  0.00    -0.025 A 
ATOM     33  C   UNL     1      -4.400   2.234  16.356  0.00  0.00    +0.008 A 
ATOM     34  C   UNL     1      -4.177   1.989  17.696  0.00  0.00    +0.001 A 
ATOM     35  C   UNL     1      -4.842   2.728  18.657  0.00  0.00    +0.000 A 
ATOM     36  C   UNL     1      -5.735   3.717  18.284  0.00  0.00    +0.001 A 
ATOM     37  C   UNL     1      -5.962   3.976  16.948  0.00  0.00    +0.008 A 
ENDBRANCH  31  32
ENDBRANCH  29  30
ENDBRANCH  25  29
ENDBRANCH  20  22
ENDBRANCH   1  20
TORSDOF 8
