REMARK  Name = ZINC10691683
REMARK  7 active torsions:
REMARK  status: ('A' for Active; 'I' for Inactive)
REMARK    1  A    between atoms: C_4  and  C_7
REMARK    2  A    between atoms: C_7  and  C_9
REMARK    3  A    between atoms: C_7  and  C_25
REMARK    4  A    between atoms: C_9  and  N_10
REMARK    5  A    between atoms: C_11  and  C_13
REMARK    6  A    between atoms: C_13  and  C_14
REMARK    7  A    between atoms: C_14  and  C_15
REMARK                            x       y       z     vdW  Elec       q    Type
REMARK                         _______ _______ _______ _____ _____    ______ ____
ROOT
ATOM      1  C   UNL     1      -5.215   4.756   4.090  0.00  0.00    +0.068 C 
ENDROOT
BRANCH   1   2
ATOM      2  C   UNL     1      -6.507   5.533   4.092  0.00  0.00    -0.013 A 
ATOM      3  C   UNL     1      -6.693   6.774   3.616  0.00  0.00    +0.088 A 
ATOM      4  N   UNL     1      -7.998   7.148   3.786  0.00  0.00    -0.360 N 
ATOM      5  H   UNL     1      -8.372   8.002   3.518  0.00  0.00    +0.165 HD
ATOM      6  C   UNL     1      -8.699   6.135   4.401  0.00  0.00    +0.047 A 
ATOM      7  C   UNL     1      -7.796   5.079   4.620  0.00  0.00    +0.003 A 
ATOM      8  C   UNL     1      -8.233   3.905   5.235  0.00  0.00    +0.010 A 
ATOM      9  C   UNL     1      -9.539   3.788   5.623  0.00  0.00    +0.001 A 
ATOM     10  C   UNL     1     -10.433   4.827   5.410  0.00  0.00    +0.002 A 
ATOM     11  C   UNL     1     -10.023   5.995   4.804  0.00  0.00    +0.026 A 
ENDBRANCH   1   2
BRANCH   1  15
ATOM     12  C   UNL     1      -2.261   6.901   6.308  0.00  0.00    +0.000 A 
ATOM     13  C   UNL     1      -2.635   5.630   6.704  0.00  0.00    +0.000 A 
ATOM     14  C   UNL     1      -3.591   4.936   5.986  0.00  0.00    +0.004 A 
ATOM     15  C   UNL     1      -4.173   5.513   4.873  0.00  0.00    -0.038 A 
ATOM     16  C   UNL     1      -3.795   6.781   4.474  0.00  0.00    +0.004 A 
ATOM     17  C   UNL     1      -2.842   7.477   5.194  0.00  0.00    +0.000 A 
ENDBRANCH   1  15
BRANCH   1  18
ATOM     18  C   UNL     1      -4.735   4.568   2.650  0.00  0.00    +0.117 C 
BRANCH  18  19
ATOM     19  N   UNL     1      -3.546   3.713   2.639  0.00  0.00    -0.314 N 
ATOM     20  C   UNL     1      -2.945   3.408   1.472  0.00  0.00    +0.213 C 
ATOM     21  O   UNL     1      -3.389   3.842   0.430  0.00  0.00    -0.276 OA
ATOM     22  H   UNL     1      -3.191   3.366   3.473  0.00  0.00    +0.149 HD
BRANCH  20  23
ATOM     23  C   UNL     1      -1.722   2.528   1.461  0.00  0.00    +0.100 C 
BRANCH  23  24
ATOM     24  C   UNL     1      -1.241   2.341   0.021  0.00  0.00    +0.046 C 
BRANCH  24  25
ATOM     25  C   UNL     1      -0.018   1.461   0.010  0.00  0.00    -0.022 A 
ATOM     26  C   UNL     1       1.260   1.871   0.000  0.00  0.00    +0.087 A 
ATOM     27  N   UNL     1       2.097   0.788  -0.014  0.00  0.00    -0.360 N 
ATOM     28  H   UNL     1       3.066   0.833  -0.023  0.00  0.00    +0.165 HD
ATOM     29  C   UNL     1       1.359  -0.374  -0.013  0.00  0.00    +0.047 A 
ATOM     30  C   UNL     1       0.002  -0.004   0.002  0.00  0.00    +0.003 A 
ATOM     31  C   UNL     1      -0.988  -0.988   0.007  0.00  0.00    +0.010 A 
ATOM     32  C   UNL     1      -0.633  -2.308  -0.003  0.00  0.00    +0.001 A 
ATOM     33  C   UNL     1       0.704  -2.678  -0.018  0.00  0.00    +0.002 A 
ATOM     34  C   UNL     1       1.698  -1.723  -0.023  0.00  0.00    +0.026 A 
ENDBRANCH  24  25
ENDBRANCH  23  24
ENDBRANCH  20  23
ENDBRANCH  18  19
ENDBRANCH   1  18
TORSDOF 7
