REMARK  Name = ZINC21289586
REMARK  6 active torsions:
REMARK  status: ('A' for Active; 'I' for Inactive)
REMARK    1  A    between atoms: C_1  and  C_2
REMARK    2  A    between atoms: C_2  and  C_3
REMARK    3  A    between atoms: C_9  and  C_11
REMARK    4  A    between atoms: C_14  and  C_23
REMARK    5  A    between atoms: C_16  and  C_22
REMARK    6  A    between atoms: C_17  and  C_21
REMARK                            x       y       z     vdW  Elec       q    Type
REMARK                         _______ _______ _______ _____ _____    ______ ____
ROOT
ATOM      1  C   UNL     1      -8.174  -0.957   1.212  0.00  0.00    +0.103 A 
ATOM      2  C   UNL     1      -8.912  -2.018   1.632  0.00  0.00    +0.041 A 
ATOM      3  C   UNL     1     -10.257  -1.782   1.257  0.00  0.00    +0.004 A 
ATOM      4  C   UNL     1     -11.443  -2.510   1.420  0.00  0.00    -0.041 A 
ATOM      5  C   UNL     1     -12.616  -2.013   0.933  0.00  0.00    +0.007 A 
ATOM      6  C   UNL     1     -12.648  -0.790   0.275  0.00  0.00    -0.045 A 
ATOM      7  C   UNL     1     -11.496  -0.056   0.102  0.00  0.00    -0.024 A 
ATOM      8  C   UNL     1     -10.286  -0.542   0.590  0.00  0.00    +0.050 A 
ATOM      9  N   UNL     1      -9.001  -0.053   0.574  0.00  0.00    -0.350 N 
ATOM     10  H   UNL     1      -8.584   0.875   0.158  0.00  0.00    +0.166 HD
ATOM     11  C   UNL     1     -11.545   1.270  -0.613  0.00  0.00    +0.046 C 
ATOM     12  C   UNL     1     -13.956  -0.261  -0.255  0.00  0.00    +0.044 C 
ATOM     13  C   UNL     1     -11.422  -3.838   2.131  0.00  0.00    +0.044 C 
ENDROOT
BRANCH   1  20
ATOM     14  C   UNL     1      -2.143   1.058   1.278  0.00  0.00    +0.103 A 
ATOM     15  N   UNL     1      -2.630  -0.059   1.782  0.00  0.00    -0.145 NA
ATOM     16  N   UNL     1      -3.854  -0.351   1.706  0.00  0.00    -0.126 NA
ATOM     17  C   UNL     1      -4.730   0.449   1.113  0.00  0.00    +0.188 A 
ATOM     18  S   UNL     1      -3.641   1.781   0.616  0.00  0.00    -0.035 S 
ATOM     19  N   UNL     1      -6.099   0.300   0.934  0.00  0.00    -0.258 N 
ATOM     20  C   UNL     1      -6.724  -0.799   1.402  0.00  0.00    +0.266 C 
ATOM     21  O   UNL     1      -6.089  -1.660   1.981  0.00  0.00    -0.268 OA
ATOM     22  H   UNL     1      -6.674   1.078   0.410  0.00  0.00    +0.157 HD
BRANCH  14  24
ATOM     23  C   UNL     1      -0.013   1.086   0.008  0.00  0.00    +0.011 C 
ATOM     24  C   UNL     1      -0.729   1.579   1.267  0.00  0.00    +0.061 C 
ENDBRANCH  14  24
ENDBRANCH   1  20
TORSDOF 2
