REMARK  Name = ZINC54055876
REMARK  6 active torsions:
REMARK  status: ('A' for Active; 'I' for Inactive)
REMARK    1  A    between atoms: C_1  and  C_2
REMARK    2  A    between atoms: C_2  and  C_3
REMARK    3  A    between atoms: C_2  and  O_4
REMARK    4  A    between atoms: O_4  and  C_5
REMARK    5  A    between atoms: C_8  and  C_11
REMARK    6  A    between atoms: C_11  and  N_13
REMARK                            x       y       z     vdW  Elec       q    Type
REMARK                         _______ _______ _______ _____ _____    ______ ____
ROOT
ATOM      1  C   UNL     1      -2.433  -1.371   5.669  0.00  0.00    +0.272 C 
ATOM      2  O   UNL     1      -1.946  -1.779   6.709  0.00  0.00    -0.268 OA
ENDROOT
BRANCH   1   3
ATOM      3  N   UNL     1      -3.746  -1.122   5.598  0.00  0.00    -0.143 NA
ATOM      4  C   UNL     1      -4.534  -1.417   6.625  0.00  0.00    +0.199 A 
ATOM      5  N   UNL     1      -4.113  -1.864   7.839  0.00  0.00    -0.326 N 
ATOM      6  H   UNL     1      -3.192  -2.020   8.099  0.00  0.00    +0.169 HD
ATOM      7  C   UNL     1      -5.231  -2.058   8.644  0.00  0.00    +0.065 A 
ATOM      8  C   UNL     1      -5.392  -2.494   9.952  0.00  0.00    +0.028 A 
ATOM      9  C   UNL     1      -6.658  -2.587  10.495  0.00  0.00    +0.002 A 
ATOM     10  C   UNL     1      -7.768  -2.247   9.741  0.00  0.00    +0.002 A 
ATOM     11  C   UNL     1      -7.619  -1.812   8.439  0.00  0.00    +0.028 A 
ATOM     12  C   UNL     1      -6.351  -1.715   7.883  0.00  0.00    +0.065 A 
ATOM     13  N   UNL     1      -5.891  -1.314   6.633  0.00  0.00    -0.326 N 
ATOM     14  H   UNL     1      -6.442  -1.015   5.894  0.00  0.00    +0.169 HD
ENDBRANCH   1   3
BRANCH   1  18
ATOM     15  C   UNL     1      -0.057  -0.725   2.260  0.00  0.00    +0.234 A 
ATOM     16  C   UNL     1       0.563  -1.190   3.417  0.00  0.00    +0.103 A 
ATOM     17  C   UNL     1      -0.198  -1.410   4.548  0.00  0.00    +0.040 A 
ATOM     18  C   UNL     1      -1.574  -1.152   4.485  0.00  0.00    +0.059 A 
ATOM     19  C   UNL     1      -2.121  -0.687   3.291  0.00  0.00    +0.127 A 
ATOM     20  N   UNL     1      -1.359  -0.486   2.236  0.00  0.00    -0.219 NA
ATOM     21 CL   UNL     1       2.273  -1.492   3.436  0.00  0.00    -0.078 Cl
BRANCH  15  22
ATOM     22  O   UNL     1       0.684  -0.507   1.146  0.00  0.00    -0.473 OA
BRANCH  22  24
ATOM     23  C   UNL     1      -0.013   1.507   0.005  0.00  0.00    +0.051 C 
ATOM     24  C   UNL     1      -0.007  -0.023  -0.008  0.00  0.00    +0.169 C 
ATOM     25  C   UNL     1       0.700  -0.520  -1.270  0.00  0.00    +0.051 C 
ENDBRANCH  22  24
ENDBRANCH  15  22
ENDBRANCH   1  18
TORSDOF 4
