REMARK  Name = ZINC37009798
REMARK  11 active torsions:
REMARK  status: ('A' for Active; 'I' for Inactive)
REMARK    1  A    between atoms: C_6  and  C_7
REMARK    2  A    between atoms: C_7  and  C_8
REMARK    3  A    between atoms: C_8  and  C_10
REMARK    4  A    between atoms: C_13  and  O_17
REMARK    5  A    between atoms: C_15  and  O_16
REMARK    6  A    between atoms: O_17  and  C_18
REMARK    7  A    between atoms: C_20  and  O_33
REMARK    8  A    between atoms: C_22  and  O_32
REMARK    9  A    between atoms: C_24  and  O_31
REMARK   10  A    between atoms: C_26  and  C_29
REMARK   11  A    between atoms: C_29  and  O_30
REMARK                            x       y       z     vdW  Elec       q    Type
REMARK                         _______ _______ _______ _____ _____    ______ ____
ROOT
ATOM      1  C   UNL     1      -2.977  -1.757  -1.671  0.00  0.00    +0.059 A 
ATOM      2  C   UNL     1      -3.757  -2.225  -0.604  0.00  0.00    +0.018 A 
ATOM      3  C   UNL     1      -4.912  -2.908  -0.850  0.00  0.00    +0.046 A 
ATOM      4  C   UNL     1      -5.325  -3.147  -2.159  0.00  0.00    +0.128 A 
ATOM      5  C   UNL     1      -4.566  -2.691  -3.227  0.00  0.00    +0.091 A 
ATOM      6  C   UNL     1      -3.395  -1.992  -2.994  0.00  0.00    +0.131 A 
ENDROOT
BRANCH   1   7
ATOM      7  C   UNL     1      -1.737  -1.023  -1.410  0.00  0.00    +0.171 C 
ATOM      8  O   UNL     1      -1.067  -0.615  -2.336  0.00  0.00    -0.292 OA
BRANCH   7   9
ATOM      9  C   UNL     1      -1.293  -0.774   0.009  0.00  0.00    +0.115 C 
BRANCH   9  15
ATOM     10  C   UNL     1      -0.017   1.378   0.010  0.00  0.00    +0.008 A 
ATOM     11  C   UNL     1       1.170   2.088   0.002  0.00  0.00    +0.050 A 
ATOM     12  C   UNL     1       2.382   1.415  -0.013  0.00  0.00    +0.162 A 
ATOM     13  C   UNL     1       2.401   0.025  -0.018  0.00  0.00    +0.162 A 
ATOM     14  C   UNL     1       1.207  -0.681  -0.011  0.00  0.00    +0.053 A 
ATOM     15  C   UNL     1       0.002  -0.004   0.002  0.00  0.00    -0.036 A 
ATOM     16  O   UNL     1       3.579  -0.656  -0.024  0.00  0.00    -0.485 OA
ATOM     17  C   UNL     1       4.746   0.081  -0.406  0.00  0.00    +0.270 C 
ATOM     18  C   UNL     1       4.733   1.422   0.340  0.00  0.00    +0.270 C 
ATOM     19  O   UNL     1       3.542   2.127  -0.024  0.00  0.00    -0.485 OA
ENDBRANCH   9  15
ENDBRANCH   7   9
ENDBRANCH   1   7
BRANCH   6  20
ATOM     20  O   UNL     1      -2.651  -1.539  -4.034  0.00  0.00    -0.506 OA
ATOM     21  H   UNL     1      -1.985  -2.167  -4.343  0.00  0.00    +0.292 HD
ENDBRANCH   6  20
BRANCH   4  22
ATOM     22  O   UNL     1      -6.475  -3.829  -2.390  0.00  0.00    -0.461 OA
BRANCH  22  23
ATOM     23  C   UNL     1      -7.208  -4.271  -1.246  0.00  0.00    +0.339 C 
ATOM     24  C   UNL     1      -8.526  -4.905  -1.698  0.00  0.00    +0.214 C 
ATOM     25  C   UNL     1      -8.222  -6.135  -2.559  0.00  0.00    +0.180 C 
ATOM     26  C   UNL     1      -7.355  -7.107  -1.753  0.00  0.00    +0.177 C 
ATOM     27  C   UNL     1      -6.083  -6.388  -1.298  0.00  0.00    +0.179 C 
ATOM     28  O   UNL     1      -6.437  -5.236  -0.529  0.00  0.00    -0.331 OA
BRANCH  26  29
ATOM     29  O   UNL     1      -7.006  -8.227  -2.570  0.00  0.00    -0.386 OA
ATOM     30  H   UNL     1      -7.766  -8.727  -2.897  0.00  0.00    +0.210 HD
ENDBRANCH  26  29
BRANCH  25  31
ATOM     31  O   UNL     1      -7.522  -5.733  -3.738  0.00  0.00    -0.386 OA
ATOM     32  H   UNL     1      -8.012  -5.111  -4.293  0.00  0.00    +0.210 HD
ENDBRANCH  25  31
BRANCH  24  33
ATOM     33  O   UNL     1      -9.274  -3.958  -2.463  0.00  0.00    -0.383 OA
ATOM     34  H   UNL     1      -9.498  -3.151  -1.980  0.00  0.00    +0.210 HD
ENDBRANCH  24  33
BRANCH  27  35
ATOM     35  C   UNL     1      -5.239  -7.334  -0.442  0.00  0.00    +0.190 C 
BRANCH  35  36
ATOM     36  O   UNL     1      -3.999  -6.703  -0.115  0.00  0.00    -0.392 OA
ATOM     37  H   UNL     1      -3.413  -7.247   0.428  0.00  0.00    +0.210 HD
ENDBRANCH  35  36
ENDBRANCH  27  35
ENDBRANCH  22  23
ENDBRANCH   4  22
TORSDOF 11
