REMARK  Name = ZINC09366054
REMARK  3 active torsions:
REMARK  status: ('A' for Active; 'I' for Inactive)
REMARK    1  A    between atoms: C_1  and  C_2
REMARK    2  A    between atoms: C_10  and  C_13
REMARK    3  A    between atoms: C_13  and  N_14
REMARK                            x       y       z     vdW  Elec       q    Type
REMARK                         _______ _______ _______ _____ _____    ______ ____
ROOT
ATOM      1  C   UNL     1      -2.522   1.624   0.023  0.00  0.00    +0.174 C 
ENDROOT
BRANCH   1  11
ATOM      2  C   UNL     1       2.480   1.719  -0.012  0.00  0.00    +0.046 C 
ATOM      3  C   UNL     1       1.152   2.432   0.004  0.00  0.00    -0.021 A 
ATOM      4  C   UNL     1       1.086   3.838   0.012  0.00  0.00    +0.005 A 
ATOM      5  C   UNL     1       2.250   4.624   0.004  0.00  0.00    +0.010 A 
ATOM      6  C   UNL     1       2.145   5.981   0.013  0.00  0.00    +0.001 A 
ATOM      7  C   UNL     1       0.897   6.602   0.027  0.00  0.00    +0.002 A 
ATOM      8  C   UNL     1      -0.250   5.871   0.034  0.00  0.00    +0.028 A 
ATOM      9  C   UNL     1      -0.183   4.467   0.027  0.00  0.00    +0.072 A 
ATOM     10  N   UNL     1      -1.294   3.723   0.033  0.00  0.00    -0.249 NA
ATOM     11  C   UNL     1      -1.238   2.413   0.021  0.00  0.00    +0.078 A 
ATOM     12  C   UNL     1      -0.021   1.732   0.012  0.00  0.00    +0.067 A 
ATOM     13 CL   UNL     1       0.002  -0.004   0.002  0.00  0.00    -0.081 Cl
ENDBRANCH   1  11
BRANCH   1  14
ATOM     14  N   UNL     1      -2.931   1.361   1.405  0.00  0.00    -0.218 N 
ATOM     15  C   UNL     1      -2.562   0.271   2.112  0.00  0.00    +0.247 C 
ATOM     16  O   UNL     1      -1.857  -0.642   1.740  0.00  0.00    -0.273 OA
ATOM     17  C   UNL     1      -3.212   0.434   3.462  0.00  0.00    +0.113 C 
ATOM     18  C   UNL     1      -4.159  -0.737   3.757  0.00  0.00    +0.035 C 
ATOM     19  C   UNL     1      -3.323  -1.675   4.666  0.00  0.00    +0.003 C 
ATOM     20  C   UNL     1      -2.522  -0.681   5.544  0.00  0.00    +0.003 C 
ATOM     21  C   UNL     1      -2.171   0.476   4.583  0.00  0.00    +0.035 C 
ATOM     22  N   UNL     1      -3.946   1.697   3.366  0.00  0.00    -0.285 N 
ATOM     23  C   UNL     1      -3.722   2.169   2.123  0.00  0.00    +0.310 C 
ATOM     24  O   UNL     1      -4.186   3.210   1.701  0.00  0.00    -0.252 OA
ATOM     25  H   UNL     1      -4.485   2.112   4.058  0.00  0.00    +0.151 HD
ENDBRANCH   1  14
TORSDOF 2
