REMARK  Name = ZINC20616570
REMARK  2 active torsions:
REMARK  status: ('A' for Active; 'I' for Inactive)
REMARK    1  A    between atoms: C_6  and  C_11
REMARK    2  A    between atoms: C_14  and  C_22
REMARK                            x       y       z     vdW  Elec       q    Type
REMARK                         _______ _______ _______ _____ _____    ______ ____
ROOT
ATOM      1  C   UNL     1      -2.439   1.332  -0.259  0.00  0.00    +0.104 C 
ATOM      2  C   UNL     1      -2.384   0.008   0.511  0.00  0.00    +0.063 C 
ATOM      3  C   UNL     1      -1.204  -0.835   0.013  0.00  0.00    +0.215 C 
ATOM      4  N   UNL     1       0.002  -0.004   0.002  0.00  0.00    -0.239 N 
ATOM      5  C   UNL     1      -0.016   1.354   0.009  0.00  0.00    +0.118 A 
ATOM      6  C   UNL     1       1.263   1.788  -0.000  0.00  0.00    +0.064 A 
ATOM      7  C   UNL     1       2.093   0.660  -0.017  0.00  0.00    +0.136 A 
ATOM      8  N   UNL     1       1.336  -0.411  -0.016  0.00  0.00    -0.177 NA
ATOM      9  N   UNL     1      -1.204   2.090   0.020  0.00  0.00    -0.322 N 
ATOM     10  H   UNL     1      -1.255   3.170   0.219  0.00  0.00    +0.148 HD
ENDROOT
BRANCH   1  16
ATOM     11  C   UNL     1      -3.979   0.356  -6.455  0.00  0.00    +0.001 A 
ATOM     12  C   UNL     1      -5.130   0.685  -5.740  0.00  0.00    +0.001 A 
ATOM     13  C   UNL     1      -5.076   0.942  -4.404  0.00  0.00    +0.008 A 
ATOM     14  C   UNL     1      -3.844   0.873  -3.732  0.00  0.00    -0.018 A 
ATOM     15  C   UNL     1      -3.748   1.130  -2.354  0.00  0.00    +0.014 A 
ATOM     16  C   UNL     1      -2.538   1.055  -1.737  0.00  0.00    -0.027 A 
ATOM     17  C   UNL     1      -1.387   0.731  -2.453  0.00  0.00    +0.006 A 
ATOM     18  C   UNL     1      -1.441   0.470  -3.787  0.00  0.00    +0.009 A 
ATOM     19  C   UNL     1      -2.674   0.538  -4.459  0.00  0.00    -0.018 A 
ATOM     20  C   UNL     1      -2.769   0.281  -5.837  0.00  0.00    +0.008 A 
ENDBRANCH   1  16
BRANCH   3  21
ATOM     21  C   UNL     1      -0.996  -2.028   0.949  0.00  0.00    +0.412 C 
ATOM     22  F   UNL     1      -0.738  -1.566   2.243  0.00  0.00    -0.168 F 
ATOM     23  F   UNL     1      -2.149  -2.820   0.958  0.00  0.00    -0.168 F 
ATOM     24  F   UNL     1       0.089  -2.789   0.500  0.00  0.00    -0.168 F 
ENDBRANCH   3  21
TORSDOF 2
