REMARK  Name = ZINC09217360
REMARK  12 active torsions:
REMARK  status: ('A' for Active; 'I' for Inactive)
REMARK    1  A    between atoms: C_1  and  C_2
REMARK    2  A    between atoms: C_2  and  C_3
REMARK    3  A    between atoms: C_3  and  C_5
REMARK    4  A    between atoms: C_3  and  C_6
REMARK    5  A    between atoms: C_11  and  N_12
REMARK    6  A    between atoms: C_13  and  C_15
REMARK    7  A    between atoms: C_15  and  S_16
REMARK    8  A    between atoms: S_16  and  C_17
REMARK    9  A    between atoms: C_20  and  C_29
REMARK   10  A    between atoms: N_21  and  C_22
REMARK   11  A    between atoms: C_29  and  C_31
REMARK   12  A    between atoms: C_29  and  N_69
REMARK                            x       y       z     vdW  Elec       q    Type
REMARK                         _______ _______ _______ _____ _____    ______ ____
ROOT
ATOM      1  C   UNL     1       0.188   0.985   2.736  0.00  0.00    +0.197 A 
ATOM      2  N   UNL     1       1.260   0.254   2.534  0.00  0.00    -0.122 NA
ATOM      3  N   UNL     1       1.775  -0.088   3.660  0.00  0.00    -0.135 NA
ATOM      4  C   UNL     1       1.070   0.399   4.642  0.00  0.00    +0.125 A 
ATOM      5  N   UNL     1       0.035   1.105   4.090  0.00  0.00    -0.275 N 
ENDROOT
BRANCH   5   6
ATOM      6  C   UNL     1      -0.974   1.804   4.770  0.00  0.00    +0.050 A 
ATOM      7  C   UNL     1      -0.652   2.910   5.545  0.00  0.00    +0.029 A 
ATOM      8  C   UNL     1      -1.647   3.600   6.209  0.00  0.00    +0.040 A 
ATOM      9  C   UNL     1      -2.963   3.182   6.112  0.00  0.00    +0.124 A 
ATOM     10  C   UNL     1      -3.286   2.076   5.344  0.00  0.00    +0.040 A 
ATOM     11  C   UNL     1      -2.294   1.387   4.674  0.00  0.00    +0.029 A 
ATOM     12  F   UNL     1      -3.935   3.855   6.767  0.00  0.00    -0.205 F 
ENDBRANCH   5   6
BRANCH   4  13
ATOM     13  C   UNL     1       1.346   0.223   6.113  0.00  0.00    -0.002 C 
ATOM     14  C   UNL     1       2.524   1.110   6.521  0.00  0.00    -0.005 C 
BRANCH  13  20
ATOM     15  C   UNL     1       0.606  -2.073   5.914  0.00  0.00    -0.078 C 
ATOM     16  C   UNL     1       1.044  -3.530   6.080  0.00  0.00    -0.019 C 
ATOM     17  C   UNL     1       1.346  -3.802   7.556  0.00  0.00    -0.004 C 
ATOM     18  C   UNL     1       2.428  -2.830   8.035  0.00  0.00    -0.019 C 
ATOM     19  C   UNL     1       1.950  -1.393   7.812  0.00  0.00    -0.078 C 
ATOM     20  N   UNL     1       1.699  -1.189   6.369  0.00  0.00    +0.386 N 
ATOM     21  H   UNL     1       2.553  -1.419   5.847  0.00  0.00    -0.081 HD
ENDBRANCH  13  20
ENDBRANCH   4  13
BRANCH   1  22
ATOM     22  S   UNL     1      -0.852   1.684   1.497  0.00  0.00    -0.076 S 
BRANCH  22  23
ATOM     23  C   UNL     1      -0.006   1.097   0.008  0.00  0.00    +0.173 C 
BRANCH  23  25
ATOM     24  N   UNL     1      -0.289   1.272  -2.443  0.00  0.00    -0.285 N 
ATOM     25  C   UNL     1      -0.741   1.588  -1.213  0.00  0.00    +0.227 C 
ATOM     26  O   UNL     1      -1.738   2.268  -1.089  0.00  0.00    -0.275 OA
ATOM     27  H   UNL     1       0.544   0.785  -2.543  0.00  0.00    +0.155 HD
BRANCH  24  33
ATOM     28  C   UNL     1      -1.054   0.817  -4.688  0.00  0.00    -0.023 A 
ATOM     29  C   UNL     1      -1.779   1.190  -5.804  0.00  0.00    +0.006 A 
ATOM     30  C   UNL     1      -2.470   2.386  -5.813  0.00  0.00    +0.000 A 
ATOM     31  C   UNL     1      -2.440   3.215  -4.705  0.00  0.00    +0.002 A 
ATOM     32  C   UNL     1      -1.723   2.845  -3.585  0.00  0.00    +0.023 A 
ATOM     33  C   UNL     1      -1.022   1.646  -3.575  0.00  0.00    +0.037 A 
BRANCH  28  34
ATOM     34  C   UNL     1      -0.301  -0.488  -4.679  0.00  0.00    +0.017 C 
ATOM     35  C   UNL     1      -1.260  -1.633  -5.009  0.00  0.00    +0.012 C 
BRANCH  34  37
ATOM     36  C   UNL     1       1.658  -1.713  -5.630  0.00  0.00    +0.004 C 
ATOM     37  C   UNL     1       0.815  -0.440  -5.724  0.00  0.00    +0.004 C 
ENDBRANCH  34  37
ENDBRANCH  28  34
ENDBRANCH  24  33
ENDBRANCH  23  25
ENDBRANCH  22  23
ENDBRANCH   1  22
TORSDOF 9
