REMARK  Name = ZINC18200434
REMARK  7 active torsions:
REMARK  status: ('A' for Active; 'I' for Inactive)
REMARK    1  A    between atoms: C_1  and  O_2
REMARK    2  A    between atoms: O_2  and  C_3
REMARK    3  A    between atoms: C_6  and  C_11
REMARK    4  A    between atoms: C_8  and  O_9
REMARK    5  A    between atoms: O_9  and  C_10
REMARK    6  A    between atoms: C_16  and  C_29
REMARK    7  A    between atoms: C_32  and  C_35
REMARK                            x       y       z     vdW  Elec       q    Type
REMARK                         _______ _______ _______ _____ _____    ______ ____
ROOT
ATOM      1  C   UNL     1       1.790   7.632   1.887  0.00  0.00    +0.032 C 
ATOM      2  C   UNL     1       0.750   7.239   0.836  0.00  0.00    +0.059 C 
ATOM      3  C   UNL     1       0.964   5.804   0.423  0.00  0.00    +0.017 C 
ATOM      4  C   UNL     1       2.197   5.256   0.426  0.00  0.00    +0.024 C 
ATOM      5  C   UNL     1       2.412   3.830  -0.012  0.00  0.00    +0.092 C 
ATOM      6  C   UNL     1       1.127   3.056   0.006  0.00  0.00    +0.067 A 
ATOM      7  C   UNL     1      -0.075   3.697   0.024  0.00  0.00    +0.113 A 
ATOM      8  N   UNL     1      -1.236   2.962   0.031  0.00  0.00    -0.295 N 
ATOM      9  H   UNL     1      -2.120   3.428   0.047  0.00  0.00    +0.172 HD
ATOM     10  C   UNL     1      -1.189   1.617   0.017  0.00  0.00    +0.328 A 
ATOM     11  O   UNL     1      -2.225   0.981   0.016  0.00  0.00    -0.247 OA
ATOM     12  N   UNL     1      -0.011   0.966   0.007  0.00  0.00    -0.275 N 
ATOM     13  H   UNL     1       0.003  -0.034   0.006  0.00  0.00    +0.173 HD
ATOM     14  C   UNL     1       1.150   1.650  -0.000  0.00  0.00    +0.260 A 
ATOM     15  O   UNL     1       2.213   1.054  -0.011  0.00  0.00    -0.267 OA
ATOM     16  N   UNL     1      -0.126   5.068   0.039  0.00  0.00    -0.303 N 
ATOM     17  C   UNL     1       3.319   6.000   0.834  0.00  0.00    +0.162 C 
ATOM     18  O   UNL     1       4.417   5.479   0.817  0.00  0.00    -0.292 OA
ATOM     19  C   UNL     1       3.186   7.427   1.289  0.00  0.00    +0.088 C 
ATOM     20  H   UNL     1      -0.941   5.521  -0.226  0.00  0.00    +0.153 HD
ENDROOT
BRANCH   1  24
ATOM     21  C   UNL     1       1.265  11.738   2.960  0.00  0.00    +0.161 A 
ATOM     22  C   UNL     1       1.548  11.393   1.648  0.00  0.00    +0.049 A 
ATOM     23  C   UNL     1       1.716  10.064   1.305  0.00  0.00    +0.008 A 
ATOM     24  C   UNL     1       1.605   9.079   2.267  0.00  0.00    -0.040 A 
ATOM     25  C   UNL     1       1.318   9.416   3.577  0.00  0.00    +0.053 A 
ATOM     26  C   UNL     1       1.152  10.746   3.929  0.00  0.00    +0.162 A 
BRANCH  21  28
ATOM     27  C   UNL     1       1.230  14.009   2.253  0.00  0.00    +0.277 C 
ATOM     28  O   UNL     1       1.099  13.045   3.300  0.00  0.00    -0.491 OA
ENDBRANCH  21  28
BRANCH  26  29
ATOM     29  O   UNL     1       0.875  11.080   5.218  0.00  0.00    -0.491 OA
ATOM     30  C   UNL     1       0.774  10.009   6.158  0.00  0.00    +0.277 C 
ENDBRANCH  26  29
ENDBRANCH   1  24
BRANCH   5  31
ATOM     31  C   UNL     1       2.974   3.822  -1.410  0.00  0.00    -0.035 A 
ATOM     32  C   UNL     1       2.239   4.353  -2.453  0.00  0.00    +0.005 A 
ATOM     33  C   UNL     1       2.757   4.351  -3.735  0.00  0.00    +0.012 A 
ATOM     34  C   UNL     1       4.005   3.807  -3.975  0.00  0.00    +0.055 A 
ATOM     35  C   UNL     1       4.738   3.271  -2.933  0.00  0.00    +0.012 A 
ATOM     36  C   UNL     1       4.222   3.279  -1.650  0.00  0.00    +0.005 A 
BRANCH  34  37
ATOM     37  C   UNL     1       4.566   3.799  -5.374  0.00  0.00    +0.417 C 
ATOM     38  F   UNL     1       4.186   2.619  -6.022  0.00  0.00    -0.166 F 
ATOM     39  F   UNL     1       4.072   4.900  -6.082  0.00  0.00    -0.166 F 
ATOM     40  F   UNL     1       5.962   3.869  -5.316  0.00  0.00    -0.166 F 
ENDBRANCH  34  37
ENDBRANCH   5  31
TORSDOF 5
