REMARK  Name = ZINC59599079
REMARK  11 active torsions:
REMARK  status: ('A' for Active; 'I' for Inactive)
REMARK    1  A    between atoms: C_1  and  C_2
REMARK    2  A    between atoms: C_5  and  C_36
REMARK    3  A    between atoms: N_6  and  C_7
REMARK    4  A    between atoms: C_11  and  C_13
REMARK    5  A    between atoms: N_15  and  N_16
REMARK    6  A    between atoms: C_17  and  C_18
REMARK    7  A    between atoms: C_21  and  O_24
REMARK    8  A    between atoms: O_24  and  C_25
REMARK    9  A    between atoms: C_26  and  N_35
REMARK   10  A    between atoms: N_27  and  C_34
REMARK   11  A    between atoms: N_30  and  C_33
REMARK                            x       y       z     vdW  Elec       q    Type
REMARK                         _______ _______ _______ _____ _____    ______ ____
ROOT
ATOM      1  C   UNL     1      -4.572   0.092   9.629  0.00  0.00    -0.005 A 
ATOM      2  C   UNL     1      -5.581  -0.762   9.177  0.00  0.00    +0.013 A 
ATOM      3  C   UNL     1      -6.577  -1.166  10.040  0.00  0.00    +0.047 A 
ATOM      4  C   UNL     1      -6.579  -0.725  11.357  0.00  0.00    +0.129 A 
ATOM      5  C   UNL     1      -5.577   0.125  11.811  0.00  0.00    +0.047 A 
ATOM      6  C   UNL     1      -4.574   0.528  10.957  0.00  0.00    +0.013 A 
ENDROOT
BRANCH   1   8
ATOM      7  N   UNL     1      -3.504   0.119   7.478  0.00  0.00    -0.187 NA
ATOM      8  C   UNL     1      -3.504   0.526   8.710  0.00  0.00    +0.138 C 
BRANCH   7  11
ATOM      9  C   UNL     1      -2.489   0.110   5.324  0.00  0.00    +0.263 C 
ATOM     10  O   UNL     1      -3.369  -0.629   4.928  0.00  0.00    -0.268 OA
ATOM     11  N   UNL     1      -2.489   0.532   6.604  0.00  0.00    -0.203 N 
ATOM     12  H   UNL     1      -1.787   1.122   6.921  0.00  0.00    +0.178 HD
BRANCH   9  17
ATOM     13  C   UNL     1      -0.409   0.523   2.219  0.00  0.00    +0.047 A 
ATOM     14  C   UNL     1       0.594   1.367   2.680  0.00  0.00    +0.026 A 
ATOM     15  C   UNL     1       0.591   1.799   3.993  0.00  0.00    +0.003 A 
ATOM     16  C   UNL     1      -0.407   1.394   4.856  0.00  0.00    +0.013 A 
ATOM     17  C   UNL     1      -1.419   0.546   4.403  0.00  0.00    +0.040 A 
ATOM     18  C   UNL     1      -1.419   0.114   3.076  0.00  0.00    +0.039 A 
BRANCH  13  24
ATOM     19  C   UNL     1      -0.754   2.379  -0.199  0.00  0.00    +0.064 C 
ATOM     20  C   UNL     1      -0.553   0.885  -0.212  0.00  0.00    +0.021 A 
ATOM     21  C   UNL     1      -0.485   0.106  -1.311  0.00  0.00    +0.023 A 
ATOM     22  C   UNL     1      -0.291  -1.220  -0.877  0.00  0.00    +0.023 A 
ATOM     23  C   UNL     1      -0.247  -1.204   0.470  0.00  0.00    +0.021 A 
ATOM     24  N   UNL     1      -0.402   0.088   0.886  0.00  0.00    -0.318 N 
ATOM     25  C   UNL     1      -0.055  -2.402   1.363  0.00  0.00    +0.064 C 
ENDBRANCH  13  24
ENDBRANCH   9  17
ENDBRANCH   7  11
ENDBRANCH   1   8
BRANCH   4  26
ATOM     26  O   UNL     1      -7.562  -1.125  12.204  0.00  0.00    -0.447 OA
BRANCH  26  27
ATOM     27  C   UNL     1      -7.464  -0.764  13.515  0.00  0.00    +0.230 A 
ATOM     28  C   UNL     1      -8.363   0.110  14.063  0.00  0.00    +0.149 A 
ATOM     29  N   UNL     1      -8.243   0.459  15.389  0.00  0.00    -0.282 N 
ATOM     30  C   UNL     1      -7.252  -0.054  16.140  0.00  0.00    +0.333 A 
ATOM     31  O   UNL     1      -7.161   0.265  17.310  0.00  0.00    -0.246 OA
ATOM     32  N   UNL     1      -6.359  -0.915  15.617  0.00  0.00    -0.261 N 
ATOM     33  C   UNL     1      -6.442  -1.288  14.325  0.00  0.00    +0.301 A 
ATOM     34  O   UNL     1      -5.632  -2.073  13.860  0.00  0.00    -0.263 OA
ATOM     35  C   UNL     1      -5.291  -1.455  16.462  0.00  0.00    +0.157 C 
ATOM     36  C   UNL     1      -9.200   1.394  15.985  0.00  0.00    +0.155 C 
BRANCH  28  37
ATOM     37  N   UNL     1      -9.376   0.635  13.296  0.00  0.00    -0.341 N 
ATOM     38  H   UNL     1      -9.500   0.333  12.383  0.00  0.00    +0.144 HD
ATOM     39  H   UNL     1      -9.967   1.309  13.669  0.00  0.00    +0.144 HD
ENDBRANCH  28  37
ENDBRANCH  26  27
ENDBRANCH   4  26
TORSDOF 7
