REMARK  Name = ZINC24839922
REMARK  10 active torsions:
REMARK  status: ('A' for Active; 'I' for Inactive)
REMARK    1  A    between atoms: C_1  and  C_2
REMARK    2  A    between atoms: C_3  and  C_31
REMARK    3  A    between atoms: N_9  and  C_30
REMARK    4  A    between atoms: C_10  and  S_12
REMARK    5  A    between atoms: S_12  and  C_13
REMARK    6  A    between atoms: C_13  and  C_15
REMARK    7  A    between atoms: C_13  and  C_16
REMARK    8  A    between atoms: N_18  and  C_19
REMARK    9  A    between atoms: C_19  and  C_21
REMARK   10  A    between atoms: C_19  and  C_22
REMARK                            x       y       z     vdW  Elec       q    Type
REMARK                         _______ _______ _______ _____ _____    ______ ____
ROOT
ATOM      1  C   UNL     1      -3.337  -2.381   0.018  0.00  0.00    +0.137 C 
ATOM      2  C   UNL     1      -3.402  -1.580  -1.284  0.00  0.00    +0.029 C 
ENDROOT
BRANCH   1   3
ATOM      3  C   UNL     1      -4.574  -3.230   0.148  0.00  0.00    +0.227 C 
ATOM      4  O   UNL     1      -4.535  -4.408  -0.139  0.00  0.00    -0.275 OA
ATOM      5  N   UNL     1      -5.726  -2.681   0.583  0.00  0.00    -0.308 N 
ATOM      6  H   UNL     1      -5.762  -1.613   0.844  0.00  0.00    +0.149 HD
BRANCH   5   7
ATOM      7  C   UNL     1      -6.929  -3.507   0.710  0.00  0.00    +0.102 C 
ATOM      8  C   UNL     1      -7.644  -3.577  -0.641  0.00  0.00    +0.033 C 
BRANCH   7   9
ATOM      9  C   UNL     1      -7.851  -2.898   1.735  0.00  0.00    -0.009 A 
ATOM     10  C   UNL     1      -7.787  -1.543   2.003  0.00  0.00    +0.008 A 
ATOM     11  C   UNL     1      -8.632  -0.984   2.943  0.00  0.00    +0.020 A 
ATOM     12  C   UNL     1      -9.542  -1.780   3.616  0.00  0.00    +0.042 A 
ATOM     13  C   UNL     1      -9.607  -3.135   3.348  0.00  0.00    +0.040 A 
ATOM     14  C   UNL     1      -8.765  -3.694   2.402  0.00  0.00    +0.047 A 
ATOM     15 CL   UNL     1      -8.850  -5.393   2.059  0.00  0.00    -0.083 Cl
ATOM     16 CL   UNL     1     -10.604  -1.077   4.797  0.00  0.00    -0.083 Cl
ENDBRANCH   7   9
ENDBRANCH   5   7
ENDBRANCH   1   3
BRANCH   1  17
ATOM     17  S   UNL     1      -1.873  -3.446  -0.001  0.00  0.00    -0.075 S 
BRANCH  17  27
ATOM     18  C   UNL     1       3.757   0.648  -0.031  0.00  0.00    +0.045 C 
ATOM     19  C   UNL     1       2.262   0.838  -0.015  0.00  0.00    -0.026 A 
ATOM     20  C   UNL     1       1.735   2.071  -0.003  0.00  0.00    -0.008 A 
ATOM     21  S   UNL     1      -0.022   1.770   0.012  0.00  0.00    -0.073 S 
ATOM     22  C   UNL     1       0.002  -0.004   0.002  0.00  0.00    +0.117 A 
ATOM     23  C   UNL     1       1.375  -0.313  -0.013  0.00  0.00    +0.075 A 
ATOM     24  C   UNL     1       1.700  -1.706  -0.025  0.00  0.00    +0.263 A 
ATOM     25  O   UNL     1       2.864  -2.069  -0.038  0.00  0.00    -0.267 OA
ATOM     26  N   UNL     1       0.704  -2.611  -0.020  0.00  0.00    -0.290 N 
ATOM     27  C   UNL     1      -0.605  -2.224  -0.005  0.00  0.00    +0.173 A 
ATOM     28  N   UNL     1      -0.932  -0.947   0.005  0.00  0.00    -0.216 NA
ATOM     29  C   UNL     1       1.030  -4.039  -0.032  0.00  0.00    +0.154 C 
ATOM     30  C   UNL     1       2.456   3.394  -0.004  0.00  0.00    +0.052 C 
ENDBRANCH  17  27
ENDBRANCH   1  17
TORSDOF 5
