REMARK  Name = ZINC54558577
REMARK  6 active torsions:
REMARK  status: ('A' for Active; 'I' for Inactive)
REMARK    1  A    between atoms: C_1  and  C_2
REMARK    2  A    between atoms: C_2  and  C_3
REMARK    3  A    between atoms: C_2  and  C_4
REMARK    4  A    between atoms: C_8  and  O_23
REMARK    5  A    between atoms: C_10  and  N_13
REMARK    6  A    between atoms: C_17  and  C_18
REMARK                            x       y       z     vdW  Elec       q    Type
REMARK                         _______ _______ _______ _____ _____    ______ ____
ROOT
ATOM      1  C   UNL     1      -1.433  -0.534   0.013  0.00  0.00    -0.006 C 
ATOM      2  C   UNL     1      -1.413  -2.063   0.004  0.00  0.00    +0.006 C 
ATOM      3  C   UNL     1      -2.848  -2.593   0.015  0.00  0.00    +0.034 C 
ATOM      4  C   UNL     1      -3.588  -2.086  -1.224  0.00  0.00    +0.137 C 
ATOM      5  C   UNL     1      -3.609  -0.556  -1.216  0.00  0.00    +0.117 C 
ATOM      6  C   UNL     1      -2.173  -0.027  -1.227  0.00  0.00    +0.031 C 
ENDROOT
BRANCH   5   7
ATOM      7  N   UNL     1      -4.317  -0.071  -2.403  0.00  0.00    -0.325 N 
ATOM      8  C   UNL     1      -3.980  -0.312  -3.710  0.00  0.00    +0.107 A 
ATOM      9  C   UNL     1      -4.893   0.317  -4.476  0.00  0.00    +0.131 A 
ATOM     10  N   UNL     1      -5.771   0.930  -3.673  0.00  0.00    -0.235 NA
ATOM     11  C   UNL     1      -5.443   0.702  -2.418  0.00  0.00    +0.148 A 
BRANCH  11  12
ATOM     12  C   UNL     1      -6.164   1.199  -1.235  0.00  0.00    +0.055 A 
ATOM     13  C   UNL     1      -7.118   2.182  -1.153  0.00  0.00    +0.019 A 
ATOM     14  C   UNL     1      -7.658   2.478   0.078  0.00  0.00    +0.008 A 
ATOM     15  C   UNL     1      -7.233   1.792   1.170  0.00  0.00    +0.046 A 
ATOM     16  S   UNL     1      -6.032   0.674   0.467  0.00  0.00    -0.094 S 
ENDBRANCH  11  12
ENDBRANCH   5   7
BRANCH   1  18
ATOM     17  C   UNL     1      -0.019   1.526   0.010  0.00  0.00    +0.007 C 
ATOM     18  C   UNL     1       0.002  -0.004   0.002  0.00  0.00    -0.014 C 
ATOM     19  C   UNL     1       0.742  -0.511   1.242  0.00  0.00    +0.007 C 
ENDBRANCH   1  18
BRANCH   4  20
ATOM     20  O   UNL     1      -4.929  -2.581  -1.214  0.00  0.00    -0.390 OA
ATOM     21  H   UNL     1      -4.992  -3.546  -1.219  0.00  0.00    +0.210 HD
ENDBRANCH   4  20
TORSDOF 4
