REMARK  Name = ZINC38704287
REMARK  8 active torsions:
REMARK  status: ('A' for Active; 'I' for Inactive)
REMARK    1  A    between atoms: C_1  and  C_2
REMARK    2  A    between atoms: C_5  and  C_10
REMARK    3  A    between atoms: C_6  and  O_9
REMARK    4  A    between atoms: C_7  and  C_8
REMARK    5  A    between atoms: C_12  and  C_16
REMARK    6  A    between atoms: C_22  and  S_24
REMARK    7  A    between atoms: S_24  and  C_25
REMARK    8  A    between atoms: C_25  and  C_26
REMARK                            x       y       z     vdW  Elec       q    Type
REMARK                         _______ _______ _______ _____ _____    ______ ____
ROOT
ATOM      1  C   UNL     1       0.059  -4.260  -0.033  0.00  0.00    +0.097 A 
ATOM      2  C   UNL     1       0.070  -5.081  -1.175  0.00  0.00    +0.062 A 
ATOM      3  C   UNL     1       0.087  -6.376  -0.692  0.00  0.00    +0.121 A 
ATOM      4  N   UNL     1       0.086  -6.281   0.671  0.00  0.00    -0.272 N 
ATOM      5  H   UNL     1       0.096  -7.035   1.282  0.00  0.00    +0.189 HD
ATOM      6  N   UNL     1       0.075  -5.046   1.023  0.00  0.00    -0.173 NA
ENDROOT
BRANCH   3   7
ATOM      7  C   UNL     1       0.103  -7.613  -1.489  0.00  0.00    +0.268 C 
ATOM      8  O   UNL     1       0.102  -7.554  -2.704  0.00  0.00    -0.268 OA
ATOM      9  N   UNL     1       0.119  -8.812  -0.873  0.00  0.00    -0.258 N 
ATOM     10  C   UNL     1       0.134  -9.981  -1.627  0.00  0.00    +0.189 A 
ATOM     11  N   UNL     1       0.141 -10.147  -2.939  0.00  0.00    -0.125 NA
ATOM     12  N   UNL     1       0.155 -11.292  -3.468  0.00  0.00    -0.133 NA
ATOM     13  C   UNL     1       0.164 -12.400  -2.741  0.00  0.00    +0.160 A 
ATOM     14  S   UNL     1       0.156 -11.691  -1.097  0.00  0.00    -0.024 S 
ATOM     15  H   UNL     1       0.120  -8.859   0.096  0.00  0.00    +0.157 HD
BRANCH  13  16
ATOM     16  S   UNL     1       0.183 -14.087  -3.248  0.00  0.00    -0.093 S 
BRANCH  16  17
ATOM     17  C   UNL     1       0.189 -14.001  -5.060  0.00  0.00    +0.103 C 
BRANCH  17  18
ATOM     18  C   UNL     1       0.206 -15.397  -5.629  0.00  0.00    -0.023 C 
ATOM     19  C   UNL     1      -0.815 -15.832  -6.324  0.00  0.00    +0.005 C 
ENDBRANCH  17  18
ENDBRANCH  16  17
ENDBRANCH  13  16
ENDBRANCH   3   7
BRANCH   1  24
ATOM     20  C   UNL     1      -0.018   1.503   0.010  0.00  0.00    +0.044 C 
ATOM     21  C   UNL     1       0.002  -0.004   0.002  0.00  0.00    -0.044 A 
ATOM     22  C   UNL     1       0.006  -0.686  -1.202  0.00  0.00    +0.004 A 
ATOM     23  C   UNL     1       0.024  -2.066  -1.219  0.00  0.00    +0.014 A 
ATOM     24  C   UNL     1       0.040  -2.776  -0.020  0.00  0.00    +0.044 A 
ATOM     25  C   UNL     1       0.036  -2.084   1.194  0.00  0.00    +0.129 A 
ATOM     26  C   UNL     1       0.023  -0.698   1.197  0.00  0.00    -0.005 A 
ATOM     27  C   UNL     1       0.025   0.052   2.504  0.00  0.00    +0.048 C 
BRANCH  25  28
ATOM     28  O   UNL     1       0.051  -2.768   2.368  0.00  0.00    -0.506 OA
ATOM     29  H   UNL     1       0.938  -2.954   2.704  0.00  0.00    +0.292 HD
ENDBRANCH  25  28
ENDBRANCH   1  24
TORSDOF 6
