REMARK  Name = ZINC59369789
REMARK  9 active torsions:
REMARK  status: ('A' for Active; 'I' for Inactive)
REMARK    1  A    between atoms: C_1  and  N_2
REMARK    2  A    between atoms: N_2  and  C_3
REMARK    3  A    between atoms: C_6  and  C_29
REMARK    4  A    between atoms: N_13  and  S_14
REMARK    5  A    between atoms: S_14  and  C_17
REMARK    6  A    between atoms: C_22  and  S_23
REMARK    7  A    between atoms: S_23  and  N_26
REMARK    8  A    between atoms: N_26  and  C_27
REMARK    9  A    between atoms: N_26  and  C_28
REMARK                            x       y       z     vdW  Elec       q    Type
REMARK                         _______ _______ _______ _____ _____    ______ ____
ROOT
ATOM      1  C   UNL     1      -0.465   2.020  -0.020  0.00  0.00    +0.132 C 
ATOM      2  N   UNL     1      -0.342   0.562   0.053  0.00  0.00    -0.306 N 
ATOM      3  C   UNL     1      -0.318  -0.107   1.356  0.00  0.00    +0.132 C 
ATOM      4  C   UNL     1      -0.247  -0.181  -1.106  0.00  0.00    +0.222 A 
ATOM      5  N   UNL     1      -0.140  -1.506  -1.042  0.00  0.00    -0.191 NA
ATOM      6  C   UNL     1      -0.049  -2.218  -2.151  0.00  0.00    +0.240 A 
ATOM      7  N   UNL     1      -0.064  -1.617  -3.329  0.00  0.00    -0.190 NA
ATOM      8  C   UNL     1      -0.170  -0.293  -3.401  0.00  0.00    +0.228 A 
ATOM      9  N   UNL     1      -0.268   0.425  -2.288  0.00  0.00    -0.181 NA
ATOM     10  N   UNL     1      -0.185   0.334  -4.635  0.00  0.00    -0.233 N 
ATOM     11  C   UNL     1      -0.090  -0.412  -5.788  0.00  0.00    +0.358 C 
ATOM     12  O   UNL     1       0.019  -1.757  -5.716  0.00  0.00    -0.246 OA
ATOM     13  N   UNL     1      -0.104   0.177  -6.947  0.00  0.00    -0.072 NA
ATOM     14  H   UNL     1      -0.263   1.300  -4.687  0.00  0.00    +0.160 HD
ENDROOT
BRANCH   6  15
ATOM     15  C   UNL     1       0.072  -3.718  -2.074  0.00  0.00    +0.452 C 
ATOM     16  F   UNL     1      -1.148  -4.303  -2.428  0.00  0.00    -0.163 F 
ATOM     17  F   UNL     1       1.070  -4.151  -2.954  0.00  0.00    -0.163 F 
ATOM     18  F   UNL     1       0.407  -4.092  -0.768  0.00  0.00    -0.163 F 
ENDBRANCH   6  15
BRANCH  13  19
ATOM     19  S   UNL     1       0.011  -0.721  -8.334  0.00  0.00    +0.105 S 
ATOM     20  O   UNL     1       1.308  -1.300  -8.337  0.00  0.00    -0.146 OA
ATOM     21  O   UNL     1      -1.173  -1.504  -8.410  0.00  0.00    -0.146 OA
BRANCH  19  22
ATOM     22  C   UNL     1      -0.042   0.405  -9.689  0.00  0.00    +0.139 A 
ATOM     23  C   UNL     1       1.075   0.581 -10.485  0.00  0.00    +0.031 A 
ATOM     24  C   UNL     1       1.034   1.464 -11.547  0.00  0.00    +0.002 A 
ATOM     25  C   UNL     1      -0.124   2.170 -11.815  0.00  0.00    +0.002 A 
ATOM     26  C   UNL     1      -1.241   1.994 -11.019  0.00  0.00    +0.030 A 
ATOM     27  C   UNL     1      -1.201   1.107  -9.959  0.00  0.00    +0.132 A 
BRANCH  27  28
ATOM     28  S   UNL     1      -2.626   0.878  -8.949  0.00  0.00    +0.062 S 
ATOM     29  O   UNL     1      -3.250  -0.319  -9.393  0.00  0.00    -0.153 OA
ATOM     30  O   UNL     1      -2.205   1.064  -7.604  0.00  0.00    -0.153 OA
BRANCH  28  31
ATOM     31  N   UNL     1      -3.674   2.113  -9.292  0.00  0.00    -0.183 NA
ATOM     32  C   UNL     1      -4.740   1.917 -10.278  0.00  0.00    +0.131 C 
ATOM     33  C   UNL     1      -3.535   3.402  -8.610  0.00  0.00    +0.131 C 
ENDBRANCH  28  31
ENDBRANCH  27  28
ENDBRANCH  19  22
ENDBRANCH  13  19
TORSDOF 5
