REMARK  Name = ZINC39697147
REMARK  9 active torsions:
REMARK  status: ('A' for Active; 'I' for Inactive)
REMARK    1  A    between atoms: C_1  and  C_2
REMARK    2  A    between atoms: C_5  and  C_8
REMARK    3  A    between atoms: C_8  and  N_9
REMARK    4  A    between atoms: C_10  and  C_12
REMARK    5  A    between atoms: C_23  and  C_25
REMARK    6  A    between atoms: C_25  and  C_26
REMARK    7  A    between atoms: C_26  and  C_27
REMARK    8  A    between atoms: C_30  and  O_33
REMARK    9  A    between atoms: O_33  and  C_34
REMARK                            x       y       z     vdW  Elec       q    Type
REMARK                         _______ _______ _______ _____ _____    ______ ____
ROOT
ATOM      1  C   UNL     1      -2.947  -6.540  -0.338  0.00  0.00    +0.100 C 
ATOM      2  C   UNL     1      -3.614  -5.997  -1.621  0.00  0.00    +0.121 C 
ATOM      3  N   UNL     1      -3.402  -7.059  -2.632  0.00  0.00    -0.300 N 
ATOM      4  C   UNL     1      -3.596  -8.324  -1.884  0.00  0.00    +0.115 C 
ATOM      5  C   UNL     1      -2.940  -8.068  -0.513  0.00  0.00    -0.004 C 
ATOM      6  C   UNL     1      -1.508  -8.594  -0.508  0.00  0.00    -0.010 C 
ATOM      7  C   UNL     1      -1.529 -10.120  -0.626  0.00  0.00    -0.082 C 
ATOM      8  N   UNL     1      -2.285 -10.689   0.497  0.00  0.00    +0.379 N 
ATOM      9  C   UNL     1      -3.684 -10.251   0.432  0.00  0.00    -0.082 C 
ATOM     10  C   UNL     1      -3.754  -8.730   0.595  0.00  0.00    -0.010 C 
ATOM     11  C   UNL     1      -3.100  -6.909  -3.937  0.00  0.00    +0.216 C 
ATOM     12  O   UNL     1      -2.957  -7.885  -4.642  0.00  0.00    -0.276 OA
ATOM     13  H   UNL     1      -2.246 -11.696   0.451  0.00  0.00    -0.086 HD
ATOM     14  H   UNL     1      -1.877 -10.379   1.366  0.00  0.00    -0.086 HD
ENDROOT
BRANCH   1  16
ATOM     15  N   UNL     1      -0.976  -5.867   0.997  0.00  0.00    -0.309 N 
ATOM     16  C   UNL     1      -1.538  -6.019  -0.218  0.00  0.00    +0.219 C 
ATOM     17  O   UNL     1      -0.909  -5.736  -1.216  0.00  0.00    -0.275 OA
ATOM     18  H   UNL     1      -1.479  -6.093   1.796  0.00  0.00    +0.149 HD
BRANCH  15  19
ATOM     19  C   UNL     1       0.394  -5.361   1.113  0.00  0.00    +0.161 C 
BRANCH  19  24
ATOM     20  C   UNL     1       1.874  -5.127   6.601  0.00  0.00    +0.067 C 
ATOM     21  C   UNL     1       1.488  -5.202   5.146  0.00  0.00    +0.056 A 
ATOM     22  C   UNL     1       0.799  -4.155   4.558  0.00  0.00    +0.134 A 
ATOM     23  N   UNL     1       0.461  -4.221   3.283  0.00  0.00    -0.255 NA
ATOM     24  C   UNL     1       0.780  -5.286   2.568  0.00  0.00    +0.076 A 
ATOM     25  C   UNL     1       1.468  -6.332   3.156  0.00  0.00    +0.136 A 
ATOM     26  N   UNL     1       1.811  -6.264   4.430  0.00  0.00    -0.257 NA
ENDBRANCH  19  24
ENDBRANCH  15  19
ENDBRANCH   1  16
BRANCH  11  27
ATOM     27  C   UNL     1      -2.941  -5.529  -4.520  0.00  0.00    +0.100 C 
BRANCH  27  28
ATOM     28  C   UNL     1      -2.602  -5.639  -6.008  0.00  0.00    +0.044 C 
BRANCH  28  29
ATOM     29  C   UNL     1      -2.443  -4.259  -6.591  0.00  0.00    -0.047 A 
ATOM     30  C   UNL     1      -3.539  -3.602  -7.120  0.00  0.00    +0.007 A 
ATOM     31  C   UNL     1      -3.396  -2.337  -7.656  0.00  0.00    +0.046 A 
ATOM     32  C   UNL     1      -2.151  -1.724  -7.661  0.00  0.00    +0.120 A 
ATOM     33  C   UNL     1      -1.053  -2.385  -7.129  0.00  0.00    +0.046 A 
ATOM     34  C   UNL     1      -1.203  -3.648  -6.590  0.00  0.00    +0.007 A 
BRANCH  32  35
ATOM     35  O   UNL     1      -2.008  -0.480  -8.188  0.00  0.00    -0.495 OA
ATOM     36  C   UNL     1      -0.697   0.089  -8.160  0.00  0.00    +0.277 C 
ENDBRANCH  32  35
ENDBRANCH  28  29
ENDBRANCH  27  28
ENDBRANCH  11  27
TORSDOF 7
