REMARK  Name = ZINC04801110
REMARK  9 active torsions:
REMARK  status: ('A' for Active; 'I' for Inactive)
REMARK    1  A    between atoms: C_1  and  O_2
REMARK    2  A    between atoms: O_2  and  C_3
REMARK    3  A    between atoms: C_6  and  N_11
REMARK    4  A    between atoms: C_7  and  O_9
REMARK    5  A    between atoms: O_9  and  C_10
REMARK    6  A    between atoms: C_12  and  C_25
REMARK    7  A    between atoms: C_17  and  N_22
REMARK    8  A    between atoms: C_25  and  N_26
REMARK    9  A    between atoms: N_29  and  C_32
REMARK                            x       y       z     vdW  Elec       q    Type
REMARK                         _______ _______ _______ _____ _____    ______ ____
ROOT
ATOM      1  N   UNL     1       2.489  -2.458  -4.331  0.00  0.00    -0.262 N 
ATOM      2  C   UNL     1       1.754  -2.756  -5.435  0.00  0.00    +0.101 A 
ATOM      3  N   UNL     1       2.248  -3.340  -6.485  0.00  0.00    -0.235 NA
ATOM      4  C   UNL     1       3.555  -3.696  -6.551  0.00  0.00    +0.078 A 
ATOM      5  C   UNL     1       4.089  -4.322  -7.679  0.00  0.00    +0.031 A 
ATOM      6  C   UNL     1       5.423  -4.664  -7.698  0.00  0.00    +0.035 A 
ATOM      7  C   UNL     1       6.242  -4.394  -6.610  0.00  0.00    +0.127 A 
ATOM      8  C   UNL     1       5.743  -3.781  -5.494  0.00  0.00    +0.048 A 
ATOM      9  C   UNL     1       4.396  -3.424  -5.449  0.00  0.00    +0.067 A 
ATOM     10  C   UNL     1       3.807  -2.759  -4.278  0.00  0.00    +0.266 A 
ATOM     11  O   UNL     1       4.478  -2.492  -3.298  0.00  0.00    -0.267 OA
ENDROOT
BRANCH   1  15
ATOM     12  C   UNL     1       0.664  -0.579  -1.080  0.00  0.00    +0.124 A 
ATOM     13  C   UNL     1       1.232   0.180  -2.093  0.00  0.00    +0.048 A 
ATOM     14  C   UNL     1       1.836  -0.441  -3.169  0.00  0.00    +0.033 A 
ATOM     15  C   UNL     1       1.876  -1.826  -3.238  0.00  0.00    +0.093 A 
ATOM     16  C   UNL     1       1.306  -2.590  -2.221  0.00  0.00    +0.147 A 
ATOM     17  C   UNL     1       0.706  -1.963  -1.141  0.00  0.00    +0.093 A 
BRANCH  12  19
ATOM     18  C   UNL     1       0.064   1.465  -0.023  0.00  0.00    +0.277 C 
ATOM     19  O   UNL     1       0.071   0.036  -0.022  0.00  0.00    -0.495 OA
ENDBRANCH  12  19
BRANCH  16  20
ATOM     20  O   UNL     1       1.343  -3.947  -2.287  0.00  0.00    -0.493 OA
ATOM     21  C   UNL     1       0.739  -4.665  -1.209  0.00  0.00    +0.277 C 
ENDBRANCH  16  20
ENDBRANCH   1  15
BRANCH   7  22
ATOM     22  N   UNL     1       7.672  -4.773  -6.659  0.00  0.00    +0.056 N 
ATOM     23  O   UNL     1       8.121  -5.315  -7.642  0.00  0.00    -0.126 OA
ATOM     24  O   UNL     1       8.392  -4.540  -5.715  0.00  0.00    -0.126 OA
ENDBRANCH   7  22
BRANCH   2  25
ATOM     25  C   UNL     1       0.291  -2.393  -5.441  0.00  0.00    -0.003 C 
BRANCH  25  26
ATOM     26  N   UNL     1      -0.309  -2.800  -6.718  0.00  0.00    +0.386 N 
ATOM     27  C   UNL     1       0.297  -2.030  -7.811  0.00  0.00    -0.059 C 
ATOM     28  C   UNL     1      -0.245  -2.534  -9.152  0.00  0.00    +0.086 C 
ATOM     29  N   UNL     1      -1.714  -2.477  -9.113  0.00  0.00    -0.333 N 
ATOM     30  C   UNL     1      -2.400  -3.085  -7.962  0.00  0.00    +0.086 C 
ATOM     31  C   UNL     1      -1.756  -2.555  -6.677  0.00  0.00    -0.059 C 
ATOM     32  H   UNL     1      -0.140  -3.784  -6.869  0.00  0.00    -0.081 HD
BRANCH  29  33
ATOM     33  C   UNL     1      -2.438  -1.863 -10.139  0.00  0.00    +0.030 A 
ATOM     34  C   UNL     1      -1.770  -1.197 -11.159  0.00  0.00    +0.026 A 
ATOM     35  C   UNL     1      -2.487  -0.592 -12.172  0.00  0.00    +0.040 A 
ATOM     36  C   UNL     1      -3.871  -0.648 -12.172  0.00  0.00    +0.124 A 
ATOM     37  C   UNL     1      -4.539  -1.311 -11.156  0.00  0.00    +0.040 A 
ATOM     38  C   UNL     1      -3.825  -1.922 -10.143  0.00  0.00    +0.026 A 
ATOM     39  F   UNL     1      -4.570  -0.054 -13.164  0.00  0.00    -0.205 F 
ENDBRANCH  29  33
ENDBRANCH  25  26
ENDBRANCH   2  25
TORSDOF 7
