REMARK  Name = ZINC20605591
REMARK  7 active torsions:
REMARK  status: ('A' for Active; 'I' for Inactive)
REMARK    1  A    between atoms: C_1  and  C_2
REMARK    2  A    between atoms: C_2  and  N_3
REMARK    3  A    between atoms: C_5  and  C_8
REMARK    4  A    between atoms: C_10  and  C_28
REMARK    5  A    between atoms: N_14  and  C_20
REMARK    6  A    between atoms: C_24  and  C_27
REMARK    7  A    between atoms: C_25  and  C_26
REMARK                            x       y       z     vdW  Elec       q    Type
REMARK                         _______ _______ _______ _____ _____    ______ ____
ROOT
ATOM      1  C   UNL     1      -1.878   1.478   3.304  0.00  0.00    +0.077 A 
ATOM      2  C   UNL     1      -1.230   0.995   2.164  0.00  0.00    +0.041 A 
ATOM      3  C   UNL     1      -0.722   1.881   1.250  0.00  0.00    +0.073 A 
ATOM      4  C   UNL     1      -0.872   3.246   1.502  0.00  0.00    +0.094 A 
ATOM      5  C   UNL     1      -1.540   3.670   2.665  0.00  0.00    +0.153 A 
ATOM      6  N   UNL     1      -2.014   2.781   3.521  0.00  0.00    -0.228 NA
ATOM      7  N   UNL     1      -1.677   5.029   2.882  0.00  0.00    -0.273 N 
ATOM      8  C   UNL     1      -1.179   5.923   1.983  0.00  0.00    +0.167 A 
ATOM      9  N   UNL     1      -0.554   5.562   0.883  0.00  0.00    -0.302 N 
ATOM     10  C   UNL     1      -0.365   4.270   0.573  0.00  0.00    +0.262 A 
ATOM     11  O   UNL     1       0.217   3.952  -0.451  0.00  0.00    -0.267 OA
ATOM     12  S   UNL     1      -1.381   7.643   2.309  0.00  0.00    -0.012 S 
ATOM     13  H   UNL     1      -0.171   6.327   0.191  0.00  0.00    +0.171 HD
ENDROOT
BRANCH   7  14
ATOM     14  C   UNL     1      -2.332   5.488   4.032  0.00  0.00    +0.054 A 
ATOM     15  C   UNL     1      -1.610   5.727   5.195  0.00  0.00    +0.026 A 
ATOM     16  C   UNL     1      -2.258   6.180   6.327  0.00  0.00    +0.002 A 
ATOM     17  C   UNL     1      -3.624   6.396   6.304  0.00  0.00    +0.004 A 
ATOM     18  C   UNL     1      -4.345   6.159   5.148  0.00  0.00    -0.046 A 
ATOM     19  C   UNL     1      -3.702   5.710   4.011  0.00  0.00    -0.024 A 
ATOM     20  C   UNL     1      -4.487   5.458   2.750  0.00  0.00    +0.046 C 
ATOM     21  C   UNL     1      -5.833   6.395   5.127  0.00  0.00    +0.044 C 
ENDBRANCH   7  14
BRANCH   1  24
ATOM     22  N   UNL     1      -3.413  -0.323   6.054  0.00  0.00    -0.271 N 
ATOM     23  C   UNL     1      -3.082   0.832   5.447  0.00  0.00    +0.118 A 
ATOM     24  C   UNL     1      -2.425   0.518   4.290  0.00  0.00    +0.038 A 
ATOM     25  C   UNL     1      -2.369  -0.888   4.204  0.00  0.00    +0.144 A 
ATOM     26  N   UNL     1      -2.955  -1.382   5.262  0.00  0.00    -0.179 NA
BRANCH  22  28
ATOM     27  C   UNL     1      -5.367  -1.328   7.127  0.00  0.00    +0.029 C 
ATOM     28  C   UNL     1      -4.130  -0.449   7.325  0.00  0.00    +0.140 C 
ENDBRANCH  22  28
ENDBRANCH   1  24
BRANCH   3  29
ATOM     29  C   UNL     1      -0.017   1.395   0.010  0.00  0.00    +0.418 C 
ATOM     30  F   UNL     1       0.002  -0.004   0.002  0.00  0.00    -0.166 F 
ATOM     31  F   UNL     1       1.296   1.879  -0.000  0.00  0.00    -0.166 F 
ATOM     32  F   UNL     1      -0.694   1.858  -1.124  0.00  0.00    -0.166 F 
ENDBRANCH   3  29
TORSDOF 4
