REMARK  Name = ZINC21866907
REMARK  6 active torsions:
REMARK  status: ('A' for Active; 'I' for Inactive)
REMARK    1  A    between atoms: C_1  and  C_2
REMARK    2  A    between atoms: N_4  and  C_5
REMARK    3  A    between atoms: N_16  and  C_28
REMARK    4  A    between atoms: C_17  and  C_19
REMARK    5  A    between atoms: C_17  and  C_20
REMARK    6  A    between atoms: N_22  and  C_23
REMARK                            x       y       z     vdW  Elec       q    Type
REMARK                         _______ _______ _______ _____ _____    ______ ____
ROOT
ATOM      1  C   UNL     1       1.814   3.244   0.406  0.00  0.00    +0.072 A 
ATOM      2  C   UNL     1       3.063   3.101   1.139  0.00  0.00    +0.022 A 
ATOM      3  C   UNL     1       3.753   3.978   1.984  0.00  0.00    +0.012 A 
ATOM      4  C   UNL     1       4.924   3.519   2.532  0.00  0.00    +0.001 A 
ATOM      5  C   UNL     1       5.410   2.248   2.269  0.00  0.00    +0.002 A 
ATOM      6  C   UNL     1       4.752   1.362   1.437  0.00  0.00    +0.026 A 
ATOM      7  C   UNL     1       3.557   1.799   0.861  0.00  0.00    +0.052 A 
ATOM      8  N   UNL     1       2.689   1.194   0.013  0.00  0.00    -0.332 N 
ATOM      9  C   UNL     1       1.619   2.061  -0.255  0.00  0.00    +0.127 A 
ATOM     10  C   UNL     1       0.516   1.646  -1.128  0.00  0.00    +0.266 C 
ATOM     11  O   UNL     1      -0.324   2.437  -1.518  0.00  0.00    -0.268 OA
ATOM     12  N   UNL     1       0.483   0.341  -1.482  0.00  0.00    -0.278 N 
ATOM     13  C   UNL     1       1.335  -0.653  -0.840  0.00  0.00    +0.129 C 
ATOM     14  C   UNL     1       2.754  -0.141  -0.597  0.00  0.00    +0.157 C 
ATOM     15  C   UNL     1       0.714  -1.043   0.503  0.00  0.00    +0.043 C 
ENDROOT
BRANCH   1  19
ATOM     16  C   UNL     1       0.621   6.800   0.190  0.00  0.00    +0.109 C 
ATOM     17  C   UNL     1       1.516   5.597   0.344  0.00  0.00    +0.214 C 
ATOM     18  O   UNL     1       2.717   5.742   0.435  0.00  0.00    -0.276 OA
ATOM     19  N   UNL     1       0.983   4.360   0.382  0.00  0.00    -0.283 N 
ATOM     20  H   UNL     1      -0.110   4.233   0.394  0.00  0.00    +0.155 HD
ENDBRANCH   1  19
BRANCH  12  21
ATOM     21  C   UNL     1      -0.434  -0.086  -2.541  0.00  0.00    +0.078 C 
ATOM     22  C   UNL     1      -0.148   0.699  -3.838  0.00  0.00    +0.022 C 
ATOM     23  C   UNL     1      -1.549   0.936  -4.455  0.00  0.00    +0.002 C 
ATOM     24  C   UNL     1      -2.431   1.206  -3.211  0.00  0.00    +0.002 C 
ATOM     25  C   UNL     1      -1.885   0.236  -2.143  0.00  0.00    +0.022 C 
ENDBRANCH  12  21
BRANCH  13  26
ATOM     26  C   UNL     1       1.403  -1.877  -1.716  0.00  0.00    +0.238 C 
ATOM     27  O   UNL     1       1.305  -2.981  -1.225  0.00  0.00    -0.273 OA
ATOM     28  N   UNL     1       1.571  -1.744  -3.047  0.00  0.00    -0.311 N 
ATOM     29  H   UNL     1       1.741  -0.749  -3.484  0.00  0.00    +0.149 HD
BRANCH  28  30
ATOM     30  C   UNL     1       1.527  -2.926  -3.912  0.00  0.00    +0.073 C 
ATOM     31  C   UNL     1       2.931  -3.556  -4.017  0.00  0.00    +0.022 C 
ATOM     32  C   UNL     1       3.021  -4.041  -5.486  0.00  0.00    +0.002 C 
ATOM     33  C   UNL     1       2.291  -2.917  -6.262  0.00  0.00    +0.002 C 
ATOM     34  C   UNL     1       1.120  -2.519  -5.339  0.00  0.00    +0.022 C 
ENDBRANCH  28  30
ENDBRANCH  13  26
TORSDOF 4
