REMARK  Name = ZINC58146762
REMARK  13 active torsions:
REMARK  status: ('A' for Active; 'I' for Inactive)
REMARK    1  A    between atoms: C_1  and  C_2
REMARK    2  A    between atoms: C_5  and  N_9
REMARK    3  A    between atoms: C_6  and  C_8
REMARK    4  A    between atoms: N_9  and  S_10
REMARK    5  A    between atoms: S_10  and  C_13
REMARK    6  A    between atoms: C_16  and  N_22
REMARK    7  A    between atoms: C_17  and  N_19
REMARK    8  A    between atoms: N_22  and  C_23
REMARK    9  A    between atoms: C_23  and  C_24
REMARK   10  A    between atoms: C_24  and  C_26
REMARK   11  A    between atoms: C_24  and  C_27
REMARK   12  A    between atoms: C_27  and  N_28
REMARK   13  A    between atoms: C_32  and  C_33
REMARK                            x       y       z     vdW  Elec       q    Type
REMARK                         _______ _______ _______ _____ _____    ______ ____
ROOT
ATOM      1  C   UNL     1       2.523  -4.732  -1.168  0.00  0.00    +0.111 A 
ATOM      2  C   UNL     1       3.115  -3.626  -1.751  0.00  0.00    +0.031 A 
ATOM      3  C   UNL     1       4.469  -3.406  -1.599  0.00  0.00    +0.027 A 
ATOM      4  C   UNL     1       5.238  -4.296  -0.860  0.00  0.00    +0.058 A 
ATOM      5  C   UNL     1       4.640  -5.406  -0.276  0.00  0.00    +0.149 A 
ATOM      6  C   UNL     1       3.284  -5.617  -0.427  0.00  0.00    +0.063 A 
ENDROOT
BRANCH   1   7
ATOM      7  S   UNL     1       0.793  -5.009  -1.363  0.00  0.00    +0.072 S 
ATOM      8  O   UNL     1       0.581  -6.401  -1.173  0.00  0.00    -0.150 OA
ATOM      9  O   UNL     1       0.406  -4.335  -2.553  0.00  0.00    -0.150 OA
BRANCH   7  10
ATOM     10  N   UNL     1       0.030  -4.238  -0.113  0.00  0.00    -0.216 N 
ATOM     11  H   UNL     1      -0.514  -4.745   0.510  0.00  0.00    +0.174 HD
BRANCH  10  16
ATOM     12  C   UNL     1       0.592   1.368   0.530  0.00  0.00    +0.044 C 
ATOM     13  C   UNL     1       0.443  -0.121   0.359  0.00  0.00    -0.050 A 
ATOM     14  C   UNL     1       0.390  -0.669  -0.910  0.00  0.00    +0.005 A 
ATOM     15  C   UNL     1       0.253  -2.033  -1.070  0.00  0.00    +0.025 A 
ATOM     16  C   UNL     1       0.169  -2.857   0.046  0.00  0.00    +0.051 A 
ATOM     17  C   UNL     1       0.222  -2.304   1.319  0.00  0.00    -0.028 A 
ATOM     18  C   UNL     1       0.365  -0.939   1.472  0.00  0.00    +0.008 A 
ATOM     19  C   UNL     1       0.131  -3.194   2.532  0.00  0.00    +0.046 C 
ENDBRANCH  10  16
ENDBRANCH   7  10
ENDBRANCH   1   7
BRANCH   5  20
ATOM     20  N   UNL     1       5.455  -6.357   0.512  0.00  0.00    +0.058 N 
ATOM     21  O   UNL     1       6.581  -6.624   0.161  0.00  0.00    -0.126 OA
ATOM     22  O   UNL     1       4.995  -6.869   1.506  0.00  0.00    -0.126 OA
ENDBRANCH   5  20
BRANCH   4  23
ATOM     23  N   UNL     1       6.608  -4.077  -0.705  0.00  0.00    -0.342 N 
ATOM     24  H   UNL     1       7.156  -4.734  -0.248  0.00  0.00    +0.146 HD
BRANCH  23  25
ATOM     25  C   UNL     1       7.219  -2.854  -1.234  0.00  0.00    +0.106 C 
BRANCH  25  26
ATOM     26  C   UNL     1       8.719  -2.862  -0.933  0.00  0.00    +0.023 C 
ATOM     27  C   UNL     1       8.935  -2.801   0.581  0.00  0.00    +0.011 C 
BRANCH  26  28
ATOM     28  C   UNL     1       9.377  -1.648  -1.591  0.00  0.00    +0.127 C 
BRANCH  28  29
ATOM     29  N   UNL     1      10.829  -1.718  -1.405  0.00  0.00    -0.336 N 
ATOM     30  C   UNL     1      11.549  -1.119  -0.407  0.00  0.00    +0.104 A 
ATOM     31  C   UNL     1      12.841  -1.442  -0.611  0.00  0.00    +0.101 A 
ATOM     32  N   UNL     1      12.907  -2.218  -1.703  0.00  0.00    -0.350 N 
ATOM     33  C   UNL     1      11.705  -2.391  -2.181  0.00  0.00    +0.084 A 
ATOM     34  C   UNL     1      11.354  -3.205  -3.400  0.00  0.00    +0.084 C 
ATOM     35  H   UNL     1      13.719  -2.593  -2.077  0.00  0.00    +0.166 HD
ENDBRANCH  28  29
ENDBRANCH  26  28
ENDBRANCH  25  26
ENDBRANCH  23  25
ENDBRANCH   4  23
TORSDOF 9
