REMARK  Name = ZINC08901434
REMARK  10 active torsions:
REMARK  status: ('A' for Active; 'I' for Inactive)
REMARK    1  A    between atoms: C_1  and  C_2
REMARK    2  A    between atoms: C_4  and  O_27
REMARK    3  A    between atoms: C_5  and  S_9
REMARK    4  A    between atoms: C_7  and  C_8
REMARK    5  A    between atoms: S_9  and  N_12
REMARK    6  A    between atoms: N_12  and  C_13
REMARK    7  A    between atoms: C_13  and  C_14
REMARK    8  A    between atoms: C_14  and  C_16
REMARK    9  A    between atoms: C_14  and  N_58
REMARK   10  A    between atoms: O_27  and  C_28
REMARK                            x       y       z     vdW  Elec       q    Type
REMARK                         _______ _______ _______ _____ _____    ______ ____
ROOT
ATOM      1  N   UNL     1       5.627   0.549  -1.558  0.00  0.00    -0.191 NA
ATOM      2  H   UNL     1       6.153   0.459  -0.748  0.00  0.00    +0.148 HD
ENDROOT
BRANCH   1   3
ATOM      3  S   UNL     1       6.367   0.472  -3.038  0.00  0.00    +0.062 S 
ATOM      4  O   UNL     1       7.756   0.299  -2.789  0.00  0.00    -0.153 OA
ATOM      5  O   UNL     1       5.614  -0.442  -3.822  0.00  0.00    -0.153 OA
BRANCH   3  10
ATOM      6  C   UNL     1       5.748   5.891  -5.628  0.00  0.00    +0.044 C 
ATOM      7  C   UNL     1       5.900   4.538  -4.981  0.00  0.00    -0.044 A 
ATOM      8  C   UNL     1       4.783   3.764  -4.731  0.00  0.00    +0.051 A 
ATOM      9  C   UNL     1       4.923   2.518  -4.136  0.00  0.00    +0.147 A 
ATOM     10  C   UNL     1       6.185   2.054  -3.793  0.00  0.00    +0.147 A 
ATOM     11  C   UNL     1       7.298   2.834  -4.041  0.00  0.00    +0.036 A 
ATOM     12  C   UNL     1       7.156   4.072  -4.640  0.00  0.00    -0.045 A 
ATOM     13  C   UNL     1       8.372   4.919  -4.915  0.00  0.00    +0.044 C 
BRANCH   9  14
ATOM     14  O   UNL     1       3.827   1.755  -3.889  0.00  0.00    -0.493 OA
ATOM     15  C   UNL     1       2.560   2.297  -4.268  0.00  0.00    +0.277 C 
ENDBRANCH   9  14
ENDBRANCH   3  10
ENDBRANCH   1   3
BRANCH   1  16
ATOM     16  C   UNL     1       4.179   0.752  -1.473  0.00  0.00    +0.095 C 
BRANCH  16  17
ATOM     17  C   UNL     1       3.703   0.441  -0.053  0.00  0.00    -0.021 C 
BRANCH  17  24
ATOM     18  C   UNL     1       5.625   1.621   0.852  0.00  0.00    -0.078 C 
ATOM     19  C   UNL     1       6.144   2.499   1.958  0.00  0.00    -0.019 C 
ATOM     20  C   UNL     1       6.498   1.608   3.166  0.00  0.00    -0.002 C 
ATOM     21  C   UNL     1       5.315   1.215   3.925  0.00  0.00    -0.002 C 
ATOM     22  C   UNL     1       4.323   0.394   3.075  0.00  0.00    -0.019 C 
ATOM     23  C   UNL     1       3.548   1.341   2.199  0.00  0.00    -0.078 C 
ATOM     24  N   UNL     1       4.124   1.543   0.826  0.00  0.00    +0.385 N 
ATOM     25  H   UNL     1       3.760   2.426   0.449  0.00  0.00    -0.081 HD
ENDBRANCH  17  24
BRANCH  17  26
ATOM     26  C   UNL     1       2.198   0.363  -0.034  0.00  0.00    -0.053 A 
ATOM     27  C   UNL     1       1.559  -0.863  -0.054  0.00  0.00    +0.009 A 
ATOM     28  C   UNL     1       0.204  -0.898  -0.036  0.00  0.00    +0.045 A 
ATOM     29  S   UNL     1      -0.210   0.838   0.011  0.00  0.00    -0.105 S 
ATOM     30  C   UNL     1       1.451   1.493   0.004  0.00  0.00    +0.047 A 
ENDBRANCH  17  26
ENDBRANCH  16  17
ENDBRANCH   1  16
TORSDOF 7
