REMARK  Name = ZINC28535766
REMARK  5 active torsions:
REMARK  status: ('A' for Active; 'I' for Inactive)
REMARK    1  A    between atoms: C_4  and  C_7
REMARK    2  A    between atoms: C_7  and  S_8
REMARK    3  A    between atoms: S_8  and  C_9
REMARK    4  A    between atoms: N_15  and  N_16
REMARK    5  A    between atoms: N_17  and  C_18
REMARK                            x       y       z     vdW  Elec       q    Type
REMARK                         _______ _______ _______ _____ _____    ______ ____
ROOT
ATOM      1  C   UNL     1      -1.821  -0.317  -0.793  0.00  0.00    +0.210 A 
ATOM      2  N   UNL     1      -2.646   0.680  -0.537  0.00  0.00    -0.121 NA
ATOM      3  N   UNL     1      -3.889   0.490  -0.275  0.00  0.00    -0.126 NA
ATOM      4  C   UNL     1      -4.405  -0.720  -0.239  0.00  0.00    +0.212 A 
ATOM      5  C   UNL     1      -3.570  -1.839  -0.500  0.00  0.00    +0.312 A 
ATOM      6  O   UNL     1      -4.015  -2.974  -0.476  0.00  0.00    -0.262 OA
ATOM      7  N   UNL     1      -2.266  -1.607  -0.778  0.00  0.00    -0.205 N 
ATOM      8  N   UNL     1      -5.757  -0.902   0.054  0.00  0.00    -0.292 N 
ATOM      9  H   UNL     1      -6.159  -1.917   0.190  0.00  0.00    +0.154 HD
ENDROOT
BRANCH   8  10
ATOM     10  C   UNL     1      -6.601   0.205   0.174  0.00  0.00    +0.051 A 
ATOM     11  C   UNL     1      -6.252   1.414  -0.415  0.00  0.00    +0.025 A 
ATOM     12  C   UNL     1      -7.091   2.505  -0.298  0.00  0.00    +0.002 A 
ATOM     13  C   UNL     1      -8.273   2.398   0.412  0.00  0.00    +0.002 A 
ATOM     14  C   UNL     1      -8.622   1.198   1.004  0.00  0.00    +0.022 A 
ATOM     15  C   UNL     1      -7.790   0.101   0.887  0.00  0.00    +0.062 A 
ATOM     16 CL   UNL     1      -8.229  -1.405   1.631  0.00  0.00    -0.082 Cl
ENDBRANCH   8  10
BRANCH   7  17
ATOM     17  N   UNL     1      -1.413  -2.643  -1.038  0.00  0.00    -0.293 N 
ATOM     18  H   UNL     1      -1.784  -3.678  -1.023  0.00  0.00    +0.163 HD
ATOM     19  H   UNL     1      -0.355  -2.441  -1.262  0.00  0.00    +0.163 HD
ENDBRANCH   7  17
BRANCH   1  20
ATOM     20  S   UNL     1      -0.129   0.020  -1.151  0.00  0.00    -0.080 S 
BRANCH  20  21
ATOM     21  C   UNL     1      -0.136   1.826  -1.031  0.00  0.00    +0.112 C 
BRANCH  21  25
ATOM     22  C   UNL     1       3.789   3.320  -1.814  0.00  0.00    +0.000 A 
ATOM     23  C   UNL     1       2.892   3.155  -2.853  0.00  0.00    +0.000 A 
ATOM     24  C   UNL     1       1.622   2.671  -2.599  0.00  0.00    +0.004 A 
ATOM     25  C   UNL     1       1.249   2.353  -1.307  0.00  0.00    -0.037 A 
ATOM     26  C   UNL     1       2.144   2.523  -0.267  0.00  0.00    +0.004 A 
ATOM     27  C   UNL     1       3.416   3.001  -0.521  0.00  0.00    +0.000 A 
ENDBRANCH  21  25
ENDBRANCH  20  21
ENDBRANCH   1  20
TORSDOF 5
