REMARK  Name = ZINC37305930
REMARK  5 active torsions:
REMARK  status: ('A' for Active; 'I' for Inactive)
REMARK    1  A    between atoms: C_1  and  C_2
REMARK    2  A    between atoms: C_2  and  C_4
REMARK    3  A    between atoms: C_2  and  N_10
REMARK    4  A    between atoms: N_10  and  C_11
REMARK    5  A    between atoms: C_14  and  C_17
REMARK                            x       y       z     vdW  Elec       q    Type
REMARK                         _______ _______ _______ _____ _____    ______ ____
ROOT
ATOM      1  N   UNL     1       0.655  -0.596   1.177  0.00  0.00    +0.386 N 
ATOM      2  H   UNL     1       0.828  -1.587   1.101  0.00  0.00    -0.085 HD
ATOM      3  H   UNL     1       1.535  -0.106   1.250  0.00  0.00    -0.085 HD
ENDROOT
BRANCH   1   4
ATOM      4  C   UNL     1      -0.154  -0.330   2.373  0.00  0.00    -0.071 C 
ATOM      5  C   UNL     1      -0.289   1.181   2.572  0.00  0.00    -0.015 C 
ATOM      6  C   UNL     1       1.099   1.798   2.749  0.00  0.00    +0.011 C 
ATOM      7  C   UNL     1       1.780   1.181   3.973  0.00  0.00    +0.093 C 
ATOM      8  C   UNL     1       1.915  -0.330   3.774  0.00  0.00    +0.011 C 
ATOM      9  C   UNL     1       0.526  -0.947   3.597  0.00  0.00    -0.015 C 
BRANCH   7  10
ATOM     10  C   UNL     1       3.169   1.799   4.149  0.00  0.00    +0.393 C 
ATOM     11  F   UNL     1       3.045   3.181   4.331  0.00  0.00    -0.170 F 
ATOM     12  F   UNL     1       3.791   1.235   5.268  0.00  0.00    -0.170 F 
ATOM     13  F   UNL     1       3.940   1.546   3.010  0.00  0.00    -0.170 F 
ENDBRANCH   7  10
ENDBRANCH   1   4
BRANCH   1  15
ATOM     14  C   UNL     1       0.832  -0.281  -1.245  0.00  0.00    -0.008 C 
ATOM     15  C   UNL     1      -0.066  -0.132  -0.015  0.00  0.00    -0.036 C 
BRANCH  15  16
ATOM     16  C   UNL     1      -1.313  -0.957  -0.201  0.00  0.00    -0.010 A 
ATOM     17  C   UNL     1      -2.570  -0.548  -0.502  0.00  0.00    +0.026 A 
ATOM     18  C   UNL     1      -3.571  -1.494  -0.625  0.00  0.00    +0.023 A 
ATOM     19  C   UNL     1      -3.265  -2.801  -0.443  0.00  0.00    +0.046 A 
ATOM     20  S   UNL     1      -1.517  -2.727  -0.091  0.00  0.00    -0.102 S 
ATOM     21 BR   UNL     1      -2.950   1.289  -0.747  0.00  0.00    -0.050 Br
ENDBRANCH  15  16
ENDBRANCH   1  15
TORSDOF 4
