REMARK  Name = ZINC01342999
REMARK  5 active torsions:
REMARK  status: ('A' for Active; 'I' for Inactive)
REMARK    1  A    between atoms: C_1  and  C_2
REMARK    2  A    between atoms: C_4  and  C_26
REMARK    3  A    between atoms: C_8  and  N_25
REMARK    4  A    between atoms: C_9  and  C_15
REMARK    5  A    between atoms: C_21  and  C_24
REMARK                            x       y       z     vdW  Elec       q    Type
REMARK                         _______ _______ _______ _____ _____    ______ ____
ROOT
ATOM      1  C   UNL     1      -9.346  -4.205   1.339  0.00  0.00    +0.044 C 
ATOM      2  C   UNL     1      -7.931  -4.050   1.833  0.00  0.00    -0.048 A 
ATOM      3  C   UNL     1      -7.538  -4.695   3.006  0.00  0.00    +0.007 A 
ATOM      4  C   UNL     1      -6.269  -4.575   3.478  0.00  0.00    -0.041 A 
ATOM      5  C   UNL     1      -5.333  -3.790   2.777  0.00  0.00    +0.004 A 
ATOM      6  C   UNL     1      -4.020  -3.650   3.240  0.00  0.00    +0.022 A 
ATOM      7  C   UNL     1      -3.121  -2.857   2.506  0.00  0.00    +0.030 A 
ATOM      8  C   UNL     1      -1.720  -2.578   2.796  0.00  0.00    +0.053 A 
ATOM      9  C   UNL     1      -1.023  -1.763   1.935  0.00  0.00    +0.097 A 
ATOM     10  S   UNL     1      -2.226  -1.346   0.688  0.00  0.00    -0.062 S 
ATOM     11  C   UNL     1      -3.621  -2.244   1.324  0.00  0.00    +0.111 A 
ATOM     12  N   UNL     1      -4.854  -2.388   0.909  0.00  0.00    -0.239 NA
ATOM     13  C   UNL     1      -5.733  -3.135   1.583  0.00  0.00    +0.073 A 
ATOM     14  C   UNL     1      -7.055  -3.284   1.127  0.00  0.00    +0.031 A 
ATOM     15  C   UNL     1      -5.865  -5.279   4.748  0.00  0.00    +0.044 C 
ENDROOT
BRANCH   9  16
ATOM     16  C   UNL     1       0.332  -1.357   2.016  0.00  0.00    +0.255 C 
ATOM     17  O   UNL     1       1.202  -2.179   2.235  0.00  0.00    -0.269 OA
ATOM     18  N   UNL     1       0.657  -0.059   1.851  0.00  0.00    -0.297 N 
ATOM     19  C   UNL     1      -0.369   0.930   1.495  0.00  0.00    +0.108 C 
ATOM     20  C   UNL     1      -0.321   2.078   2.509  0.00  0.00    +0.019 C 
ATOM     21  C   UNL     1       1.101   2.640   2.569  0.00  0.00    +0.006 C 
ATOM     22  C   UNL     1       2.066   1.546   3.031  0.00  0.00    +0.003 C 
ATOM     23  C   UNL     1       2.044   0.393   2.023  0.00  0.00    +0.111 C 
ATOM     24  C   UNL     1       3.482   2.118   3.122  0.00  0.00    +0.009 C 
ENDBRANCH   9  16
BRANCH   8  25
ATOM     25  N   UNL     1      -1.105  -3.119   3.915  0.00  0.00    -0.356 N 
ATOM     26  H   UNL     1      -0.173  -2.924   4.098  0.00  0.00    +0.142 HD
ATOM     27  H   UNL     1      -1.607  -3.693   4.515  0.00  0.00    +0.142 HD
ENDBRANCH   8  25
TORSDOF 2
