REMARK  Name = ZINC26690394
REMARK  8 active torsions:
REMARK  status: ('A' for Active; 'I' for Inactive)
REMARK    1  A    between atoms: C_1  and  C_2
REMARK    2  A    between atoms: C_2  and  C_3
REMARK    3  A    between atoms: C_2  and  C_4
REMARK    4  A    between atoms: C_4  and  C_6
REMARK    5  A    between atoms: C_4  and  N_21
REMARK    6  A    between atoms: N_8  and  N_9
REMARK    7  A    between atoms: C_10  and  C_12
REMARK    8  A    between atoms: C_22  and  C_24
REMARK                            x       y       z     vdW  Elec       q    Type
REMARK                         _______ _______ _______ _____ _____    ______ ____
ROOT
ATOM      1  C   UNL     1       7.196  -3.022   3.941  0.00  0.00    +0.250 C 
ATOM      2  O   UNL     1       6.587  -3.956   3.463  0.00  0.00    -0.272 OA
ATOM      3  N   UNL     1       6.595  -1.824   4.077  0.00  0.00    -0.233 N 
ATOM      4  H   UNL     1       7.120  -0.999   4.580  0.00  0.00    +0.173 HD
ENDROOT
BRANCH   3   5
ATOM      5  N   UNL     1       5.300  -1.629   3.578  0.00  0.00    -0.230 N 
ATOM      6  C   UNL     1       4.699  -0.431   3.715  0.00  0.00    +0.260 C 
ATOM      7  O   UNL     1       5.280   0.481   4.270  0.00  0.00    -0.269 OA
ATOM      8  H   UNL     1       4.775  -2.454   3.075  0.00  0.00    +0.173 HD
BRANCH   6   9
ATOM      9  C   UNL     1       3.335  -0.226   3.189  0.00  0.00    +0.042 A 
ATOM     10  C   UNL     1       2.666  -1.272   2.550  0.00  0.00    +0.017 A 
ATOM     11  C   UNL     1       1.393  -1.079   2.060  0.00  0.00    +0.050 A 
ATOM     12  C   UNL     1       0.770   0.154   2.198  0.00  0.00    +0.166 A 
ATOM     13  C   UNL     1       1.433   1.204   2.836  0.00  0.00    +0.167 A 
ATOM     14  C   UNL     1       2.710   1.016   3.329  0.00  0.00    +0.062 A 
ATOM     15  O   UNL     1       0.614   2.296   2.841  0.00  0.00    -0.453 OA
ATOM     16  C   UNL     1      -0.705   1.788   2.569  0.00  0.00    +0.466 C 
ATOM     17  O   UNL     1      -0.460   0.592   1.807  0.00  0.00    -0.453 OA
ENDBRANCH   6   9
ENDBRANCH   3   5
BRANCH   1  18
ATOM     18  C   UNL     1       8.626  -3.203   4.383  0.00  0.00    +0.163 C 
BRANCH  18  19
ATOM     19  N   UNL     1       8.847  -4.600   4.763  0.00  0.00    -0.300 N 
ATOM     20  C   UNL     1       9.827  -4.914   5.633  0.00  0.00    +0.246 C 
ATOM     21  O   UNL     1      10.527  -4.038   6.103  0.00  0.00    -0.270 OA
ATOM     22  H   UNL     1       8.214  -5.393   4.338  0.00  0.00    +0.150 HD
BRANCH  20  23
ATOM     23  C   UNL     1      10.050  -6.324   6.017  0.00  0.00    +0.055 A 
ATOM     24  C   UNL     1       9.244  -7.332   5.484  0.00  0.00    +0.014 A 
ATOM     25  C   UNL     1       9.461  -8.646   5.842  0.00  0.00    +0.001 A 
ATOM     26  C   UNL     1      10.468  -8.966   6.736  0.00  0.00    +0.001 A 
ATOM     27  C   UNL     1      11.267  -7.973   7.273  0.00  0.00    +0.021 A 
ATOM     28  C   UNL     1      11.064  -6.653   6.919  0.00  0.00    +0.053 A 
ATOM     29 CL   UNL     1      12.067  -5.408   7.594  0.00  0.00    -0.083 Cl
ENDBRANCH  20  23
ENDBRANCH  18  19
BRANCH  18  31
ATOM     30  C   UNL     1       9.370  -1.359   2.870  0.00  0.00    +0.009 C 
ATOM     31  C   UNL     1       9.565  -2.832   3.233  0.00  0.00    +0.012 C 
ATOM     32  C   UNL     1      11.015  -3.064   3.664  0.00  0.00    +0.009 C 
ENDBRANCH  18  31
ENDBRANCH   1  18
TORSDOF 6
