REMARK  Name = ZINC12151545
REMARK  14 active torsions:
REMARK  status: ('A' for Active; 'I' for Inactive)
REMARK    1  A    between atoms: C_1  and  C_2
REMARK    2  A    between atoms: C_2  and  N_3
REMARK    3  A    between atoms: C_5  and  C_23
REMARK    4  A    between atoms: C_7  and  N_19
REMARK    5  A    between atoms: C_11  and  C_12
REMARK    6  A    between atoms: C_20  and  C_22
REMARK    7  A    between atoms: N_25  and  C_26
REMARK    8  A    between atoms: C_26  and  C_28
REMARK    9  A    between atoms: C_26  and  C_32
REMARK   10  A    between atoms: C_28  and  C_29
REMARK   11  A    between atoms: C_29  and  S_30
REMARK   12  A    between atoms: S_30  and  C_31
REMARK   13  A    between atoms: C_32  and  O_34
REMARK   14  A    between atoms: O_34  and  C_35
REMARK                            x       y       z     vdW  Elec       q    Type
REMARK                         _______ _______ _______ _____ _____    ______ ____
ROOT
ATOM      1  N   UNL     1       3.244   6.065   1.284  0.00  0.00    -0.323 N 
ATOM      2  C   UNL     1       4.450   6.133   0.622  0.00  0.00    +0.081 A 
ATOM      3  C   UNL     1       5.160   7.171   0.004  0.00  0.00    +0.064 A 
ATOM      4  C   UNL     1       6.387   6.902  -0.601  0.00  0.00    +0.038 A 
ATOM      5  C   UNL     1       6.904   5.613  -0.590  0.00  0.00    +0.036 A 
ATOM      6  C   UNL     1       6.210   4.581   0.018  0.00  0.00    +0.053 A 
ATOM      7  C   UNL     1       4.978   4.831   0.629  0.00  0.00    +0.092 A 
ATOM      8  N   UNL     1       4.091   4.043   1.287  0.00  0.00    -0.227 NA
ATOM      9  C   UNL     1       3.070   4.765   1.678  0.00  0.00    +0.145 A 
ENDROOT
BRANCH   9  10
ATOM     10  C   UNL     1       1.902   4.253   2.425  0.00  0.00    +0.053 A 
ATOM     11  C   UNL     1       1.423   4.946   3.538  0.00  0.00    +0.014 A 
ATOM     12  C   UNL     1       0.333   4.462   4.232  0.00  0.00    +0.001 A 
ATOM     13  C   UNL     1      -0.283   3.289   3.831  0.00  0.00    +0.003 A 
ATOM     14  C   UNL     1       0.182   2.599   2.727  0.00  0.00    +0.039 A 
ATOM     15  C   UNL     1       1.273   3.072   2.022  0.00  0.00    +0.134 A 
ATOM     16  F   UNL     1       1.730   2.394   0.946  0.00  0.00    -0.205 F 
ENDBRANCH   9  10
BRANCH   5  17
ATOM     17  N   UNL     1       8.138   5.354  -1.202  0.00  0.00    -0.286 N 
ATOM     18  C   UNL     1       8.400   4.130  -1.700  0.00  0.00    +0.214 C 
ATOM     19  O   UNL     1       7.522   3.295  -1.750  0.00  0.00    -0.276 OA
ATOM     20  C   UNL     1       9.785   3.797  -2.193  0.00  0.00    +0.109 C 
ATOM     21  H   UNL     1       8.804   6.057  -1.267  0.00  0.00    +0.155 HD
ENDBRANCH   5  17
BRANCH   3  22
ATOM     22  C   UNL     1       4.612   8.541  -0.007  0.00  0.00    +0.247 C 
ATOM     23  O   UNL     1       3.419   8.717  -0.157  0.00  0.00    -0.270 OA
ATOM     24  N   UNL     1       5.435   9.597   0.149  0.00  0.00    -0.298 N 
ATOM     25  H   UNL     1       6.387   9.457   0.269  0.00  0.00    +0.150 HD
BRANCH  24  26
ATOM     26  C   UNL     1       4.891  10.957   0.138  0.00  0.00    +0.183 C 
BRANCH  26  27
ATOM     27  C   UNL     1       4.776  11.441  -1.284  0.00  0.00    +0.327 C 
ATOM     28  O   UNL     1       5.114  10.723  -2.196  0.00  0.00    -0.249 OA
BRANCH  27  29
ATOM     29  O   UNL     1       4.298  12.669  -1.539  0.00  0.00    -0.467 OA
ATOM     30  C   UNL     1       4.215  13.069  -2.933  0.00  0.00    +0.280 C 
ENDBRANCH  27  29
ENDBRANCH  26  27
BRANCH  26  31
ATOM     31  C   UNL     1       5.824  11.886   0.919  0.00  0.00    +0.044 C 
BRANCH  31  32
ATOM     32  C   UNL     1       5.843  11.470   2.391  0.00  0.00    +0.071 C 
BRANCH  32  33
ATOM     33  S   UNL     1       6.949  12.570   3.316  0.00  0.00    -0.164 S 
ATOM     34  C   UNL     1       6.861  11.951   5.019  0.00  0.00    +0.084 C 
ENDBRANCH  32  33
ENDBRANCH  31  32
ENDBRANCH  26  31
ENDBRANCH  24  26
ENDBRANCH   3  22
BRANCH   1  36
ATOM     35  C   UNL     1       1.207   7.151   0.478  0.00  0.00    +0.027 C 
ATOM     36  C   UNL     1       2.322   7.177   1.525  0.00  0.00    +0.120 C 
ENDBRANCH   1  36
TORSDOF 10
