REMARK  Name = ZINC35788988
REMARK  17 active torsions:
REMARK  status: ('A' for Active; 'I' for Inactive)
REMARK    1  A    between atoms: C_1  and  C_2
REMARK    2  A    between atoms: C_5  and  O_8
REMARK    3  A    between atoms: O_8  and  C_9
REMARK    4  A    between atoms: C_10  and  C_21
REMARK    5  A    between atoms: C_11  and  C_20
REMARK    6  A    between atoms: N_13  and  C_14
REMARK    7  A    between atoms: C_21  and  N_22
REMARK    8  A    between atoms: N_22  and  C_23
REMARK    9  A    between atoms: N_22  and  C_35
REMARK   10  A    between atoms: C_23  and  C_24
REMARK   11  A    between atoms: C_24  and  C_26
REMARK   12  A    between atoms: C_24  and  O_34
REMARK   13  A    between atoms: C_26  and  O_27
REMARK   14  A    between atoms: O_27  and  C_28
REMARK   15  A    between atoms: C_35  and  C_36
REMARK   16  A    between atoms: C_36  and  C_37
REMARK   17  A    between atoms: C_36  and  C_38
REMARK                            x       y       z     vdW  Elec       q    Type
REMARK                         _______ _______ _______ _____ _____    ______ ____
ROOT
ATOM      1  C   UNL     1       0.706  -4.225   0.848  0.00  0.00    +0.225 A 
ATOM      2  C   UNL     1       0.561  -5.507   1.278  0.00  0.00    +0.021 A 
ATOM      3  C   UNL     1       0.815  -5.531   2.652  0.00  0.00    +0.065 A 
ATOM      4  N   UNL     1       1.102  -4.315   3.042  0.00  0.00    -0.168 NA
ATOM      5  N   UNL     1       1.047  -3.469   1.926  0.00  0.00    -0.200 N 
ATOM      6  C   UNL     1       0.766  -6.750   3.536  0.00  0.00    +0.068 C 
ENDROOT
BRANCH   5   7
ATOM      7  C   UNL     1       1.296  -2.090   1.922  0.00  0.00    +0.069 A 
ATOM      8  C   UNL     1       2.032  -1.519   0.892  0.00  0.00    +0.028 A 
ATOM      9  C   UNL     1       2.276  -0.159   0.891  0.00  0.00    +0.002 A 
ATOM     10  C   UNL     1       1.788   0.633   1.915  0.00  0.00    +0.000 A 
ATOM     11  C   UNL     1       1.056   0.067   2.942  0.00  0.00    +0.002 A 
ATOM     12  C   UNL     1       0.803  -1.291   2.945  0.00  0.00    +0.028 A 
ENDBRANCH   5   7
BRANCH   1  13
ATOM     13  O   UNL     1       0.545  -3.781  -0.424  0.00  0.00    -0.438 OA
BRANCH  13  18
ATOM     14  C   UNL     1      -4.447  -1.598  -1.852  0.00  0.00    +0.044 C 
ATOM     15  C   UNL     1      -3.111  -2.182  -1.470  0.00  0.00    -0.050 A 
ATOM     16  C   UNL     1      -2.063  -2.154  -2.371  0.00  0.00    +0.007 A 
ATOM     17  C   UNL     1      -0.838  -2.689  -2.023  0.00  0.00    +0.046 A 
ATOM     18  C   UNL     1      -0.659  -3.254  -0.769  0.00  0.00    +0.130 A 
ATOM     19  C   UNL     1      -1.713  -3.281   0.134  0.00  0.00    +0.046 A 
ATOM     20  C   UNL     1      -2.935  -2.740  -0.217  0.00  0.00    +0.007 A 
ENDBRANCH  13  18
ENDBRANCH   1  13
BRANCH   2  21
ATOM     21  C   UNL     1       0.192  -6.692   0.423  0.00  0.00    -0.036 C 
BRANCH  21  22
ATOM     22  N   UNL     1       1.413  -7.313  -0.107  0.00  0.00    +0.384 N 
ATOM     23  H   UNL     1       1.940  -6.628  -0.627  0.00  0.00    -0.081 HD
BRANCH  22  24
ATOM     24  C   UNL     1       1.051  -8.428  -0.992  0.00  0.00    -0.043 C 
BRANCH  24  25
ATOM     25  C   UNL     1       0.356  -7.883  -2.241  0.00  0.00    +0.135 C 
BRANCH  25  26
ATOM     26  O   UNL     1      -0.928  -7.366  -1.884  0.00  0.00    -0.390 OA
ATOM     27  H   UNL     1      -1.520  -8.021  -1.491  0.00  0.00    +0.210 HD
ENDBRANCH  25  26
BRANCH  25  28
ATOM     28  C   UNL     1       0.186  -9.009  -3.263  0.00  0.00    +0.258 C 
BRANCH  28  29
ATOM     29  O   UNL     1      -0.357  -8.477  -4.473  0.00  0.00    -0.489 OA
BRANCH  29  30
ATOM     30  C   UNL     1      -0.571  -9.351  -5.490  0.00  0.00    +0.121 A 
ATOM     31  C   UNL     1      -0.271 -10.696  -5.325  0.00  0.00    +0.045 A 
ATOM     32  C   UNL     1      -0.490 -11.583  -6.361  0.00  0.00    +0.004 A 
ATOM     33  C   UNL     1      -1.008 -11.133  -7.561  0.00  0.00    +0.000 A 
ATOM     34  C   UNL     1      -1.308  -9.793  -7.728  0.00  0.00    +0.004 A 
ATOM     35  C   UNL     1      -1.096  -8.903  -6.693  0.00  0.00    +0.045 A 
ENDBRANCH  29  30
ENDBRANCH  28  29
ENDBRANCH  25  28
ENDBRANCH  24  25
ENDBRANCH  22  24
BRANCH  22  36
ATOM     36  C   UNL     1       2.229  -7.816   1.006  0.00  0.00    -0.075 C 
BRANCH  36  37
ATOM     37  C   UNL     1       3.546  -8.374   0.462  0.00  0.00    -0.034 C 
ATOM     38  C   UNL     1       4.317  -7.260  -0.248  0.00  0.00    +0.005 C 
ATOM     39  C   UNL     1       4.386  -8.919   1.618  0.00  0.00    +0.005 C 
ENDBRANCH  36  37
ENDBRANCH  22  36
ENDBRANCH  21  22
ENDBRANCH   2  21
TORSDOF 13
