REMARK  Name = ZINC33706015
REMARK  15 active torsions:
REMARK  status: ('A' for Active; 'I' for Inactive)
REMARK    1  A    between atoms: C_1  and  C_2
REMARK    2  A    between atoms: C_2  and  C_3
REMARK    3  A    between atoms: C_3  and  N_4
REMARK    4  A    between atoms: C_5  and  C_37
REMARK    5  A    between atoms: C_6  and  C_30
REMARK    6  A    between atoms: C_7  and  C_12
REMARK    7  A    between atoms: C_16  and  N_18
REMARK    8  A    between atoms: N_21  and  C_22
REMARK    9  A    between atoms: C_27  and  O_28
REMARK   10  A    between atoms: O_28  and  C_29
REMARK   11  A    between atoms: C_30  and  O_32
REMARK   12  A    between atoms: O_32  and  C_33
REMARK   13  A    between atoms: C_33  and  C_34
REMARK   14  A    between atoms: C_34  and  O_35
REMARK   15  A    between atoms: O_35  and  C_36
REMARK                            x       y       z     vdW  Elec       q    Type
REMARK                         _______ _______ _______ _____ _____    ______ ____
ROOT
ATOM      1  C   UNL     1      -1.236   1.884   0.023  0.00  0.00    -0.021 A 
ATOM      2  C   UNL     1      -1.273   3.264   0.094  0.00  0.00    +0.006 A 
ATOM      3  C   UNL     1      -0.100   3.994   0.040  0.00  0.00    +0.002 A 
ATOM      4  C   UNL     1       1.113   3.346  -0.081  0.00  0.00    +0.023 A 
ATOM      5  C   UNL     1       1.155   1.960  -0.146  0.00  0.00    +0.035 A 
ATOM      6  C   UNL     1      -0.026   1.229  -0.091  0.00  0.00    +0.029 A 
ENDROOT
BRANCH   1  10
ATOM      7  N   UNL     1      -5.035   2.020  -0.593  0.00  0.00    -0.259 N 
ATOM      8  C   UNL     1      -4.290   1.448  -1.584  0.00  0.00    +0.024 C 
ATOM      9  C   UNL     1      -3.051   0.971  -1.336  0.00  0.00    +0.078 C 
ATOM     10  C   UNL     1      -2.518   1.093   0.077  0.00  0.00    +0.144 C 
ATOM     11  N   UNL     1      -3.401   1.726   1.071  0.00  0.00    -0.288 N 
ATOM     12  C   UNL     1      -4.614   2.153   0.671  0.00  0.00    +0.307 C 
ATOM     13  O   UNL     1      -5.351   2.677   1.484  0.00  0.00    -0.252 OA
ATOM     14  C   UNL     1      -4.859   1.347  -2.975  0.00  0.00    +0.061 C 
ATOM     15  H   UNL     1      -3.064   1.840   2.112  0.00  0.00    +0.151 HD
BRANCH   9  16
ATOM     16  C   UNL     1      -2.277   0.378  -2.361  0.00  0.00    +0.339 C 
ATOM     17  O   UNL     1      -2.726   0.291  -3.489  0.00  0.00    -0.245 OA
BRANCH  16  18
ATOM     18  O   UNL     1      -1.041  -0.091  -2.088  0.00  0.00    -0.459 OA
BRANCH  18  19
ATOM     19  C   UNL     1      -0.316  -0.677  -3.171  0.00  0.00    +0.260 C 
BRANCH  19  20
ATOM     20  C   UNL     1       1.052  -1.147  -2.674  0.00  0.00    +0.200 C 
BRANCH  20  21
ATOM     21  O   UNL     1       0.878  -2.199  -1.723  0.00  0.00    -0.380 OA
ATOM     22  C   UNL     1       2.101  -2.712  -1.193  0.00  0.00    +0.194 C 
ENDBRANCH  20  21
ENDBRANCH  19  20
ENDBRANCH  18  19
ENDBRANCH  16  18
ENDBRANCH   9  16
BRANCH   7  23
ATOM     23  C   UNL     1      -6.371   2.517  -0.933  0.00  0.00    +0.114 C 
BRANCH  23  25
ATOM     24  C   UNL     1      -7.655   4.452  -1.853  0.00  0.00    +0.005 C 
ATOM     25  C   UNL     1      -6.260   3.934  -1.498  0.00  0.00    +0.016 C 
ENDBRANCH  23  25
ENDBRANCH   7  23
ENDBRANCH   1  10
BRANCH   5  26
ATOM     26  N   UNL     1       2.382   1.300  -0.268  0.00  0.00    -0.269 N 
ATOM     27  C   UNL     1       3.379   1.856  -0.984  0.00  0.00    +0.308 C 
ATOM     28  O   UNL     1       3.181   2.882  -1.606  0.00  0.00    -0.252 OA
ATOM     29  N   UNL     1       4.595   1.276  -1.011  0.00  0.00    -0.266 N 
ATOM     30  H   UNL     1       2.534   0.326   0.222  0.00  0.00    +0.156 HD
ATOM     31  H   UNL     1       4.757   0.314  -0.503  0.00  0.00    +0.156 HD
BRANCH  29  32
ATOM     32  C   UNL     1       5.654   1.899  -1.687  0.00  0.00    +0.077 A 
ATOM     33  C   UNL     1       5.393   2.774  -2.731  0.00  0.00    +0.027 A 
ATOM     34  C   UNL     1       6.439   3.389  -3.393  0.00  0.00    +0.002 A 
ATOM     35  C   UNL     1       7.745   3.128  -3.024  0.00  0.00    +0.004 A 
ATOM     36  C   UNL     1       8.012   2.253  -1.987  0.00  0.00    +0.047 A 
ATOM     37  C   UNL     1       6.970   1.635  -1.315  0.00  0.00    +0.141 A 
BRANCH  37  38
ATOM     38  O   UNL     1       7.231   0.774  -0.296  0.00  0.00    -0.493 OA
ATOM     39  C   UNL     1       8.605   0.552   0.029  0.00  0.00    +0.277 C 
ENDBRANCH  37  38
ENDBRANCH  29  32
ENDBRANCH   5  26
TORSDOF 11
