REMARK  Name = ZINC54131318
REMARK  9 active torsions:
REMARK  status: ('A' for Active; 'I' for Inactive)
REMARK    1  A    between atoms: C_1  and  C_2
REMARK    2  A    between atoms: C_2  and  C_3
REMARK    3  A    between atoms: C_2  and  N_4
REMARK    4  A    between atoms: N_4  and  C_5
REMARK    5  A    between atoms: N_4  and  C_6
REMARK    6  A    between atoms: C_6  and  C_7
REMARK    7  A    between atoms: C_7  and  N_8
REMARK    8  A    between atoms: C_16  and  C_17
REMARK    9  A    between atoms: C_17  and  C_18
REMARK                            x       y       z     vdW  Elec       q    Type
REMARK                         _______ _______ _______ _____ _____    ______ ____
ROOT
ATOM      1  N   UNL     1      -4.263   0.034  -2.292  0.00  0.00    -0.329 N 
ATOM      2  C   UNL     1      -4.901   1.252  -2.423  0.00  0.00    +0.069 A 
ATOM      3  C   UNL     1      -5.087   2.340  -1.581  0.00  0.00    +0.029 A 
ATOM      4  C   UNL     1      -5.793   3.438  -2.025  0.00  0.00    +0.022 A 
ATOM      5  C   UNL     1      -6.320   3.464  -3.310  0.00  0.00    +0.043 A 
ATOM      6  C   UNL     1      -6.145   2.394  -4.158  0.00  0.00    +0.050 A 
ATOM      7  C   UNL     1      -5.432   1.273  -3.724  0.00  0.00    +0.091 A 
ATOM      8  N   UNL     1      -5.098   0.093  -4.306  0.00  0.00    -0.232 NA
ATOM      9  C   UNL     1      -4.410  -0.629  -3.470  0.00  0.00    +0.112 A 
ATOM     10 CL   UNL     1      -7.206   4.855  -3.849  0.00  0.00    -0.083 Cl
ENDROOT
BRANCH   1  11
ATOM     11  C   UNL     1      -3.554  -0.451  -1.105  0.00  0.00    +0.105 C 
BRANCH  11  12
ATOM     12  C   UNL     1      -2.087  -0.026  -1.178  0.00  0.00    -0.057 C 
BRANCH  12  13
ATOM     13  N   UNL     1      -1.376  -0.512   0.012  0.00  0.00    +0.380 N 
ATOM     14  C   UNL     1      -1.356  -1.981   0.004  0.00  0.00    -0.096 C 
ATOM     15  H   UNL     1      -1.848  -0.187   0.843  0.00  0.00    -0.082 HD
BRANCH  13  17
ATOM     16  C   UNL     1      -0.019   1.526   0.010  0.00  0.00    -0.014 C 
ATOM     17  C   UNL     1       0.002  -0.004   0.002  0.00  0.00    -0.075 C 
ATOM     18  C   UNL     1       0.742  -0.511   1.242  0.00  0.00    -0.014 C 
ENDBRANCH  13  17
ENDBRANCH  12  13
ENDBRANCH  11  12
ENDBRANCH   1  11
BRANCH   9  19
ATOM     19  C   UNL     1      -3.859  -2.001  -3.763  0.00  0.00    +0.090 C 
BRANCH  19  20
ATOM     20  C   UNL     1      -4.894  -3.059  -3.376  0.00  0.00    +0.116 C 
ATOM     21 CL   UNL     1      -4.236  -4.700  -3.727  0.00  0.00    -0.125 Cl
ENDBRANCH  19  20
ENDBRANCH   9  19
TORSDOF 6
