REMARK  Name = ZINC16044234
REMARK  11 active torsions:
REMARK  status: ('A' for Active; 'I' for Inactive)
REMARK    1  A    between atoms: C_1  and  C_2
REMARK    2  A    between atoms: C_5  and  N_11
REMARK    3  A    between atoms: C_6  and  N_8
REMARK    4  A    between atoms: C_12  and  C_14
REMARK    5  A    between atoms: C_14  and  O_15
REMARK    6  A    between atoms: O_15  and  C_16
REMARK    7  A    between atoms: C_16  and  C_18
REMARK    8  A    between atoms: C_18  and  C_19
REMARK    9  A    between atoms: C_19  and  N_20
REMARK   10  A    between atoms: N_20  and  S_21
REMARK   11  A    between atoms: S_21  and  C_24
REMARK                            x       y       z     vdW  Elec       q    Type
REMARK                         _______ _______ _______ _____ _____    ______ ____
ROOT
ATOM      1  C   UNL     1       3.696   1.554   0.363  0.00  0.00    +0.309 C 
ATOM      2  O   UNL     1       3.693   2.736   0.113  0.00  0.00    -0.251 OA
ENDROOT
BRANCH   1   3
ATOM      3  O   UNL     1       4.851   0.928   0.639  0.00  0.00    -0.455 OA
BRANCH   3   4
ATOM      4  C   UNL     1       6.058   1.735   0.620  0.00  0.00    +0.328 C 
BRANCH   4   6
ATOM      5  N   UNL     1       8.481   1.407   0.992  0.00  0.00    -0.281 N 
ATOM      6  C   UNL     1       7.246   0.869   0.951  0.00  0.00    +0.255 C 
ATOM      7  O   UNL     1       7.091  -0.311   1.181  0.00  0.00    -0.272 OA
ATOM      8  H   UNL     1       8.617   2.331   0.730  0.00  0.00    +0.155 HD
BRANCH   5  13
ATOM      9  C   UNL     1      12.888  -1.735   2.694  0.00  0.00    +0.044 C 
ATOM     10  C   UNL     1      11.717  -0.900   2.242  0.00  0.00    -0.048 A 
ATOM     11  C   UNL     1      10.440  -1.216   2.667  0.00  0.00    +0.005 A 
ATOM     12  C   UNL     1       9.365  -0.453   2.255  0.00  0.00    +0.026 A 
ATOM     13  C   UNL     1       9.568   0.632   1.411  0.00  0.00    +0.064 A 
ATOM     14  C   UNL     1      10.851   0.942   0.981  0.00  0.00    +0.148 A 
ATOM     15  C   UNL     1      11.923   0.179   1.402  0.00  0.00    +0.038 A 
BRANCH  14  16
ATOM     16  N   UNL     1      11.072   2.094   0.078  0.00  0.00    +0.058 N 
ATOM     17  O   UNL     1      12.183   2.312  -0.371  0.00  0.00    -0.126 OA
ATOM     18  O   UNL     1      10.142   2.823  -0.217  0.00  0.00    -0.126 OA
ENDBRANCH  14  16
ENDBRANCH   5  13
ENDBRANCH   4   6
ENDBRANCH   3   4
ENDBRANCH   1   3
BRANCH   1  19
ATOM     19  C   UNL     1       2.402   0.781   0.364  0.00  0.00    +0.137 C 
BRANCH  19  20
ATOM     20  C   UNL     1       1.246   1.723   0.021  0.00  0.00    +0.117 C 
BRANCH  20  21
ATOM     21  N   UNL     1      -0.012   0.972   0.023  0.00  0.00    -0.189 NA
ATOM     22  H   UNL     1       0.002   0.002   0.005  0.00  0.00    +0.148 HD
BRANCH  21  23
ATOM     23  S   UNL     1      -1.458   1.778   0.047  0.00  0.00    +0.059 S 
ATOM     24  O   UNL     1      -2.477   0.788   0.009  0.00  0.00    -0.153 OA
ATOM     25  O   UNL     1      -1.369   2.740   1.089  0.00  0.00    -0.153 OA
BRANCH  23  26
ATOM     26  C   UNL     1      -1.577   2.681  -1.462  0.00  0.00    +0.109 A 
ATOM     27  C   UNL     1      -1.096   3.975  -1.530  0.00  0.00    +0.032 A 
ATOM     28  C   UNL     1      -1.181   4.688  -2.713  0.00  0.00    +0.051 A 
ATOM     29  C   UNL     1      -1.760   4.103  -3.826  0.00  0.00    +0.162 A 
ATOM     30  C   UNL     1      -2.248   2.806  -3.756  0.00  0.00    +0.164 A 
ATOM     31  C   UNL     1      -2.157   2.094  -2.572  0.00  0.00    +0.078 A 
ATOM     32  O   UNL     1      -2.817   2.238  -4.859  0.00  0.00    -0.488 OA
ATOM     33  C   UNL     1      -4.064   2.797  -5.277  0.00  0.00    +0.232 C 
ATOM     34  C   UNL     1      -3.841   4.017  -6.157  0.00  0.00    +0.082 C 
ATOM     35  C   UNL     1      -3.176   5.159  -5.405  0.00  0.00    +0.232 C 
ATOM     36  O   UNL     1      -1.855   4.796  -4.998  0.00  0.00    -0.488 OA
ENDBRANCH  23  26
ENDBRANCH  21  23
ENDBRANCH  20  21
ENDBRANCH  19  20
ENDBRANCH   1  19
TORSDOF 10
