REMARK  Name = ZINC15475709
REMARK  11 active torsions:
REMARK  status: ('A' for Active; 'I' for Inactive)
REMARK    1  A    between atoms: C_1  and  C_2
REMARK    2  A    between atoms: C_2  and  O_3
REMARK    3  A    between atoms: O_3  and  C_4
REMARK    4  A    between atoms: C_7  and  C_12
REMARK    5  A    between atoms: C_9  and  O_10
REMARK    6  A    between atoms: O_10  and  C_11
REMARK    7  A    between atoms: N_14  and  N_15
REMARK    8  A    between atoms: C_16  and  C_18
REMARK    9  A    between atoms: C_18  and  S_19
REMARK   10  A    between atoms: S_19  and  C_20
REMARK   11  A    between atoms: C_20  and  C_21
REMARK                            x       y       z     vdW  Elec       q    Type
REMARK                         _______ _______ _______ _____ _____    ______ ____
ROOT
ATOM      1  N   UNL     1       2.366   1.217  -0.014  0.00  0.00    -0.233 N 
ATOM      2  C   UNL     1       3.524   1.907  -0.021  0.00  0.00    +0.239 C 
ATOM      3  O   UNL     1       3.508   3.120  -0.015  0.00  0.00    -0.273 OA
ATOM      4  H   UNL     1       2.379   0.247  -0.019  0.00  0.00    +0.173 HD
ENDROOT
BRANCH   1   7
ATOM      5  C   UNL     1      -0.014   1.212   0.009  0.00  0.00    +0.260 C 
ATOM      6  O   UNL     1       0.002  -0.004   0.002  0.00  0.00    -0.269 OA
ATOM      7  N   UNL     1       1.143   1.901   0.001  0.00  0.00    -0.230 N 
ATOM      8  H   UNL     1       1.130   2.871   0.007  0.00  0.00    +0.173 HD
BRANCH   5  12
ATOM      9  C   UNL     1      -3.720   3.292   0.039  0.00  0.00    +0.162 A 
ATOM     10  C   UNL     1      -2.527   4.000   0.037  0.00  0.00    +0.050 A 
ATOM     11  C   UNL     1      -1.323   3.329   0.032  0.00  0.00    +0.017 A 
ATOM     12  C   UNL     1      -1.303   1.932   0.019  0.00  0.00    +0.042 A 
ATOM     13  C   UNL     1      -2.504   1.219   0.021  0.00  0.00    +0.062 A 
ATOM     14  C   UNL     1      -3.707   1.898   0.030  0.00  0.00    +0.162 A 
BRANCH  14  15
ATOM     15  O   UNL     1      -4.878   1.206   0.032  0.00  0.00    -0.491 OA
ATOM     16  C   UNL     1      -4.790  -0.220   0.023  0.00  0.00    +0.277 C 
ENDBRANCH  14  15
BRANCH   9  17
ATOM     17  O   UNL     1      -4.904   3.958   0.048  0.00  0.00    -0.489 OA
BRANCH  17  19
ATOM     18  C   UNL     1      -6.265   5.955   0.067  0.00  0.00    +0.048 C 
ATOM     19  C   UNL     1      -4.845   5.386   0.056  0.00  0.00    +0.226 C 
ENDBRANCH  17  19
ENDBRANCH   9  17
ENDBRANCH   5  12
ENDBRANCH   1   7
BRANCH   2  20
ATOM     20  C   UNL     1       4.839   1.171  -0.038  0.00  0.00    +0.166 C 
BRANCH  20  21
ATOM     21  S   UNL     1       6.202   2.369  -0.044  0.00  0.00    -0.144 S 
BRANCH  21  22
ATOM     22  C   UNL     1       7.693   1.337  -0.064  0.00  0.00    +0.143 C 
BRANCH  22  23
ATOM     23  C   UNL     1       8.915   2.219  -0.071  0.00  0.00    +0.121 A 
ATOM     24  N   UNL     1      10.148   1.649  -0.086  0.00  0.00    -0.310 N 
ATOM     25  H   UNL     1      10.225   0.683  -0.091  0.00  0.00    +0.170 HD
ATOM     26  C   UNL     1      11.265   2.401  -0.093  0.00  0.00    +0.260 A 
ATOM     27  O   UNL     1      12.366   1.876  -0.105  0.00  0.00    -0.267 OA
ATOM     28  C   UNL     1      11.137   3.828  -0.084  0.00  0.00    +0.075 A 
ATOM     29  C   UNL     1      12.209   4.834  -0.088  0.00  0.00    -0.023 A 
ATOM     30  C   UNL     1      11.831   6.124  -0.080  0.00  0.00    -0.004 A 
ATOM     31  S   UNL     1      10.054   6.082  -0.063  0.00  0.00    -0.073 S 
ATOM     32  C   UNL     1       9.827   4.323  -0.070  0.00  0.00    +0.116 A 
ATOM     33  N   UNL     1       8.768   3.517  -0.068  0.00  0.00    -0.226 NA
ATOM     34  C   UNL     1      13.009   7.061  -0.091  0.00  0.00    +0.043 C 
ATOM     35  C   UNL     1      14.198   6.184  -0.541  0.00  0.00    +0.010 C 
ATOM     36  C   UNL     1      13.739   4.781  -0.097  0.00  0.00    +0.037 C 
ENDBRANCH  22  23
ENDBRANCH  21  22
ENDBRANCH  20  21
ENDBRANCH   2  20
TORSDOF 9
