REMARK  Name = ZINC00115222
REMARK  8 active torsions:
REMARK  status: ('A' for Active; 'I' for Inactive)
REMARK    1  A    between atoms: C_1  and  C_2
REMARK    2  A    between atoms: C_2  and  C_3
REMARK    3  A    between atoms: C_3  and  C_5
REMARK    4  A    between atoms: C_3  and  C_6
REMARK    5  A    between atoms: C_8  and  C_21
REMARK    6  A    between atoms: C_9  and  N_20
REMARK    7  A    between atoms: C_16  and  C_18
REMARK    8  A    between atoms: C_16  and  C_19
REMARK                            x       y       z     vdW  Elec       q    Type
REMARK                         _______ _______ _______ _____ _____    ______ ____
ROOT
ATOM      1  C   UNL     1       0.630  -2.023  -1.329  0.00  0.00    +0.074 C 
ATOM      2  C   UNL     1       1.341  -2.505  -2.562  0.00  0.00    +0.094 C 
ATOM      3  C   UNL     1       0.639  -2.876  -3.660  0.00  0.00    +0.198 C 
ATOM      4  O   UNL     1      -0.703  -2.821  -3.676  0.00  0.00    -0.445 OA
ATOM      5  C   UNL     1      -1.397  -2.815  -2.522  0.00  0.00    +0.115 C 
ATOM      6  C   UNL     1      -0.820  -2.439  -1.369  0.00  0.00    +0.042 C 
ATOM      7  C   UNL     1      -1.550  -2.419  -0.165  0.00  0.00    +0.164 C 
ATOM      8  O   UNL     1      -0.995  -2.087   0.864  0.00  0.00    -0.292 OA
ATOM      9  C   UNL     1      -3.004  -2.802  -0.129  0.00  0.00    +0.086 C 
ATOM     10  C   UNL     1      -3.631  -2.498  -1.494  0.00  0.00    -0.021 C 
ATOM     11  C   UNL     1      -2.844  -3.246  -2.559  0.00  0.00    +0.081 C 
ATOM     12  C   UNL     1      -3.570  -0.994  -1.764  0.00  0.00    +0.012 C 
ATOM     13  C   UNL     1      -5.087  -2.968  -1.507  0.00  0.00    +0.012 C 
ENDROOT
BRANCH   3  14
ATOM     14  N   UNL     1       1.311  -3.314  -4.775  0.00  0.00    -0.328 N 
ATOM     15  H   UNL     1       2.280  -3.356  -4.772  0.00  0.00    +0.145 HD
ATOM     16  H   UNL     1       0.816  -3.581  -5.565  0.00  0.00    +0.145 HD
ENDBRANCH   3  14
BRANCH   1  17
ATOM     17  C   UNL     1       0.718  -0.497  -1.257  0.00  0.00    -0.002 C 
ATOM     18  C   UNL     1       2.187  -0.073  -1.207  0.00  0.00    +0.008 C 
BRANCH  17  20
ATOM     19  C   UNL     1      -0.019   1.526   0.010  0.00  0.00    +0.004 C 
ATOM     20  C   UNL     1       0.002  -0.004   0.002  0.00  0.00    +0.001 C 
ENDBRANCH  17  20
ENDBRANCH   1  17
BRANCH   2  21
ATOM     21  C   UNL     1       2.772  -2.573  -2.576  0.00  0.00    +0.100 C 
ATOM     22  N   UNL     1       3.906  -2.626  -2.588  0.00  0.00    -0.191 NA
ENDBRANCH   2  21
TORSDOF 4
