REMARK  Name = ZINC39676571
REMARK  10 active torsions:
REMARK  status: ('A' for Active; 'I' for Inactive)
REMARK    1  A    between atoms: C_1  and  C_2
REMARK    2  A    between atoms: C_2  and  C_8
REMARK    3  A    between atoms: C_12  and  C_21
REMARK    4  A    between atoms: N_23  and  C_24
REMARK    5  A    between atoms: C_24  and  C_25
REMARK    6  A    between atoms: C_24  and  C_33
REMARK    7  A    between atoms: C_28  and  O_31
REMARK    8  A    between atoms: O_31  and  C_32
REMARK    9  A    between atoms: C_36  and  O_39
REMARK   10  A    between atoms: O_39  and  C_40
REMARK                            x       y       z     vdW  Elec       q    Type
REMARK                         _______ _______ _______ _____ _____    ______ ____
ROOT
ATOM      1  C   UNL     1      -0.988   0.019  -0.223  0.00  0.00    +0.222 C 
ATOM      2  O   UNL     1      -1.289  -0.551   0.804  0.00  0.00    -0.275 OA
ATOM      3  N   UNL     1      -1.907   0.188  -1.194  0.00  0.00    -0.300 N 
ATOM      4  C   UNL     1      -1.704   0.753  -2.549  0.00  0.00    +0.121 C 
ATOM      5  C   UNL     1      -2.578  -0.123  -3.473  0.00  0.00    +0.100 C 
ATOM      6  C   UNL     1      -3.657  -0.712  -2.549  0.00  0.00    -0.004 C 
ATOM      7  C   UNL     1      -3.348  -0.157  -1.151  0.00  0.00    +0.115 C 
ATOM      8  C   UNL     1      -5.043  -0.264  -3.002  0.00  0.00    -0.010 C 
ATOM      9  C   UNL     1      -6.103  -0.909  -2.104  0.00  0.00    -0.082 C 
ATOM     10  N   UNL     1      -5.989  -2.370  -2.183  0.00  0.00    +0.379 N 
ATOM     11  C   UNL     1      -4.687  -2.801  -1.658  0.00  0.00    -0.082 C 
ATOM     12  C   UNL     1      -3.568  -2.235  -2.538  0.00  0.00    -0.010 C 
ATOM     13  H   UNL     1      -6.726  -2.794  -1.639  0.00  0.00    -0.086 HD
ATOM     14  H   UNL     1      -6.076  -2.662  -3.145  0.00  0.00    -0.086 HD
ENDROOT
BRANCH   1  16
ATOM     15  C   UNL     1       1.108  -0.258  -1.519  0.00  0.00    +0.021 C 
ATOM     16  C   UNL     1       0.413   0.540  -0.413  0.00  0.00    +0.044 C 
ATOM     17  C   UNL     1       1.195   0.388   0.893  0.00  0.00    +0.016 C 
ATOM     18  C   UNL     1       0.501   1.186   1.999  0.00  0.00    +0.001 C 
ATOM     19  C   UNL     1       0.447   2.663   1.605  0.00  0.00    +0.000 C 
ATOM     20  C   UNL     1      -0.335   2.815   0.299  0.00  0.00    +0.001 C 
ATOM     21  C   UNL     1       0.359   2.017  -0.807  0.00  0.00    +0.016 C 
ENDBRANCH   1  16
BRANCH   5  22
ATOM     22  C   UNL     1      -1.753  -1.223  -4.088  0.00  0.00    +0.219 C 
ATOM     23  O   UNL     1      -0.865  -1.745  -3.448  0.00  0.00    -0.275 OA
ATOM     24  N   UNL     1      -2.001  -1.627  -5.349  0.00  0.00    -0.304 N 
ATOM     25  H   UNL     1      -2.711  -1.210  -5.862  0.00  0.00    +0.150 HD
BRANCH  24  26
ATOM     26  C   UNL     1      -1.198  -2.697  -5.947  0.00  0.00    +0.134 C 
BRANCH  26  27
ATOM     27  C   UNL     1      -1.774  -4.035  -5.559  0.00  0.00    -0.023 A 
ATOM     28  C   UNL     1      -3.145  -4.213  -5.531  0.00  0.00    +0.009 A 
ATOM     29  C   UNL     1      -3.676  -5.438  -5.175  0.00  0.00    +0.046 A 
ATOM     30  C   UNL     1      -2.832  -6.489  -4.846  0.00  0.00    +0.120 A 
ATOM     31  C   UNL     1      -1.457  -6.307  -4.875  0.00  0.00    +0.046 A 
ATOM     32  C   UNL     1      -0.931  -5.082  -5.237  0.00  0.00    +0.009 A 
BRANCH  30  33
ATOM     33  O   UNL     1      -3.352  -7.695  -4.495  0.00  0.00    -0.495 OA
ATOM     34  C   UNL     1      -2.424  -8.731  -4.169  0.00  0.00    +0.277 C 
ENDBRANCH  30  33
ENDBRANCH  26  27
BRANCH  26  35
ATOM     35  C   UNL     1      -1.215  -2.559  -7.448  0.00  0.00    -0.023 A 
ATOM     36  C   UNL     1      -2.383  -2.200  -8.095  0.00  0.00    +0.009 A 
ATOM     37  C   UNL     1      -2.402  -2.073  -9.470  0.00  0.00    +0.046 A 
ATOM     38  C   UNL     1      -1.247  -2.307 -10.203  0.00  0.00    +0.120 A 
ATOM     39  C   UNL     1      -0.076  -2.667  -9.551  0.00  0.00    +0.046 A 
ATOM     40  C   UNL     1      -0.062  -2.787  -8.175  0.00  0.00    +0.009 A 
BRANCH  38  41
ATOM     41  O   UNL     1      -1.262  -2.183 -11.556  0.00  0.00    -0.495 OA
ATOM     42  C   UNL     1      -0.037  -2.439 -12.245  0.00  0.00    +0.277 C 
ENDBRANCH  38  41
ENDBRANCH  26  35
ENDBRANCH  24  26
ENDBRANCH   5  22
TORSDOF 7
