REMARK  Name = ZINC37051548
REMARK  3 active torsions:
REMARK  status: ('A' for Active; 'I' for Inactive)
REMARK    1  A    between atoms: C_1  and  N_2
REMARK    2  A    between atoms: C_7  and  N_12
REMARK    3  A    between atoms: N_12  and  C_13
REMARK                            x       y       z     vdW  Elec       q    Type
REMARK                         _______ _______ _______ _____ _____    ______ ____
ROOT
ATOM      1  C   UNL     1      -0.018   1.461   0.010  0.00  0.00    +0.172 C 
ATOM      2  N   UNL     1       0.002  -0.004   0.002  0.00  0.00    -0.271 N 
ATOM      3  C   UNL     1       0.008  -0.789  -1.088  0.00  0.00    +0.044 A 
ATOM      4  C   UNL     1       0.025  -2.081  -0.670  0.00  0.00    +0.013 A 
ATOM      5  C   UNL     1       0.032  -2.082   0.723  0.00  0.00    +0.140 A 
ATOM      6  N   UNL     1       0.025  -0.837   1.131  0.00  0.00    -0.179 NA
ATOM      7  C   UNL     1       0.033  -3.270  -1.598  0.00  0.00    +0.104 C 
ATOM      8  C   UNL     1      -0.395  -2.798  -2.993  0.00  0.00    +0.027 C 
ATOM      9  C   UNL     1       0.427  -1.569  -3.391  0.00  0.00    +0.008 C 
ATOM     10  C   UNL     1      -0.001  -0.369  -2.536  0.00  0.00    +0.055 C 
ENDROOT
BRANCH   7  11
ATOM     11  N   UNL     1      -0.906  -4.283  -1.109  0.00  0.00    -0.337 N 
ATOM     12  H   UNL     1      -1.812  -4.312  -1.456  0.00  0.00    +0.147 HD
BRANCH  11  13
ATOM     13  C   UNL     1      -0.498  -5.206  -0.144  0.00  0.00    +0.030 A 
ATOM     14  C   UNL     1       0.796  -5.161   0.359  0.00  0.00    +0.043 A 
ATOM     15  C   UNL     1       1.197  -6.076   1.315  0.00  0.00    +0.044 A 
ATOM     16  C   UNL     1       0.310  -7.035   1.771  0.00  0.00    +0.040 A 
ATOM     17  C   UNL     1      -0.980  -7.082   1.272  0.00  0.00    +0.044 A 
ATOM     18  C   UNL     1      -1.388  -6.167   0.320  0.00  0.00    +0.043 A 
ATOM     19 CL   UNL     1      -2.089  -8.288   1.847  0.00  0.00    -0.083 Cl
ATOM     20 CL   UNL     1       2.814  -6.021   1.942  0.00  0.00    -0.083 Cl
ENDBRANCH  11  13
ENDBRANCH   7  11
TORSDOF 2
