REMARK  Name = ZINC60184470
REMARK  10 active torsions:
REMARK  status: ('A' for Active; 'I' for Inactive)
REMARK    1  A    between atoms: C_1  and  C_2
REMARK    2  A    between atoms: C_6  and  C_8
REMARK    3  A    between atoms: C_8  and  C_9
REMARK    4  A    between atoms: C_8  and  C_10
REMARK    5  A    between atoms: C_8  and  C_11
REMARK    6  A    between atoms: C_11  and  N_12
REMARK    7  A    between atoms: C_13  and  C_15
REMARK    8  A    between atoms: C_20  and  S_21
REMARK    9  A    between atoms: S_21  and  C_22
REMARK   10  A    between atoms: C_22  and  C_23
REMARK                            x       y       z     vdW  Elec       q    Type
REMARK                         _______ _______ _______ _____ _____    ______ ____
ROOT
ATOM      1  N   UNL     1       0.088  -5.086   3.465  0.00  0.00    -0.310 N 
ATOM      2  C   UNL     1       0.105  -6.434   3.458  0.00  0.00    +0.245 C 
ATOM      3  O   UNL     1       0.108  -7.036   2.401  0.00  0.00    -0.270 OA
ATOM      4  H   UNL     1       0.086  -4.606   4.308  0.00  0.00    +0.149 HD
ENDROOT
BRANCH   2   5
ATOM      5  C   UNL     1       0.121  -7.178   4.730  0.00  0.00    +0.050 A 
ATOM      6  C   UNL     1       0.113  -6.490   5.947  0.00  0.00    +0.014 A 
ATOM      7  C   UNL     1       0.128  -7.191   7.132  0.00  0.00    +0.001 A 
ATOM      8  C   UNL     1       0.152  -8.578   7.127  0.00  0.00    +0.001 A 
ATOM      9  C   UNL     1       0.161  -9.271   5.935  0.00  0.00    +0.015 A 
ATOM     10  C   UNL     1       0.140  -8.582   4.728  0.00  0.00    +0.020 A 
BRANCH  10  11
ATOM     11  S   UNL     1       0.142  -9.465   3.203  0.00  0.00    -0.122 S 
BRANCH  11  12
ATOM     12  C   UNL     1       0.168 -11.208   3.705  0.00  0.00    +0.106 C 
BRANCH  12  13
ATOM     13  C   UNL     1       0.172 -12.098   2.461  0.00  0.00    +0.128 C 
ATOM     14  C   UNL     1       0.159 -13.593   2.868  0.00  0.00    +0.034 C 
ATOM     15  C   UNL     1      -0.470 -14.237   1.603  0.00  0.00    +0.031 C 
ATOM     16  C   UNL     1      -1.462 -13.148   1.139  0.00  0.00    +0.160 C 
ATOM     17  O   UNL     1      -1.032 -11.902   1.704  0.00  0.00    -0.376 OA
ENDBRANCH  12  13
ENDBRANCH  11  12
ENDBRANCH  10  11
ENDBRANCH   2   5
BRANCH   1  18
ATOM     18  C   UNL     1       0.072  -4.347   2.201  0.00  0.00    +0.115 C 
BRANCH  18  19
ATOM     19  C   UNL     1       0.054  -2.845   2.489  0.00  0.00    +0.006 C 
ATOM     20  C   UNL     1       1.302  -2.463   3.286  0.00  0.00    +0.017 C 
ATOM     21  C   UNL     1      -1.196  -2.495   3.299  0.00  0.00    +0.017 C 
BRANCH  19  27
ATOM     22  C   UNL     1      -0.018   1.503   0.010  0.00  0.00    +0.044 C 
ATOM     23  C   UNL     1       0.002  -0.004   0.002  0.00  0.00    -0.050 A 
ATOM     24  C   UNL     1       0.006  -0.689  -1.199  0.00  0.00    +0.003 A 
ATOM     25  C   UNL     1       0.025  -2.071  -1.207  0.00  0.00    +0.001 A 
ATOM     26  C   UNL     1       0.040  -2.768  -0.013  0.00  0.00    +0.004 A 
ATOM     27  C   UNL     1       0.037  -2.084   1.188  0.00  0.00    -0.040 A 
ATOM     28  C   UNL     1       0.023  -0.702   1.195  0.00  0.00    +0.007 A 
ENDBRANCH  19  27
ENDBRANCH  18  19
ENDBRANCH   1  18
TORSDOF 7
