REMARK  Name = ZINC52212746
REMARK  6 active torsions:
REMARK  status: ('A' for Active; 'I' for Inactive)
REMARK    1  A    between atoms: C_3  and  N_18
REMARK    2  A    between atoms: C_4  and  N_15
REMARK    3  A    between atoms: C_6  and  S_7
REMARK    4  A    between atoms: S_7  and  N_10
REMARK    5  A    between atoms: N_10  and  C_11
REMARK    6  A    between atoms: N_18  and  N_19
REMARK                            x       y       z     vdW  Elec       q    Type
REMARK                         _______ _______ _______ _____ _____    ______ ____
ROOT
ATOM      1  C   UNL     1       0.004   1.385  -0.205  0.00  0.00    +0.030 A 
ATOM      2  C   UNL     1       1.207   2.062  -0.268  0.00  0.00    +0.028 A 
ATOM      3  C   UNL     1       2.398   1.377  -0.068  0.00  0.00    +0.071 A 
ATOM      4  C   UNL     1       2.376   0.012   0.194  0.00  0.00    +0.150 A 
ATOM      5  C   UNL     1       1.170  -0.658   0.256  0.00  0.00    +0.063 A 
ATOM      6  C   UNL     1      -0.015   0.028   0.057  0.00  0.00    +0.108 A 
ENDROOT
BRANCH   6   7
ATOM      7  S   UNL     1      -1.551  -0.831   0.136  0.00  0.00    +0.059 S 
ATOM      8  O   UNL     1      -1.330  -1.986   0.933  0.00  0.00    -0.153 OA
ATOM      9  O   UNL     1      -2.541   0.137   0.455  0.00  0.00    -0.153 OA
BRANCH   7  10
ATOM     10  N   UNL     1      -1.891  -1.369  -1.393  0.00  0.00    -0.187 NA
ATOM     11  H   UNL     1      -2.662  -1.023  -1.869  0.00  0.00    +0.148 HD
BRANCH  10  12
ATOM     12  C   UNL     1      -1.026  -2.368  -2.027  0.00  0.00    +0.077 C 
ATOM     13  C   UNL     1      -0.334  -1.862  -3.303  0.00  0.00    +0.020 C 
ATOM     14  C   UNL     1      -0.606  -3.249  -3.907  0.00  0.00    +0.003 C 
ATOM     15  C   UNL     1      -1.785  -3.358  -2.926  0.00  0.00    +0.020 C 
ENDBRANCH  10  12
ENDBRANCH   7  10
ENDBRANCH   6   7
BRANCH   4  16
ATOM     16  N   UNL     1       3.643  -0.722   0.407  0.00  0.00    +0.058 N 
ATOM     17  O   UNL     1       3.769  -1.846  -0.020  0.00  0.00    -0.126 OA
ATOM     18  O   UNL     1       4.552  -0.198   1.007  0.00  0.00    -0.126 OA
ENDBRANCH   4  16
BRANCH   3  19
ATOM     19  N   UNL     1       3.616   2.057  -0.131  0.00  0.00    -0.281 N 
ATOM     20  H   UNL     1       4.450   1.566  -0.070  0.00  0.00    +0.166 HD
BRANCH  19  21
ATOM     21  N   UNL     1       3.633   3.415  -0.279  0.00  0.00    -0.256 NA
ATOM     22  H   UNL     1       3.104   3.865   0.453  0.00  0.00    +0.140 HD
ATOM     23  H   UNL     1       4.579   3.764  -0.309  0.00  0.00    +0.140 HD
ENDBRANCH  19  21
ENDBRANCH   3  19
TORSDOF 6
