REMARK  Name = ZINC63581843
REMARK  6 active torsions:
REMARK  status: ('A' for Active; 'I' for Inactive)
REMARK    1  A    between atoms: C_1  and  C_2
REMARK    2  A    between atoms: C_4  and  C_16
REMARK    3  A    between atoms: C_6  and  C_14
REMARK    4  A    between atoms: C_7  and  N_13
REMARK    5  A    between atoms: C_16  and  C_17
REMARK    6  A    between atoms: C_17  and  C_18
REMARK                            x       y       z     vdW  Elec       q    Type
REMARK                         _______ _______ _______ _____ _____    ______ ____
ROOT
ATOM      1  C   UNL     1      -0.018   1.503   0.010  0.00  0.00    +0.067 C 
ATOM      2  C   UNL     1       0.002  -0.004   0.002  0.00  0.00    +0.065 C 
ATOM      3  C   UNL     1      -1.064  -0.768   0.003  0.00  0.00    +0.025 C 
ATOM      4  C   UNL     1      -2.536  -0.493   0.145  0.00  0.00    +0.068 C 
ATOM      5  C   UNL     1      -3.065  -1.577   1.066  0.00  0.00    +0.093 C 
ATOM      6  C   UNL     1      -2.303  -2.628   1.436  0.00  0.00    +0.195 C 
ATOM      7  O   UNL     1      -1.023  -2.853   1.091  0.00  0.00    -0.448 OA
ATOM      8  C   UNL     1      -0.529  -2.198  -0.081  0.00  0.00    +0.342 C 
ATOM      9  N   UNL     1       0.921  -1.985  -0.028  0.00  0.00    -0.138 NA
ATOM     10  N   UNL     1       1.127  -0.765  -0.013  0.00  0.00    -0.155 NA
ENDROOT
BRANCH   6  11
ATOM     11  N   UNL     1      -2.896  -3.562   2.247  0.00  0.00    -0.329 N 
ATOM     12  H   UNL     1      -3.818  -3.448   2.526  0.00  0.00    +0.145 HD
ATOM     13  H   UNL     1      -2.393  -4.337   2.542  0.00  0.00    +0.145 HD
ENDBRANCH   6  11
BRANCH   5  14
ATOM     14  C   UNL     1      -4.407  -1.482   1.556  0.00  0.00    +0.100 C 
ATOM     15  N   UNL     1      -5.472  -1.407   1.944  0.00  0.00    -0.191 NA
ENDBRANCH   5  14
BRANCH   4  16
ATOM     16  C   UNL     1      -3.223  -0.573  -1.220  0.00  0.00    +0.018 C 
BRANCH  16  17
ATOM     17  C   UNL     1      -4.692  -0.170  -1.075  0.00  0.00    +0.036 C 
BRANCH  17  18
ATOM     18  C   UNL     1      -5.368  -0.248  -2.420  0.00  0.00    -0.047 A 
ATOM     19  C   UNL     1      -5.381   0.856  -3.252  0.00  0.00    +0.003 A 
ATOM     20  C   UNL     1      -6.002   0.784  -4.485  0.00  0.00    +0.000 A 
ATOM     21  C   UNL     1      -6.609  -0.392  -4.886  0.00  0.00    +0.000 A 
ATOM     22  C   UNL     1      -6.596  -1.496  -4.054  0.00  0.00    +0.000 A 
ATOM     23  C   UNL     1      -5.971  -1.425  -2.822  0.00  0.00    +0.003 A 
ENDBRANCH  17  18
ENDBRANCH  16  17
ENDBRANCH   4  16
TORSDOF 5
