REMARK  Name = ZINC02595211
REMARK  8 active torsions:
REMARK  status: ('A' for Active; 'I' for Inactive)
REMARK    1  A    between atoms: C_1  and  C_2
REMARK    2  A    between atoms: C_2  and  C_3
REMARK    3  A    between atoms: C_2  and  O_4
REMARK    4  A    between atoms: O_4  and  C_5
REMARK    5  A    between atoms: C_8  and  C_11
REMARK    6  A    between atoms: N_13  and  C_14
REMARK    7  A    between atoms: C_14  and  C_28
REMARK    8  A    between atoms: N_17  and  C_21
REMARK                            x       y       z     vdW  Elec       q    Type
REMARK                         _______ _______ _______ _____ _____    ______ ____
ROOT
ATOM      1  C   UNL     1      -5.902  -1.541  -6.269  0.00  0.00    +0.278 C 
ATOM      2  C   UNL     1      -5.980  -0.203  -6.978  0.00  0.00    +0.274 C 
ATOM      3  O   UNL     1      -5.056   0.518  -7.286  0.00  0.00    -0.271 OA
ATOM      4  N   UNL     1      -7.292   0.016  -7.197  0.00  0.00    -0.219 N 
ATOM      5  C   UNL     1      -8.045  -0.986  -6.729  0.00  0.00    +0.311 C 
ATOM      6  O   UNL     1      -9.257  -1.014  -6.809  0.00  0.00    -0.252 OA
ATOM      7  N   UNL     1      -7.310  -1.958  -6.160  0.00  0.00    -0.263 N 
ATOM      8  H   UNL     1      -7.643  -2.776  -5.757  0.00  0.00    +0.153 HD
ENDROOT
BRANCH   4   9
ATOM      9  C   UNL     1      -7.827   1.206  -7.863  0.00  0.00    +0.086 C 
ATOM     10  C   UNL     1      -8.717   1.978  -6.868  0.00  0.00    +0.023 C 
ATOM     11  C   UNL     1      -8.843   3.401  -7.343  0.00  0.00    +0.002 C 
ATOM     12  C   UNL     1     -10.102   3.626  -8.202  0.00  0.00    +0.000 C 
ATOM     13  C   UNL     1     -10.361   2.477  -9.195  0.00  0.00    +0.000 C 
ATOM     14  C   UNL     1      -9.100   1.991  -9.856  0.00  0.00    +0.002 C 
ATOM     15  C   UNL     1      -8.556   0.792  -9.053  0.00  0.00    +0.023 C 
ENDBRANCH   4   9
BRANCH   1  18
ATOM     16  C   UNL     1      -4.080  -0.839  -4.810  0.00  0.00    +0.246 C 
ATOM     17  O   UNL     1      -3.504  -0.401  -5.787  0.00  0.00    -0.270 OA
ATOM     18  N   UNL     1      -5.306  -1.385  -4.940  0.00  0.00    -0.276 N 
ATOM     19  H   UNL     1      -5.793  -1.675  -4.153  0.00  0.00    +0.152 HD
BRANCH  16  23
ATOM     20  C   UNL     1      -2.235  -0.644  -0.991  0.00  0.00    +0.121 A 
ATOM     21  C   UNL     1      -1.574  -0.144  -2.106  0.00  0.00    +0.046 A 
ATOM     22  C   UNL     1      -2.169  -0.205  -3.347  0.00  0.00    +0.016 A 
ATOM     23  C   UNL     1      -3.439  -0.771  -3.483  0.00  0.00    +0.037 A 
ATOM     24  C   UNL     1      -4.100  -1.274  -2.359  0.00  0.00    +0.016 A 
ATOM     25  C   UNL     1      -3.496  -1.213  -1.123  0.00  0.00    +0.046 A 
BRANCH  20  26
ATOM     26  O   UNL     1      -1.645  -0.582   0.230  0.00  0.00    -0.489 OA
BRANCH  26  28
ATOM     27  C   UNL     1      -0.588   1.585   0.400  0.00  0.00    +0.051 C 
ATOM     28  C   UNL     1      -0.377   0.072   0.305  0.00  0.00    +0.167 C 
ATOM     29  C   UNL     1       0.376  -0.416   1.544  0.00  0.00    +0.051 C 
ENDBRANCH  26  28
ENDBRANCH  20  26
ENDBRANCH  16  23
ENDBRANCH   1  18
BRANCH   1  30
ATOM     30  C   UNL     1      -5.104  -2.548  -7.100  0.00  0.00    +0.436 C 
ATOM     31  F   UNL     1      -5.114  -3.792  -6.460  0.00  0.00    -0.166 F 
ATOM     32  F   UNL     1      -5.685  -2.671  -8.367  0.00  0.00    -0.166 F 
ATOM     33  F   UNL     1      -3.785  -2.103  -7.233  0.00  0.00    -0.166 F 
ENDBRANCH   1  30
TORSDOF 6
