REMARK  Name = ZINC14532123
REMARK  11 active torsions:
REMARK  status: ('A' for Active; 'I' for Inactive)
REMARK    1  A    between atoms: C_1  and  C_2
REMARK    2  A    between atoms: C_2  and  C_3
REMARK    3  A    between atoms: C_3  and  C_5
REMARK    4  A    between atoms: C_3  and  C_6
REMARK    5  A    between atoms: C_6  and  N_62
REMARK    6  A    between atoms: N_14  and  C_20
REMARK    7  A    between atoms: N_17  and  C_18
REMARK    8  A    between atoms: C_18  and  C_19
REMARK    9  A    between atoms: C_20  and  C_21
REMARK   10  A    between atoms: C_21  and  C_22
REMARK   11  A    between atoms: C_22  and  C_23
REMARK                            x       y       z     vdW  Elec       q    Type
REMARK                         _______ _______ _______ _____ _____    ______ ____
ROOT
ATOM      1  C   UNL     1      -4.583   5.940  -7.273  0.00  0.00    -0.076 C 
ATOM      2  C   UNL     1      -3.884   6.077  -5.917  0.00  0.00    +0.017 C 
ATOM      3  C   UNL     1      -4.934   6.195  -4.817  0.00  0.00    +0.112 C 
ATOM      4  C   UNL     1      -5.872   7.365  -5.098  0.00  0.00    +0.017 C 
ATOM      5  C   UNL     1      -6.506   7.186  -6.480  0.00  0.00    -0.076 C 
ATOM      6  C   UNL     1      -4.276   6.362  -3.468  0.00  0.00    +0.247 C 
ATOM      7  O   UNL     1      -3.551   7.266  -3.111  0.00  0.00    -0.273 OA
ATOM      8  N   UNL     1      -4.665   5.292  -2.743  0.00  0.00    -0.224 N 
ATOM      9  C   UNL     1      -5.474   4.489  -3.445  0.00  0.00    +0.312 C 
ATOM     10  O   UNL     1      -5.957   3.465  -3.005  0.00  0.00    -0.252 OA
ATOM     11  N   UNL     1      -5.694   4.945  -4.694  0.00  0.00    -0.271 N 
ATOM     12  N   UNL     1      -5.433   7.130  -7.496  0.00  0.00    +0.380 N 
ATOM     13  H   UNL     1      -4.852   7.973  -7.413  0.00  0.00    -0.082 HD
ENDROOT
BRANCH  11  14
ATOM     14  C   UNL     1      -6.526   4.317  -5.723  0.00  0.00    +0.107 C 
ATOM     15  C   UNL     1      -5.892   2.993  -6.153  0.00  0.00    +0.024 C 
ENDBRANCH  11  14
BRANCH  12  16
ATOM     16  C   UNL     1      -6.021   7.082  -8.850  0.00  0.00    -0.076 C 
BRANCH  16  17
ATOM     17  C   UNL     1      -6.708   8.419  -9.135  0.00  0.00    -0.031 C 
ATOM     18  C   UNL     1      -5.663   9.536  -9.155  0.00  0.00    +0.005 C 
BRANCH  17  20
ATOM     19  C   UNL     1      -8.200   9.643 -10.722  0.00  0.00    +0.004 C 
ATOM     20  C   UNL     1      -7.410   8.353 -10.493  0.00  0.00    -0.002 C 
ENDBRANCH  17  20
ENDBRANCH  16  17
ENDBRANCH  12  16
BRANCH   8  21
ATOM     21  C   UNL     1      -4.256   5.043  -1.359  0.00  0.00    +0.118 C 
BRANCH  21  22
ATOM     22  C   UNL     1      -2.970   4.215  -1.347  0.00  0.00    +0.024 C 
BRANCH  22  23
ATOM     23  C   UNL     1      -2.543   3.955   0.099  0.00  0.00    +0.038 C 
BRANCH  23  24
ATOM     24  C   UNL     1      -1.276   3.139   0.110  0.00  0.00    -0.029 A 
ATOM     25  C   UNL     1      -1.333   1.754   0.119  0.00  0.00    +0.006 A 
ATOM     26  C   UNL     1      -0.142   1.045   0.135  0.00  0.00    +0.020 A 
ATOM     27  C   UNL     1       1.054   1.737   0.129  0.00  0.00    +0.111 A 
ATOM     28  N   UNL     1       1.070   3.056   0.115  0.00  0.00    -0.263 NA
ATOM     29  C   UNL     1      -0.043   3.763   0.105  0.00  0.00    +0.114 A 
ENDBRANCH  23  24
ENDBRANCH  22  23
ENDBRANCH  21  22
ENDBRANCH   8  21
TORSDOF 8
