REMARK  Name = ZINC10388533
REMARK  11 active torsions:
REMARK  status: ('A' for Active; 'I' for Inactive)
REMARK    1  A    between atoms: C_1  and  C_2
REMARK    2  A    between atoms: C_2  and  N_3
REMARK    3  A    between atoms: C_7  and  S_25
REMARK    4  A    between atoms: C_11  and  C_12
REMARK    5  A    between atoms: C_12  and  S_13
REMARK    6  A    between atoms: S_13  and  C_14
REMARK    7  A    between atoms: C_17  and  C_20
REMARK    8  A    between atoms: N_18  and  N_19
REMARK    9  A    between atoms: S_25  and  N_28
REMARK   10  A    between atoms: N_28  and  C_29
REMARK   11  A    between atoms: N_28  and  C_30
REMARK                            x       y       z     vdW  Elec       q    Type
REMARK                         _______ _______ _______ _____ _____    ______ ____
ROOT
ATOM      1  N   UNL     1       3.964  11.378  -1.350  0.00  0.00    -0.327 N 
ATOM      2  C   UNL     1       4.943  12.315  -1.085  0.00  0.00    +0.069 A 
ATOM      3  C   UNL     1       5.588  13.281  -1.845  0.00  0.00    +0.030 A 
ATOM      4  C   UNL     1       6.548  14.080  -1.262  0.00  0.00    +0.030 A 
ATOM      5  C   UNL     1       6.873  13.925   0.079  0.00  0.00    +0.108 A 
ATOM      6  C   UNL     1       6.249  12.979   0.842  0.00  0.00    +0.058 A 
ATOM      7  C   UNL     1       5.272  12.158   0.272  0.00  0.00    +0.091 A 
ATOM      8  N   UNL     1       4.491  11.158   0.756  0.00  0.00    -0.231 NA
ATOM      9  C   UNL     1       3.730  10.700  -0.194  0.00  0.00    +0.121 A 
ENDROOT
BRANCH   5  10
ATOM     10  S   UNL     1       8.104  14.957   0.803  0.00  0.00    +0.060 S 
ATOM     11  O   UNL     1       8.616  14.252   1.926  0.00  0.00    -0.153 OA
ATOM     12  O   UNL     1       8.935  15.404  -0.259  0.00  0.00    -0.153 OA
BRANCH  10  13
ATOM     13  N   UNL     1       7.332  16.296   1.397  0.00  0.00    -0.183 NA
ATOM     14  C   UNL     1       6.828  16.302   2.772  0.00  0.00    +0.131 C 
ATOM     15  C   UNL     1       7.153  17.476   0.546  0.00  0.00    +0.131 C 
ENDBRANCH  10  13
ENDBRANCH   5  10
BRANCH   1  17
ATOM     16  C   UNL     1       2.054  12.039  -2.727  0.00  0.00    +0.027 C 
ATOM     17  C   UNL     1       3.300  11.156  -2.637  0.00  0.00    +0.120 C 
ENDBRANCH   1  17
BRANCH   9  18
ATOM     18  C   UNL     1       2.729   9.584  -0.036  0.00  0.00    +0.151 C 
BRANCH  18  19
ATOM     19  S   UNL     1       3.530   8.001  -0.397  0.00  0.00    -0.077 S 
BRANCH  19  20
ATOM     20  C   UNL     1       2.172   6.907  -0.142  0.00  0.00    +0.209 A 
ATOM     21  N   UNL     1       0.953   7.246   0.210  0.00  0.00    -0.121 NA
ATOM     22  N   UNL     1       0.212   6.201   0.307  0.00  0.00    -0.126 NA
ATOM     23  C   UNL     1       0.914   5.126   0.021  0.00  0.00    +0.188 A 
ATOM     24  N   UNL     1       2.193   5.545  -0.271  0.00  0.00    -0.223 N 
BRANCH  23  25
ATOM     25  C   UNL     1       0.426   3.737   0.018  0.00  0.00    +0.058 A 
ATOM     26  C   UNL     1      -0.866   3.275   0.028  0.00  0.00    +0.019 A 
ATOM     27  C   UNL     1      -1.081   1.915   0.017  0.00  0.00    +0.008 A 
ATOM     28  C   UNL     1      -0.013   1.076   0.008  0.00  0.00    +0.046 A 
ATOM     29  S   UNL     1       1.361   2.216   0.001  0.00  0.00    -0.093 S 
ENDBRANCH  23  25
BRANCH  24  30
ATOM     30  N   UNL     1       3.259   4.765  -0.618  0.00  0.00    -0.295 N 
ATOM     31  H   UNL     1       3.307   4.643  -1.619  0.00  0.00    +0.163 HD
ATOM     32  H   UNL     1       4.120   5.149  -0.259  0.00  0.00    +0.163 HD
ENDBRANCH  24  30
ENDBRANCH  19  20
ENDBRANCH  18  19
ENDBRANCH   9  18
TORSDOF 8
