REMARK  Name = ZINC14551854
REMARK  5 active torsions:
REMARK  status: ('A' for Active; 'I' for Inactive)
REMARK    1  A    between atoms: C_1  and  S_2
REMARK    2  A    between atoms: S_2  and  C_3
REMARK    3  A    between atoms: C_6  and  C_9
REMARK    4  A    between atoms: C_19  and  N_26
REMARK    5  A    between atoms: C_22  and  O_25
REMARK                            x       y       z     vdW  Elec       q    Type
REMARK                         _______ _______ _______ _____ _____    ______ ____
ROOT
ATOM      1  C   UNL     1      -2.723   3.938   0.017  0.00  0.00    +0.105 C 
ATOM      2  C   UNL     1      -3.259   4.048  -1.401  0.00  0.00    +0.029 C 
ATOM      3  C   UNL     1      -4.753   4.456  -1.383  0.00  0.00    +0.033 C 
ATOM      4  C   UNL     1      -5.308   3.791  -2.629  0.00  0.00    -0.030 C 
ATOM      5  C   UNL     1      -4.540   2.797  -2.999  0.00  0.00    -0.023 C 
ATOM      6  C   UNL     1      -3.358   2.655  -2.054  0.00  0.00    +0.051 C 
ATOM      7  C   UNL     1      -3.700   1.597  -1.038  0.00  0.00    +0.014 A 
ATOM      8  C   UNL     1      -3.898   0.300  -1.500  0.00  0.00    +0.132 A 
ATOM      9  C   UNL     1      -4.213  -0.719  -0.625  0.00  0.00    +0.037 A 
ATOM     10  C   UNL     1      -4.334  -0.458   0.728  0.00  0.00    +0.049 A 
ATOM     11  C   UNL     1      -4.140   0.828   1.198  0.00  0.00    +0.138 A 
ATOM     12  C   UNL     1      -3.821   1.861   0.311  0.00  0.00    +0.076 A 
ATOM     13  N   UNL     1      -3.638   3.144   0.838  0.00  0.00    -0.334 N 
ATOM     14  H   UNL     1      -4.084   3.580   1.743  0.00  0.00    +0.147 HD
ENDROOT
BRANCH   1  18
ATOM     15  C   UNL     1       1.112   2.053  -0.060  0.00  0.00    +0.008 A 
ATOM     16  C   UNL     1       0.679   2.795  -1.152  0.00  0.00    +0.015 A 
ATOM     17  C   UNL     1      -0.558   3.407  -1.122  0.00  0.00    +0.006 A 
ATOM     18  C   UNL     1      -1.370   3.274  -0.010  0.00  0.00    -0.027 A 
ATOM     19  C   UNL     1      -0.942   2.536   1.079  0.00  0.00    +0.006 A 
ATOM     20  C   UNL     1       0.296   1.925   1.057  0.00  0.00    +0.015 A 
BRANCH  15  22
ATOM     21  C   UNL     1       2.807   0.446   1.517  0.00  0.00    +0.090 C 
ATOM     22  S   UNL     1       2.694   1.276  -0.092  0.00  0.00    -0.129 S 
ENDBRANCH  15  22
ENDBRANCH   1  18
BRANCH   8  23
ATOM     23  N   UNL     1      -3.769   0.011  -2.945  0.00  0.00    +0.057 N 
ATOM     24  O   UNL     1      -4.526  -0.782  -3.477  0.00  0.00    -0.126 OA
ATOM     25  O   UNL     1      -2.907   0.565  -3.603  0.00  0.00    -0.126 OA
ENDBRANCH   8  23
BRANCH  11  26
ATOM     26  O   UNL     1      -4.258   1.088   2.528  0.00  0.00    -0.505 OA
ATOM     27  H   UNL     1      -4.104   2.110   2.904  0.00  0.00    +0.292 HD
ENDBRANCH  11  26
TORSDOF 4
