REMARK  Name = ZINC47383653
REMARK  8 active torsions:
REMARK  status: ('A' for Active; 'I' for Inactive)
REMARK    1  A    between atoms: C_1  and  C_2
REMARK    2  A    between atoms: C_5  and  S_9
REMARK    3  A    between atoms: C_6  and  C_8
REMARK    4  A    between atoms: S_9  and  N_12
REMARK    5  A    between atoms: N_12  and  C_13
REMARK    6  A    between atoms: C_16  and  C_21
REMARK    7  A    between atoms: C_17  and  O_20
REMARK    8  A    between atoms: C_18  and  C_19
REMARK                            x       y       z     vdW  Elec       q    Type
REMARK                         _______ _______ _______ _____ _____    ______ ____
ROOT
ATOM      1  N   UNL     1       1.617  -4.936   0.451  0.00  0.00    -0.216 N 
ATOM      2  H   UNL     1       2.325  -5.347  -0.068  0.00  0.00    +0.174 HD
ENDROOT
BRANCH   1   3
ATOM      3  C   UNL     1       1.775  -4.752   1.827  0.00  0.00    +0.054 A 
ATOM      4  C   UNL     1       0.683  -4.883   2.676  0.00  0.00    +0.025 A 
ATOM      5  C   UNL     1       0.840  -4.701   4.036  0.00  0.00    +0.009 A 
ATOM      6  C   UNL     1       2.082  -4.389   4.556  0.00  0.00    -0.009 A 
ATOM      7  C   UNL     1       3.176  -4.257   3.712  0.00  0.00    +0.124 A 
ATOM      8  C   UNL     1       3.024  -4.444   2.347  0.00  0.00    +0.014 A 
ATOM      9  C   UNL     1       4.212  -4.307   1.430  0.00  0.00    +0.049 C 
ATOM     10  C   UNL     1       2.249  -4.191   6.040  0.00  0.00    +0.047 C 
BRANCH   7  11
ATOM     11  O   UNL     1       4.397  -3.950   4.225  0.00  0.00    -0.506 OA
ATOM     12  H   UNL     1       4.927  -4.722   4.468  0.00  0.00    +0.292 HD
ENDBRANCH   7  11
ENDBRANCH   1   3
BRANCH   1  13
ATOM     13  S   UNL     1       0.219  -4.451  -0.294  0.00  0.00    +0.073 S 
ATOM     14  O   UNL     1      -0.851  -5.068   0.409  0.00  0.00    -0.150 OA
ATOM     15  O   UNL     1       0.419  -4.633  -1.689  0.00  0.00    -0.150 OA
BRANCH  13  20
ATOM     16  C   UNL     1      -0.317   1.489   0.617  0.00  0.00    +0.044 C 
ATOM     17  C   UNL     1      -0.183   0.005   0.389  0.00  0.00    -0.050 A 
ATOM     18  C   UNL     1      -1.099  -0.865   0.950  0.00  0.00    +0.005 A 
ATOM     19  C   UNL     1      -0.976  -2.226   0.741  0.00  0.00    +0.029 A 
ATOM     20  C   UNL     1       0.062  -2.716  -0.029  0.00  0.00    +0.111 A 
ATOM     21  C   UNL     1       0.977  -1.846  -0.590  0.00  0.00    -0.024 A 
ATOM     22  C   UNL     1       0.852  -0.484  -0.385  0.00  0.00    +0.008 A 
ATOM     23  C   UNL     1       2.109  -2.381  -1.429  0.00  0.00    +0.046 C 
ENDBRANCH  13  20
ENDBRANCH   1  13
TORSDOF 4
