REMARK  Name = ZINC41068395
REMARK  7 active torsions:
REMARK  status: ('A' for Active; 'I' for Inactive)
REMARK    1  A    between atoms: C_1  and  N_2
REMARK    2  A    between atoms: N_2  and  C_3
REMARK    3  A    between atoms: N_2  and  S_11
REMARK    4  A    between atoms: C_3  and  C_4
REMARK    5  A    between atoms: C_9  and  O_10
REMARK    6  A    between atoms: S_11  and  C_14
REMARK    7  A    between atoms: C_16  and  N_19
REMARK                            x       y       z     vdW  Elec       q    Type
REMARK                         _______ _______ _______ _____ _____    ______ ____
ROOT
ATOM      1  C   UNL     1       0.086   1.468   0.003  0.00  0.00    +0.132 C 
ATOM      2  N   UNL     1      -0.007   0.006   0.006  0.00  0.00    -0.175 NA
ENDROOT
BRANCH   2   3
ATOM      3  S   UNL     1      -0.141  -0.819  -1.424  0.00  0.00    +0.067 S 
ATOM      4  O   UNL     1      -0.855  -2.014  -1.139  0.00  0.00    -0.152 OA
ATOM      5  O   UNL     1      -0.585   0.120  -2.394  0.00  0.00    -0.152 OA
BRANCH   3   6
ATOM      6  C   UNL     1       1.484  -1.304  -1.900  0.00  0.00    +0.144 A 
ATOM      7  C   UNL     1       2.155  -2.444  -1.604  0.00  0.00    +0.059 A 
ATOM      8  C   UNL     1       3.441  -2.613  -2.093  0.00  0.00    +0.034 A 
ATOM      9  C   UNL     1       3.987  -1.629  -2.854  0.00  0.00    +0.069 A 
ATOM     10  S   UNL     1       2.670  -0.424  -2.903  0.00  0.00    -0.075 S 
BRANCH   8  11
ATOM     11  N   UNL     1       4.168  -3.783  -1.805  0.00  0.00    -0.358 N 
ATOM     12  H   UNL     1       3.770  -4.481  -1.261  0.00  0.00    +0.142 HD
ATOM     13  H   UNL     1       5.067  -3.893  -2.152  0.00  0.00    +0.142 HD
ENDBRANCH   8  11
ENDBRANCH   3   6
ENDBRANCH   2   3
BRANCH   2  14
ATOM     14  C   UNL     1       0.018  -0.727   1.274  0.00  0.00    +0.148 C 
BRANCH  14  15
ATOM     15  C   UNL     1      -1.370  -0.765   1.860  0.00  0.00    +0.010 A 
ATOM     16  C   UNL     1      -2.437  -0.256   1.145  0.00  0.00    +0.008 A 
ATOM     17  C   UNL     1      -3.710  -0.289   1.682  0.00  0.00    +0.001 A 
ATOM     18  C   UNL     1      -3.920  -0.833   2.937  0.00  0.00    +0.004 A 
ATOM     19  C   UNL     1      -2.857  -1.343   3.656  0.00  0.00    +0.046 A 
ATOM     20  C   UNL     1      -1.579  -1.315   3.116  0.00  0.00    +0.121 A 
BRANCH  20  21
ATOM     21  O   UNL     1      -0.532  -1.822   3.819  0.00  0.00    -0.506 OA
ATOM     22  H   UNL     1      -0.094  -1.178   4.392  0.00  0.00    +0.292 HD
ENDBRANCH  20  21
ENDBRANCH  14  15
ENDBRANCH   2  14
TORSDOF 6
