REMARK  Name = ZINC44862641
REMARK  7 active torsions:
REMARK  status: ('A' for Active; 'I' for Inactive)
REMARK    1  A    between atoms: C_1  and  C_2
REMARK    2  A    between atoms: C_2  and  C_3
REMARK    3  A    between atoms: C_3  and  C_5
REMARK    4  A    between atoms: C_3  and  C_9
REMARK    5  A    between atoms: N_6  and  O_7
REMARK    6  A    between atoms: N_11  and  C_12
REMARK    7  A    between atoms: C_16  and  C_19
REMARK                            x       y       z     vdW  Elec       q    Type
REMARK                         _______ _______ _______ _____ _____    ______ ____
ROOT
ATOM      1  C   UNL     1      -0.173  -1.821  -2.401  0.00  0.00    +0.228 C 
ATOM      2  O   UNL     1       0.204  -2.324  -3.439  0.00  0.00    -0.275 OA
ATOM      3  N   UNL     1      -0.572  -2.604  -1.380  0.00  0.00    -0.283 N 
ATOM      4  H   UNL     1      -0.804  -2.207  -0.526  0.00  0.00    +0.155 HD
ENDROOT
BRANCH   3   5
ATOM      5  C   UNL     1      -0.652  -3.992  -1.551  0.00  0.00    +0.071 A 
ATOM      6  C   UNL     1       0.441  -4.795  -1.252  0.00  0.00    +0.064 A 
ATOM      7  C   UNL     1       0.358  -6.164  -1.422  0.00  0.00    +0.022 A 
ATOM      8  C   UNL     1      -0.811  -6.735  -1.889  0.00  0.00    +0.006 A 
ATOM      9  C   UNL     1      -1.901  -5.939  -2.188  0.00  0.00    -0.030 A 
ATOM     10  C   UNL     1      -1.828  -4.569  -2.015  0.00  0.00    +0.066 A 
ATOM     11 CL   UNL     1      -3.200  -3.571  -2.383  0.00  0.00    -0.081 Cl
ATOM     12  C   UNL     1      -3.174  -6.566  -2.698  0.00  0.00    +0.045 C 
ATOM     13 CL   UNL     1       1.910  -4.079  -0.665  0.00  0.00    -0.082 Cl
ENDBRANCH   3   5
BRANCH   1  14
ATOM     14  C   UNL     1      -0.194  -0.322  -2.255  0.00  0.00    +0.141 C 
BRANCH  14  15
ATOM     15  C   UNL     1       0.297   0.315  -3.529  0.00  0.00    +0.144 C 
ATOM     16  N   UNL     1       1.538   0.653  -3.646  0.00  0.00    -0.076 NA
ATOM     17  N   UNL     1      -0.578   0.537  -4.569  0.00  0.00    -0.343 N 
ATOM     18  H   UNL     1      -1.510   0.283  -4.482  0.00  0.00    +0.144 HD
ATOM     19  H   UNL     1      -0.262   0.947  -5.390  0.00  0.00    +0.144 HD
BRANCH  16  20
ATOM     20  O   UNL     1       1.999   1.251  -4.844  0.00  0.00    -0.408 OA
ATOM     21  H   UNL     1       2.941   1.469  -4.838  0.00  0.00    +0.328 HD
ENDBRANCH  16  20
ENDBRANCH  14  15
BRANCH  14  23
ATOM     22  C   UNL     1       0.598   1.598  -0.866  0.00  0.00    +0.005 C 
ATOM     23  C   UNL     1       0.716   0.090  -1.096  0.00  0.00    +0.017 C 
ENDBRANCH  14  23
ENDBRANCH   1  14
TORSDOF 5
