REMARK  Name = ZINC00926437
REMARK  12 active torsions:
REMARK  status: ('A' for Active; 'I' for Inactive)
REMARK    1  A    between atoms: C_1  and  C_2
REMARK    2  A    between atoms: C_2  and  O_3
REMARK    3  A    between atoms: O_3  and  C_4
REMARK    4  A    between atoms: C_4  and  C_6
REMARK    5  A    between atoms: C_6  and  N_7
REMARK    6  A    between atoms: C_8  and  C_12
REMARK    7  A    between atoms: C_12  and  N_13
REMARK    8  A    between atoms: N_13  and  C_14
REMARK    9  A    between atoms: N_13  and  C_24
REMARK   10  A    between atoms: C_14  and  C_15
REMARK   11  A    between atoms: C_24  and  C_25
REMARK   12  A    between atoms: C_31  and  C_37
REMARK                            x       y       z     vdW  Elec       q    Type
REMARK                         _______ _______ _______ _____ _____    ______ ____
ROOT
ATOM      1  N   UNL     1       3.152  -3.954   0.073  0.00  0.00    -0.287 NA
ENDROOT
BRANCH   1   2
ATOM      2  C   UNL     1       3.234  -4.246  -1.364  0.00  0.00    +0.163 C 
BRANCH   2   4
ATOM      3  N   UNL     1       0.853  -4.301  -2.276  0.00  0.00    -0.217 N 
ATOM      4  C   UNL     1       1.960  -4.912  -1.815  0.00  0.00    +0.166 A 
ATOM      5  N   UNL     1       1.714  -6.199  -1.835  0.00  0.00    -0.112 NA
ATOM      6  N   UNL     1       0.519  -6.370  -2.285  0.00  0.00    -0.023 NA
ATOM      7  N   UNL     1      -0.007  -5.224  -2.547  0.00  0.00    -0.043 NA
BRANCH   3   8
ATOM      8  C   UNL     1       0.658  -2.857  -2.434  0.00  0.00    +0.267 C 
BRANCH   8   9
ATOM      9  C   UNL     1       0.088  -2.285  -1.162  0.00  0.00    +0.329 C 
ATOM     10  O   UNL     1      -0.132  -3.008  -0.220  0.00  0.00    -0.249 OA
BRANCH   9  11
ATOM     11  O   UNL     1      -0.174  -0.971  -1.076  0.00  0.00    -0.464 OA
BRANCH  11  13
ATOM     12  C   UNL     1      -0.944   1.013   0.070  0.00  0.00    +0.048 C 
ATOM     13  C   UNL     1      -0.713  -0.497   0.160  0.00  0.00    +0.229 C 
ENDBRANCH  11  13
ENDBRANCH   9  11
ENDBRANCH   8   9
ENDBRANCH   3   8
ENDBRANCH   2   4
ENDBRANCH   1   2
BRANCH   1  14
ATOM     14  C   UNL     1       3.108  -5.194   0.861  0.00  0.00    +0.120 C 
BRANCH  14  15
ATOM     15  C   UNL     1       2.639  -4.884   2.259  0.00  0.00    -0.030 A 
ATOM     16  C   UNL     1       3.563  -4.670   3.265  0.00  0.00    +0.009 A 
ATOM     17  C   UNL     1       3.138  -4.386   4.549  0.00  0.00    +0.050 A 
ATOM     18  C   UNL     1       1.783  -4.315   4.831  0.00  0.00    +0.166 A 
ATOM     19  C   UNL     1       0.852  -4.530   3.817  0.00  0.00    +0.167 A 
ATOM     20  C   UNL     1       1.286  -4.809   2.531  0.00  0.00    +0.054 A 
ATOM     21  O   UNL     1      -0.401  -4.406   4.343  0.00  0.00    -0.453 OA
ATOM     22  C   UNL     1      -0.233  -4.517   5.769  0.00  0.00    +0.466 C 
ATOM     23  O   UNL     1       1.112  -4.056   5.991  0.00  0.00    -0.453 OA
ENDBRANCH  14  15
ENDBRANCH   1  14
BRANCH   1  24
ATOM     24  C   UNL     1       4.266  -3.098   0.501  0.00  0.00    +0.125 C 
BRANCH  24  25
ATOM     25  C   UNL     1       4.011  -1.681   0.056  0.00  0.00    +0.031 A 
ATOM     26  C   UNL     1       3.409  -0.806   0.899  0.00  0.00    +0.020 A 
ATOM     27  C   UNL     1       3.175   0.563   0.437  0.00  0.00    -0.001 A 
ATOM     28  C   UNL     1       2.559   1.510   1.262  0.00  0.00    +0.010 A 
ATOM     29  C   UNL     1       2.355   2.780   0.800  0.00  0.00    +0.001 A 
ATOM     30  C   UNL     1       2.755   3.139  -0.480  0.00  0.00    +0.005 A 
ATOM     31  C   UNL     1       3.363   2.222  -1.310  0.00  0.00    -0.026 A 
ATOM     32  C   UNL     1       3.581   0.923  -0.862  0.00  0.00    +0.052 A 
ATOM     33  N   UNL     1       4.189  -0.014  -1.670  0.00  0.00    -0.322 N 
ATOM     34  H   UNL     1       4.468   0.236  -2.565  0.00  0.00    +0.169 HD
ATOM     35  C   UNL     1       4.404  -1.267  -1.235  0.00  0.00    +0.254 A 
ATOM     36  O   UNL     1       4.948  -2.068  -1.975  0.00  0.00    -0.268 OA
ATOM     37  C   UNL     1       3.790   2.625  -2.698  0.00  0.00    +0.046 C 
ENDBRANCH  24  25
ENDBRANCH   1  24
TORSDOF 10
