REMARK  Name = ZINC01254597
REMARK  9 active torsions:
REMARK  status: ('A' for Active; 'I' for Inactive)
REMARK    1  A    between atoms: C_1  and  C_2
REMARK    2  A    between atoms: C_5  and  N_8
REMARK    3  A    between atoms: C_9  and  C_11
REMARK    4  A    between atoms: C_11  and  S_12
REMARK    5  A    between atoms: S_12  and  C_13
REMARK    6  A    between atoms: C_25  and  C_28
REMARK    7  A    between atoms: C_28  and  C_29
REMARK    8  A    between atoms: C_28  and  C_30
REMARK    9  A    between atoms: N_33  and  C_34
REMARK                            x       y       z     vdW  Elec       q    Type
REMARK                         _______ _______ _______ _____ _____    ______ ____
ROOT
ATOM      1  C   UNL     1       0.469  -8.721   2.644  0.00  0.00    +0.198 A 
ATOM      2  N   UNL     1       0.442  -9.379   1.511  0.00  0.00    -0.120 NA
ATOM      3  N   UNL     1       0.618 -10.739   1.794  0.00  0.00    -0.109 NA
ATOM      4  C   UNL     1       0.747 -10.871   3.094  0.00  0.00    +0.245 A 
ATOM      5  N   UNL     1       0.663  -9.624   3.656  0.00  0.00    -0.249 N 
ATOM      6  C   UNL     1       0.773  -9.468   5.022  0.00  0.00    +0.102 A 
ATOM      7  C   UNL     1       0.973 -10.554   5.868  0.00  0.00    +0.075 A 
ATOM      8  C   UNL     1       1.068 -10.232   7.289  0.00  0.00    -0.018 A 
ATOM      9  C   UNL     1       0.949  -8.920   7.586  0.00  0.00    +0.021 A 
ATOM     10  S   UNL     1       0.716  -8.130   6.024  0.00  0.00    -0.072 S 
ATOM     11  C   UNL     1       1.010  -8.320   8.956  0.00  0.00    +0.203 C 
ATOM     12  O   UNL     1       1.532  -9.317   9.848  0.00  0.00    -0.371 OA
ATOM     13  C   UNL     1       0.894 -10.591   9.726  0.00  0.00    +0.126 C 
ATOM     14  C   UNL     1       1.283 -11.252   8.399  0.00  0.00    +0.068 C 
ATOM     15  C   UNL     1       1.062 -11.885   5.224  0.00  0.00    +0.268 A 
ATOM     16  O   UNL     1       1.236 -12.881   5.901  0.00  0.00    -0.266 OA
ATOM     17  N   UNL     1       0.942 -11.989   3.890  0.00  0.00    -0.245 N 
ENDROOT
BRANCH  17  18
ATOM     18  C   UNL     1       1.029 -13.251   3.290  0.00  0.00    +0.053 A 
ATOM     19  C   UNL     1       0.025 -14.189   3.493  0.00  0.00    +0.026 A 
ATOM     20  C   UNL     1       0.115 -15.433   2.900  0.00  0.00    +0.002 A 
ATOM     21  C   UNL     1       1.202 -15.745   2.105  0.00  0.00    +0.000 A 
ATOM     22  C   UNL     1       2.204 -14.813   1.901  0.00  0.00    +0.002 A 
ATOM     23  C   UNL     1       2.118 -13.566   2.487  0.00  0.00    +0.026 A 
ENDBRANCH  17  18
BRANCH  13  24
ATOM     24  C   UNL     1       1.330 -11.490  10.884  0.00  0.00    +0.012 C 
ATOM     25  C   UNL     1       0.930 -10.843  12.212  0.00  0.00    +0.010 C 
ATOM     26  C   UNL     1       0.648 -12.854  10.756  0.00  0.00    +0.010 C 
ENDBRANCH  13  24
BRANCH   1  27
ATOM     27  S   UNL     1       0.294  -6.978   2.833  0.00  0.00    -0.076 S 
BRANCH  27  28
ATOM     28  C   UNL     1       0.069  -6.374   1.137  0.00  0.00    +0.173 C 
BRANCH  28  30
ATOM     29  N   UNL     1      -0.278  -4.204   0.002  0.00  0.00    -0.285 N 
ATOM     30  C   UNL     1      -0.096  -4.876   1.155  0.00  0.00    +0.227 C 
ATOM     31  O   UNL     1      -0.064  -4.275   2.209  0.00  0.00    -0.275 OA
ATOM     32  H   UNL     1      -0.378  -4.690  -0.832  0.00  0.00    +0.155 HD
BRANCH  29  37
ATOM     33  C   UNL     1      -0.457   1.466   0.018  0.00  0.00    +0.044 C 
ATOM     34  C   UNL     1      -0.409  -0.040   0.014  0.00  0.00    -0.050 A 
ATOM     35  C   UNL     1       0.398  -0.707   0.917  0.00  0.00    +0.005 A 
ATOM     36  C   UNL     1       0.444  -2.088   0.915  0.00  0.00    +0.023 A 
ATOM     37  C   UNL     1      -0.322  -2.805   0.006  0.00  0.00    +0.033 A 
ATOM     38  C   UNL     1      -1.132  -2.132  -0.899  0.00  0.00    +0.023 A 
ATOM     39  C   UNL     1      -1.177  -0.752  -0.889  0.00  0.00    +0.005 A 
ENDBRANCH  29  37
ENDBRANCH  28  30
ENDBRANCH  27  28
ENDBRANCH   1  27
TORSDOF 6
