REMARK  Name = ZINC31165394
REMARK  13 active torsions:
REMARK  status: ('A' for Active; 'I' for Inactive)
REMARK    1  A    between atoms: C_1  and  C_2
REMARK    2  A    between atoms: C_2  and  O_4
REMARK    3  A    between atoms: O_4  and  C_5
REMARK    4  A    between atoms: C_10  and  C_41
REMARK    5  A    between atoms: C_10  and  C_42
REMARK    6  A    between atoms: C_14  and  O_40
REMARK    7  A    between atoms: C_16  and  C_39
REMARK    8  A    between atoms: C_19  and  C_38
REMARK    9  A    between atoms: C_25  and  C_33
REMARK   10  A    between atoms: C_25  and  C_34
REMARK   11  A    between atoms: C_28  and  C_32
REMARK   12  A    between atoms: C_34  and  O_36
REMARK   13  A    between atoms: O_36  and  C_37
REMARK                            x       y       z     vdW  Elec       q    Type
REMARK                         _______ _______ _______ _____ _____    ______ ____
ROOT
ATOM      1  C   UNL     1      -3.354   1.725   6.276  0.00  0.00    +0.184 C 
ATOM      2  C   UNL     1      -3.067   2.084   7.736  0.00  0.00    +0.050 C 
ATOM      3  C   UNL     1      -4.384   2.098   8.508  0.00  0.00    +0.014 C 
ATOM      4  C   UNL     1      -4.245   2.747   9.869  0.00  0.00    +0.027 C 
ATOM      5  C   UNL     1      -5.443   2.482  10.747  0.00  0.00    +0.142 C 
ATOM      6  O   UNL     1      -5.770   3.323  11.569  0.00  0.00    -0.297 OA
ATOM      7  C   UNL     1      -6.240   1.211  10.638  0.00  0.00    +0.106 C 
ATOM      8  C   UNL     1      -6.392   0.803   9.175  0.00  0.00    +0.128 C 
ATOM      9  C   UNL     1      -5.004   0.705   8.515  0.00  0.00    +0.002 C 
ATOM     10  C   UNL     1      -5.194   0.231   7.079  0.00  0.00    +0.012 C 
ATOM     11  C   UNL     1      -3.964   0.316   6.183  0.00  0.00    +0.023 C 
ATOM     12  C   UNL     1      -4.412   0.086   4.749  0.00  0.00    +0.125 C 
ATOM     13  C   UNL     1      -3.301   0.133   3.734  0.00  0.00    +0.314 C 
ATOM     14  O   UNL     1      -2.189   0.523   4.021  0.00  0.00    -0.250 OA
ATOM     15  O   UNL     1      -3.569  -0.251   2.473  0.00  0.00    -0.439 OA
ATOM     16  C   UNL     1      -4.905  -0.526   2.015  0.00  0.00    +0.264 C 
ATOM     17  C   UNL     1      -5.823  -0.996   3.132  0.00  0.00    +0.198 C 
ATOM     18  O   UNL     1      -6.992  -1.184   2.900  0.00  0.00    -0.292 OA
ATOM     19  C   UNL     1      -5.200  -1.201   4.502  0.00  0.00    +0.065 C 
ATOM     20  C   UNL     1      -6.203  -1.455   5.584  0.00  0.00    -0.062 C 
ATOM     21  C   UNL     1      -7.408  -1.930   5.362  0.00  0.00    +0.008 C 
ATOM     22  C   UNL     1      -5.792  -1.173   7.024  0.00  0.00    +0.036 C 
ATOM     23  C   UNL     1      -4.274  -2.423   4.392  0.00  0.00    +0.025 C 
ATOM     24  C   UNL     1      -5.502   0.744   1.389  0.00  0.00    +0.077 C 
ATOM     25  C   UNL     1      -2.884  -0.695   6.565  0.00  0.00    +0.016 C 
ATOM     26  C   UNL     1      -4.178  -0.294   9.320  0.00  0.00    +0.014 C 
ATOM     27  C   UNL     1      -2.967   2.326  10.595  0.00  0.00    +0.019 C 
ATOM     28  C   UNL     1      -4.171   4.280   9.668  0.00  0.00    +0.019 C 
ENDROOT
BRANCH  16  29
ATOM     29  C   UNL     1      -4.859  -1.597   0.947  0.00  0.00    +0.359 C 
ATOM     30  O   UNL     1      -5.779  -2.372   0.826  0.00  0.00    -0.246 OA
BRANCH  29  31
ATOM     31  O   UNL     1      -3.795  -1.687   0.133  0.00  0.00    -0.465 OA
ATOM     32  C   UNL     1      -3.818  -2.738  -0.869  0.00  0.00    +0.280 C 
ENDBRANCH  29  31
ENDBRANCH  16  29
BRANCH   8  33
ATOM     33  O   UNL     1      -7.181   1.772   8.485  0.00  0.00    -0.391 OA
ATOM     34  H   UNL     1      -7.397   1.643   7.415  0.00  0.00    +0.210 HD
ENDBRANCH   8  33
BRANCH   1  35
ATOM     35  O   UNL     1      -4.273   2.695   5.711  0.00  0.00    -0.461 OA
BRANCH  35  37
ATOM     36  C   UNL     1      -4.628   4.839   4.540  0.00  0.00    +0.136 C 
ATOM     37  C   UNL     1      -3.735   3.788   5.148  0.00  0.00    +0.304 C 
ATOM     38  O   UNL     1      -2.536   3.930   5.129  0.00  0.00    -0.251 OA
ENDBRANCH  35  37
ENDBRANCH   1  35
TORSDOF 5
