REMARK  Name = ZINC28084146
REMARK  7 active torsions:
REMARK  status: ('A' for Active; 'I' for Inactive)
REMARK    1  A    between atoms: C_1  and  C_2
REMARK    2  A    between atoms: N_7  and  S_9
REMARK    3  A    between atoms: S_9  and  N_12
REMARK    4  A    between atoms: N_12  and  C_13
REMARK    5  A    between atoms: C_13  and  C_15
REMARK    6  A    between atoms: C_13  and  C_22
REMARK    7  A    between atoms: N_26  and  C_27
REMARK                            x       y       z     vdW  Elec       q    Type
REMARK                         _______ _______ _______ _____ _____    ______ ____
ROOT
ATOM      1  C   UNL     1       2.174  -1.998   4.152  0.00  0.00    +0.174 C 
ENDROOT
BRANCH   1   2
ATOM      2  C   UNL     1       2.632  -2.442   5.517  0.00  0.00    +0.014 A 
ATOM      3  C   UNL     1       2.998  -3.758   5.730  0.00  0.00    +0.008 A 
ATOM      4  C   UNL     1       3.418  -4.166   6.982  0.00  0.00    +0.001 A 
ATOM      5  C   UNL     1       3.475  -3.258   8.023  0.00  0.00    +0.003 A 
ATOM      6  C   UNL     1       3.111  -1.941   7.813  0.00  0.00    +0.039 A 
ATOM      7  C   UNL     1       2.694  -1.531   6.558  0.00  0.00    +0.129 A 
ATOM      8  F   UNL     1       2.342  -0.243   6.350  0.00  0.00    -0.205 F 
ENDBRANCH   1   2
BRANCH   1   9
ATOM      9  C   UNL     1       3.342  -1.427   3.391  0.00  0.00    +0.110 A 
ATOM     10  N   UNL     1       4.202  -2.113   2.689  0.00  0.00    -0.348 N 
ATOM     11  C   UNL     1       5.103  -1.277   2.152  0.00  0.00    +0.102 A 
ATOM     12  C   UNL     1       4.789  -0.025   2.536  0.00  0.00    +0.104 A 
ATOM     13  N   UNL     1       3.669  -0.119   3.317  0.00  0.00    -0.337 N 
ATOM     14  C   UNL     1       2.960   0.992   3.957  0.00  0.00    +0.150 C 
ATOM     15  H   UNL     1       4.191  -3.076   2.574  0.00  0.00    +0.166 HD
ENDBRANCH   1   9
BRANCH   1  16
ATOM     16  N   UNL     1       1.630  -3.146   3.422  0.00  0.00    -0.165 NA
ATOM     17  H   UNL     1       2.019  -4.026   3.543  0.00  0.00    +0.150 HD
BRANCH  16  18
ATOM     18  S   UNL     1       0.350  -2.942   2.392  0.00  0.00    +0.098 S 
ATOM     19  O   UNL     1      -0.630  -2.199   3.104  0.00  0.00    -0.141 OA
ATOM     20  O   UNL     1       0.077  -4.216   1.825  0.00  0.00    -0.141 OA
BRANCH  18  26
ATOM     21  C   UNL     1      -0.019   1.526   0.010  0.00  0.00    +0.009 C 
ATOM     22  C   UNL     1       0.002  -0.004   0.002  0.00  0.00    +0.002 C 
ATOM     23  C   UNL     1       0.720  -0.498  -1.256  0.00  0.00    +0.006 C 
ATOM     24  C   UNL     1       0.712  -2.028  -1.282  0.00  0.00    +0.017 C 
ATOM     25  C   UNL     1       1.463  -2.559  -0.057  0.00  0.00    +0.110 C 
ATOM     26  N   UNL     1       0.869  -1.973   1.153  0.00  0.00    -0.166 NA
ATOM     27  C   UNL     1       0.744  -0.512   1.242  0.00  0.00    +0.113 C 
ENDBRANCH  18  26
ENDBRANCH  16  18
ENDBRANCH   1  16
TORSDOF 5
