REMARK  Name = ZINC08940916
REMARK  11 active torsions:
REMARK  status: ('A' for Active; 'I' for Inactive)
REMARK    1  A    between atoms: C_1  and  C_2
REMARK    2  A    between atoms: C_2  and  C_3
REMARK    3  A    between atoms: C_3  and  N_4
REMARK    4  A    between atoms: N_9  and  C_16
REMARK    5  A    between atoms: C_12  and  S_14
REMARK    6  A    between atoms: S_14  and  C_15
REMARK    7  A    between atoms: C_16  and  C_17
REMARK    8  A    between atoms: C_17  and  N_18
REMARK    9  A    between atoms: C_19  and  C_21
REMARK   10  A    between atoms: N_26  and  C_28
REMARK   11  A    between atoms: C_31  and  C_34
REMARK                            x       y       z     vdW  Elec       q    Type
REMARK                         _______ _______ _______ _____ _____    ______ ____
ROOT
ATOM      1  C   UNL     1      -1.357   6.578   5.166  0.00  0.00    +0.127 C 
ENDROOT
BRANCH   1   2
ATOM      2  N   UNL     1      -2.068   6.493   6.444  0.00  0.00    -0.313 N 
ATOM      3  C   UNL     1      -1.377   6.466   7.600  0.00  0.00    +0.218 C 
ATOM      4  O   UNL     1      -0.165   6.512   7.583  0.00  0.00    -0.275 OA
ATOM      5  H   UNL     1      -3.038   6.456   6.457  0.00  0.00    +0.149 HD
BRANCH   3   6
ATOM      6  C   UNL     1      -2.109   6.378   8.915  0.00  0.00    +0.101 C 
ATOM      7  C   UNL     1      -3.028   7.605   9.119  0.00  0.00    +0.110 C 
ATOM      8  C   UNL     1      -2.176   8.580   9.901  0.00  0.00    +0.221 C 
ATOM      9  O   UNL     1      -2.413   9.763  10.028  0.00  0.00    -0.275 OA
ATOM     10  N   UNL     1      -1.119   7.945  10.436  0.00  0.00    -0.271 N 
ATOM     11  C   UNL     1      -1.131   6.516  10.102  0.00  0.00    +0.127 C 
BRANCH  10  12
ATOM     12  C   UNL     1      -0.134   8.567  11.211  0.00  0.00    +0.036 A 
ATOM     13  C   UNL     1      -0.140   9.947  11.368  0.00  0.00    +0.024 A 
ATOM     14  C   UNL     1       0.831  10.557  12.138  0.00  0.00    +0.005 A 
ATOM     15  C   UNL     1       1.814   9.797  12.744  0.00  0.00    -0.050 A 
ATOM     16  C   UNL     1       1.826   8.423  12.585  0.00  0.00    +0.005 A 
ATOM     17  C   UNL     1       0.855   7.806  11.821  0.00  0.00    +0.024 A 
ATOM     18  C   UNL     1       2.875  10.466  13.578  0.00  0.00    +0.044 C 
ENDBRANCH  10  12
ENDBRANCH   3   6
ENDBRANCH   1   2
BRANCH   1  19
ATOM     19  C   UNL     1      -2.368   6.592   4.019  0.00  0.00    +0.164 C 
BRANCH  19  25
ATOM     20  N   UNL     1       0.569   5.756  -1.231  0.00  0.00    -0.328 N 
ATOM     21  C   UNL     1      -0.057   5.277  -0.097  0.00  0.00    +0.134 A 
ATOM     22  C   UNL     1      -0.599   6.163   0.856  0.00  0.00    +0.078 A 
ATOM     23  C   UNL     1      -0.680   7.568   0.969  0.00  0.00    +0.148 A 
ATOM     24  N   UNL     1      -1.301   7.858   2.076  0.00  0.00    -0.177 NA
ATOM     25  N   UNL     1      -1.656   6.677   2.741  0.00  0.00    -0.245 N 
ATOM     26  C   UNL     1      -1.227   5.621   1.994  0.00  0.00    +0.164 A 
ATOM     27  N   UNL     1      -1.285   4.297   2.128  0.00  0.00    -0.202 NA
ATOM     28  C   UNL     1      -0.763   3.503   1.208  0.00  0.00    +0.192 A 
ATOM     29  N   UNL     1      -0.158   3.972   0.122  0.00  0.00    -0.206 NA
ATOM     30  H   UNL     1       0.639   6.712  -1.379  0.00  0.00    +0.147 HD
BRANCH  28  31
ATOM     31  S   UNL     1      -0.867   1.758   1.435  0.00  0.00    -0.089 S 
ATOM     32  C   UNL     1      -0.025   1.196  -0.065  0.00  0.00    +0.093 C 
ENDBRANCH  28  31
BRANCH  20  33
ATOM     33  C   UNL     1       1.126   4.820  -2.211  0.00  0.00    +0.102 C 
BRANCH  33  35
ATOM     34  C   UNL     1       2.340   4.626  -4.386  0.00  0.00    +0.005 C 
ATOM     35  C   UNL     1       1.758   5.604  -3.362  0.00  0.00    +0.015 C 
ENDBRANCH  33  35
ENDBRANCH  20  33
ENDBRANCH  19  25
ENDBRANCH   1  19
TORSDOF 8
