REMARK  Name = ZINC35807355
REMARK  3 active torsions:
REMARK  status: ('A' for Active; 'I' for Inactive)
REMARK    1  A    between atoms: C_1  and  C_2
REMARK    2  A    between atoms: C_22  and  C_30
REMARK    3  A    between atoms: C_30  and  C_32
REMARK                            x       y       z     vdW  Elec       q    Type
REMARK                         _______ _______ _______ _____ _____    ______ ____
ROOT
ATOM      1  C   UNL     1       0.048   1.581   0.174  0.00  0.00    +0.045 C 
ATOM      2  C   UNL     1       0.034   0.075   0.124  0.00  0.00    -0.029 A 
ATOM      3  C   UNL     1      -0.006  -0.573  -1.093  0.00  0.00    +0.005 A 
ATOM      4  C   UNL     1      -0.020  -1.954  -1.149  0.00  0.00    +0.001 A 
ATOM      5  C   UNL     1       0.007  -2.692   0.022  0.00  0.00    +0.004 A 
ATOM      6  C   UNL     1       0.047  -2.048   1.238  0.00  0.00    -0.026 A 
ATOM      7  C   UNL     1       0.067  -0.659   1.307  0.00  0.00    +0.039 A 
ATOM      8  N   UNL     1       0.115  -0.243   2.639  0.00  0.00    -0.286 N 
ATOM      9  C   UNL     1       0.137  -1.281   3.495  0.00  0.00    +0.212 C 
ATOM     10  O   UNL     1       0.179  -1.218   4.706  0.00  0.00    -0.277 OA
ATOM     11  C   UNL     1       0.086  -2.537   2.663  0.00  0.00    +0.060 C 
ATOM     12  C   UNL     1      -1.137  -3.384   2.990  0.00  0.00    +0.085 C 
ATOM     13  C   UNL     1      -1.757  -2.994   4.302  0.00  0.00    -0.011 A 
ATOM     14  C   UNL     1      -1.284  -2.935   5.594  0.00  0.00    +0.006 A 
ATOM     15  C   UNL     1      -2.117  -2.525   6.619  0.00  0.00    +0.000 A 
ATOM     16  C   UNL     1      -3.427  -2.175   6.343  0.00  0.00    +0.002 A 
ATOM     17  C   UNL     1      -3.905  -2.233   5.051  0.00  0.00    +0.023 A 
ATOM     18  C   UNL     1      -3.073  -2.645   4.013  0.00  0.00    +0.038 A 
ATOM     19  N   UNL     1      -3.319  -2.782   2.645  0.00  0.00    -0.285 N 
ATOM     20  C   UNL     1      -2.233  -3.211   1.974  0.00  0.00    +0.228 C 
ATOM     21  O   UNL     1      -2.153  -3.417   0.781  0.00  0.00    -0.275 OA
ATOM     22  C   UNL     1      -0.631  -4.834   3.022  0.00  0.00    +0.066 C 
ATOM     23  C   UNL     1       0.858  -4.688   3.378  0.00  0.00    -0.055 C 
ATOM     24  N   UNL     1       1.287  -3.354   2.899  0.00  0.00    +0.395 N 
ATOM     25  C   UNL     1       1.958  -3.579   1.592  0.00  0.00    -0.076 C 
ATOM     26  C   UNL     1       2.681  -4.936   1.768  0.00  0.00    -0.020 C 
ATOM     27  C   UNL     1       1.687  -5.755   2.651  0.00  0.00    -0.016 C 
ATOM     28  H   UNL     1       0.131   0.687   2.915  0.00  0.00    +0.155 HD
ATOM     29  H   UNL     1      -4.173  -2.591   2.227  0.00  0.00    +0.155 HD
ATOM     30  H   UNL     1       1.901  -2.910   3.565  0.00  0.00    -0.079 HD
ENDROOT
BRANCH  22  31
ATOM     31  C   UNL     1      -1.358  -5.626   4.079  0.00  0.00    +0.166 C 
ATOM     32  O   UNL     1      -0.891  -5.719   5.195  0.00  0.00    -0.292 OA
BRANCH  31  33
ATOM     33  C   UNL     1      -2.630  -6.285   3.757  0.00  0.00    +0.021 A 
ATOM     34  C   UNL     1      -3.108  -6.285   2.442  0.00  0.00    +0.015 A 
ATOM     35  C   UNL     1      -4.301  -6.904   2.143  0.00  0.00    +0.050 A 
ATOM     36  C   UNL     1      -5.035  -7.530   3.144  0.00  0.00    +0.166 A 
ATOM     37  C   UNL     1      -4.564  -7.534   4.459  0.00  0.00    +0.167 A 
ATOM     38  C   UNL     1      -3.366  -6.921   4.765  0.00  0.00    +0.061 A 
ATOM     39  O   UNL     1      -5.460  -8.207   5.239  0.00  0.00    -0.453 OA
ATOM     40  C   UNL     1      -6.676  -8.258   4.470  0.00  0.00    +0.466 C 
ATOM     41  O   UNL     1      -6.221  -8.200   3.105  0.00  0.00    -0.453 OA
ENDBRANCH  31  33
ENDBRANCH  22  31
TORSDOF 2
