REMARK  Name = ZINC00083354
REMARK  5 active torsions:
REMARK  status: ('A' for Active; 'I' for Inactive)
REMARK    1  A    between atoms: C_1  and  C_2
REMARK    2  A    between atoms: C_2  and  C_4
REMARK    3  A    between atoms: C_2  and  C_10
REMARK    4  A    between atoms: C_24  and  N_28
REMARK    5  A    between atoms: C_25  and  C_26
REMARK                            x       y       z     vdW  Elec       q    Type
REMARK                         _______ _______ _______ _____ _____    ______ ____
ROOT
ATOM      1  C   UNL     1      -1.338  -0.742   0.022  0.00  0.00    +0.082 C 
ATOM      2  C   UNL     1      -1.089  -2.224   0.104  0.00  0.00    +0.089 A 
ATOM      3  C   UNL     1      -1.234  -3.015  -0.997  0.00  0.00    +0.151 A 
ATOM      4  C   UNL     1      -0.980  -4.457  -0.856  0.00  0.00    +0.060 A 
ATOM      5  C   UNL     1      -1.113  -5.322  -1.944  0.00  0.00    +0.015 A 
ATOM      6  C   UNL     1      -0.867  -6.667  -1.778  0.00  0.00    +0.001 A 
ATOM      7  C   UNL     1      -0.488  -7.162  -0.538  0.00  0.00    +0.004 A 
ATOM      8  C   UNL     1      -0.353  -6.318   0.544  0.00  0.00    +0.047 A 
ATOM      9  C   UNL     1      -0.597  -4.959   0.398  0.00  0.00    +0.143 A 
ATOM     10  O   UNL     1      -0.470  -4.117   1.447  0.00  0.00    -0.422 OA
ATOM     11  C   UNL     1      -0.705  -2.801   1.328  0.00  0.00    +0.345 A 
ATOM     12  O   UNL     1      -0.581  -2.086   2.307  0.00  0.00    -0.245 OA
ATOM     13  O   UNL     1      -1.598  -2.504  -2.188  0.00  0.00    -0.440 OA
ATOM     14  C   UNL     1      -2.192  -1.299  -2.249  0.00  0.00    +0.198 C 
ATOM     15  C   UNL     1      -2.105  -0.416  -1.229  0.00  0.00    +0.094 C 
ENDROOT
BRANCH  14  16
ATOM     16  N   UNL     1      -2.902  -0.958  -3.373  0.00  0.00    -0.328 N 
ATOM     17  H   UNL     1      -2.971  -1.583  -4.112  0.00  0.00    +0.145 HD
ATOM     18  H   UNL     1      -3.334  -0.091  -3.430  0.00  0.00    +0.145 HD
ENDBRANCH  14  16
BRANCH   1  20
ATOM     19  C   UNL     1      -0.241   1.488  -0.237  0.00  0.00    +0.013 C 
ATOM     20  C   UNL     1       0.002  -0.004   0.002  0.00  0.00    +0.029 C 
BRANCH  20  21
ATOM     21  C   UNL     1       0.700  -0.194   1.324  0.00  0.00    -0.044 A 
ATOM     22  C   UNL     1       0.230   0.452   2.453  0.00  0.00    +0.004 A 
ATOM     23  C   UNL     1       0.870   0.278   3.665  0.00  0.00    +0.000 A 
ATOM     24  C   UNL     1       1.980  -0.542   3.750  0.00  0.00    +0.000 A 
ATOM     25  C   UNL     1       2.449  -1.188   2.622  0.00  0.00    +0.000 A 
ATOM     26  C   UNL     1       1.806  -1.018   1.410  0.00  0.00    +0.004 A 
ENDBRANCH  20  21
ENDBRANCH   1  20
BRANCH  15  27
ATOM     27  C   UNL     1      -2.757   0.853  -1.345  0.00  0.00    +0.100 C 
ATOM     28  N   UNL     1      -3.274   1.861  -1.437  0.00  0.00    -0.191 NA
ENDBRANCH  15  27
TORSDOF 4
