REMARK  Name = ZINC12289305
REMARK  9 active torsions:
REMARK  status: ('A' for Active; 'I' for Inactive)
REMARK    1  A    between atoms: C_1  and  C_2
REMARK    2  A    between atoms: C_5  and  C_7
REMARK    3  A    between atoms: C_9  and  C_20
REMARK    4  A    between atoms: C_10  and  C_19
REMARK    5  A    between atoms: C_15  and  S_17
REMARK    6  A    between atoms: S_17  and  C_18
REMARK    7  A    between atoms: N_22  and  C_23
REMARK    8  A    between atoms: C_28  and  O_29
REMARK    9  A    between atoms: O_29  and  C_30
REMARK                            x       y       z     vdW  Elec       q    Type
REMARK                         _______ _______ _______ _____ _____    ______ ____
ROOT
ATOM      1  C   UNL     1      -4.592   2.482   3.442  0.00  0.00    +0.213 C 
ATOM      2  C   UNL     1      -5.023   1.300   2.616  0.00  0.00    +0.063 C 
ATOM      3  C   UNL     1      -5.758   1.415   1.500  0.00  0.00    +0.018 C 
ATOM      4  N   UNL     1      -6.169   2.634   1.018  0.00  0.00    -0.287 N 
ATOM      5  C   UNL     1      -5.585   3.768   1.566  0.00  0.00    +0.220 A 
ATOM      6  N   UNL     1      -4.840   3.713   2.697  0.00  0.00    -0.217 N 
ATOM      7  N   UNL     1      -4.406   5.013   2.953  0.00  0.00    -0.141 NA
ATOM      8  C   UNL     1      -4.899   5.771   1.997  0.00  0.00    +0.210 A 
ATOM      9  N   UNL     1      -5.614   5.008   1.159  0.00  0.00    -0.187 NA
ATOM     10  C   UNL     1      -6.146   0.166   0.752  0.00  0.00    +0.061 C 
ATOM     11  H   UNL     1      -6.840   2.699   0.321  0.00  0.00    +0.155 HD
ENDROOT
BRANCH   1  16
ATOM     12  C   UNL     1       0.398   2.084   2.821  0.00  0.00    +0.086 C 
ATOM     13  C   UNL     1      -0.952   2.197   3.482  0.00  0.00    +0.102 A 
ATOM     14  C   UNL     1      -1.178   2.229   4.808  0.00  0.00    +0.045 A 
ATOM     15  C   UNL     1      -2.577   2.340   4.982  0.00  0.00    +0.047 A 
ATOM     16  C   UNL     1      -3.122   2.370   3.752  0.00  0.00    +0.134 A 
ATOM     17  O   UNL     1      -2.132   2.288   2.848  0.00  0.00    -0.462 OA
ENDBRANCH   1  16
BRANCH   2  18
ATOM     18  C   UNL     1      -4.632   0.006   3.035  0.00  0.00    +0.248 C 
ATOM     19  O   UNL     1      -5.167  -0.508   4.001  0.00  0.00    -0.270 OA
ATOM     20  N   UNL     1      -3.669  -0.657   2.366  0.00  0.00    -0.279 N 
ATOM     21  H   UNL     1      -3.188  -0.219   1.647  0.00  0.00    +0.155 HD
BRANCH  20  22
ATOM     22  C   UNL     1      -3.361  -1.980   2.709  0.00  0.00    +0.076 A 
ATOM     23  C   UNL     1      -3.520  -2.414   4.018  0.00  0.00    +0.027 A 
ATOM     24  C   UNL     1      -3.220  -3.721   4.353  0.00  0.00    +0.002 A 
ATOM     25  C   UNL     1      -2.753  -4.596   3.389  0.00  0.00    +0.004 A 
ATOM     26  C   UNL     1      -2.587  -4.169   2.085  0.00  0.00    +0.047 A 
ATOM     27  C   UNL     1      -2.890  -2.862   1.739  0.00  0.00    +0.141 A 
BRANCH  27  28
ATOM     28  O   UNL     1      -2.728  -2.441   0.457  0.00  0.00    -0.493 OA
ATOM     29  C   UNL     1      -2.241  -3.400  -0.484  0.00  0.00    +0.277 C 
ENDBRANCH  27  28
ENDBRANCH  20  22
ENDBRANCH   2  18
BRANCH   8  30
ATOM     30  S   UNL     1      -4.657   7.510   1.843  0.00  0.00    -0.088 S 
ATOM     31  C   UNL     1      -5.577   7.950   0.344  0.00  0.00    +0.093 C 
ENDBRANCH   8  30
TORSDOF 5
