REMARK  Name = ZINC02181763
REMARK  17 active torsions:
REMARK  status: ('A' for Active; 'I' for Inactive)
REMARK    1  A    between atoms: C_1  and  C_2
REMARK    2  A    between atoms: C_2  and  C_29
REMARK    3  A    between atoms: C_4  and  N_9
REMARK    4  A    between atoms: C_6  and  C_7
REMARK    5  A    between atoms: C_6  and  C_8
REMARK    6  A    between atoms: C_10  and  C_12
REMARK    7  A    between atoms: C_12  and  C_13
REMARK    8  A    between atoms: C_13  and  C_14
REMARK    9  A    between atoms: C_16  and  C_25
REMARK   10  A    between atoms: C_17  and  O_24
REMARK   11  A    between atoms: C_18  and  C_20
REMARK   12  A    between atoms: C_20  and  C_21
REMARK   13  A    between atoms: C_20  and  C_22
REMARK   14  A    between atoms: C_20  and  C_23
REMARK   15  A    between atoms: C_25  and  C_26
REMARK   16  A    between atoms: C_25  and  C_27
REMARK   17  A    between atoms: C_25  and  C_28
REMARK                            x       y       z     vdW  Elec       q    Type
REMARK                         _______ _______ _______ _____ _____    ______ ____
ROOT
ATOM      1  C   UNL     1       2.921   0.803  -1.464  0.00  0.00    +0.100 C 
ENDROOT
BRANCH   1   3
ATOM      2  N   UNL     1       4.811  -0.258  -2.655  0.00  0.00    -0.313 N 
ATOM      3  C   UNL     1       4.235   0.066  -1.481  0.00  0.00    +0.214 C 
ATOM      4  O   UNL     1       4.774  -0.237  -0.437  0.00  0.00    -0.276 OA
ATOM      5  H   UNL     1       4.380  -0.016  -3.490  0.00  0.00    +0.149 HD
BRANCH   2   9
ATOM      6  C   UNL     1       7.494  -3.720  -3.129  0.00  0.00    -0.010 C 
ATOM      7  C   UNL     1       7.554  -2.487  -4.039  0.00  0.00    -0.072 C 
ATOM      8  C   UNL     1       6.220  -1.748  -3.985  0.00  0.00    +0.009 C 
ATOM      9  C   UNL     1       6.091  -0.976  -2.671  0.00  0.00    +0.070 C 
ATOM     10  C   UNL     1       7.236   0.033  -2.587  0.00  0.00    +0.009 C 
ATOM     11  C   UNL     1       8.582  -0.687  -2.623  0.00  0.00    -0.072 C 
ATOM     12  C   UNL     1       8.844  -1.353  -1.267  0.00  0.00    -0.010 C 
ATOM     13  C   UNL     1       9.677   0.385  -2.824  0.00  0.00    -0.010 C 
ATOM     14  C   UNL     1       7.744  -2.996  -5.486  0.00  0.00    -0.010 C 
ATOM     15  N   UNL     1       8.748  -1.650  -3.744  0.00  0.00    +0.386 N 
ATOM     16  H   UNL     1       8.979  -1.117  -4.590  0.00  0.00    -0.084 HD
ATOM     17  H   UNL     1       9.526  -2.278  -3.512  0.00  0.00    -0.084 HD
ENDBRANCH   2   9
ENDBRANCH   1   3
BRANCH   1  18
ATOM     18  C   UNL     1       2.490   1.045  -0.016  0.00  0.00    +0.044 C 
BRANCH  18  19
ATOM     19  C   UNL     1       1.176   1.783   0.000  0.00  0.00    -0.046 A 
ATOM     20  C   UNL     1      -0.013   1.076   0.008  0.00  0.00    +0.011 A 
ATOM     21  C   UNL     1      -1.218   1.750   0.017  0.00  0.00    -0.000 A 
ATOM     22  C   UNL     1      -1.237   3.137   0.031  0.00  0.00    +0.124 A 
ATOM     23  C   UNL     1      -0.043   3.844   0.024  0.00  0.00    -0.000 A 
ATOM     24  C   UNL     1       1.160   3.165   0.008  0.00  0.00    +0.011 A 
BRANCH  23  25
ATOM     25  C   UNL     1      -0.059   5.351   0.032  0.00  0.00    -0.009 C 
ATOM     26  C   UNL     1       1.378   5.876   0.021  0.00  0.00    +0.015 C 
ATOM     27  C   UNL     1      -0.797   5.860  -1.208  0.00  0.00    +0.015 C 
ATOM     28  C   UNL     1      -0.774   5.846   1.291  0.00  0.00    +0.015 C 
ENDBRANCH  23  25
BRANCH  21  29
ATOM     29  C   UNL     1      -2.513   0.979   0.019  0.00  0.00    -0.009 C 
ATOM     30  C   UNL     1      -2.213  -0.522   0.009  0.00  0.00    +0.015 C 
ATOM     31  C   UNL     1      -3.315   1.330   1.274  0.00  0.00    +0.015 C 
ATOM     32  C   UNL     1      -3.326   1.344  -1.225  0.00  0.00    +0.015 C 
ENDBRANCH  21  29
BRANCH  22  33
ATOM     33  O   UNL     1      -2.422   3.802   0.046  0.00  0.00    -0.506 OA
ATOM     34  H   UNL     1      -2.773   4.000  -0.833  0.00  0.00    +0.292 HD
ENDBRANCH  22  33
ENDBRANCH  18  19
ENDBRANCH   1  18
TORSDOF 7
