REMARK  Name = ZINC39687843
REMARK  3 active torsions:
REMARK  status: ('A' for Active; 'I' for Inactive)
REMARK    1  A    between atoms: C_10  and  N_13
REMARK    2  A    between atoms: C_14  and  C_16
REMARK    3  A    between atoms: C_27  and  C_29
REMARK                            x       y       z     vdW  Elec       q    Type
REMARK                         _______ _______ _______ _____ _____    ______ ____
ROOT
ATOM      1  C   UNL     1       8.240  -4.526   2.900  0.00  0.00    +0.100 C 
ATOM      2  C   UNL     1       7.440  -4.879   4.174  0.00  0.00    +0.121 C 
ATOM      3  N   UNL     1       7.108  -6.315   4.022  0.00  0.00    -0.300 N 
ATOM      4  C   UNL     1       8.328  -6.915   3.431  0.00  0.00    +0.115 C 
ATOM      5  C   UNL     1       8.824  -5.864   2.418  0.00  0.00    -0.004 C 
ATOM      6  C   UNL     1      10.349  -5.807   2.420  0.00  0.00    -0.010 C 
ATOM      7  C   UNL     1      10.906  -7.128   1.881  0.00  0.00    -0.082 C 
ATOM      8  N   UNL     1      10.406  -7.352   0.519  0.00  0.00    +0.379 N 
ATOM      9  C   UNL     1       8.946  -7.499   0.539  0.00  0.00    -0.082 C 
ATOM     10  C   UNL     1       8.306  -6.194   1.021  0.00  0.00    -0.010 C 
ATOM     11  C   UNL     1       5.957  -6.935   4.349  0.00  0.00    +0.219 C 
ATOM     12  O   UNL     1       5.837  -8.128   4.162  0.00  0.00    -0.275 OA
ATOM     13  H   UNL     1      10.656  -6.567  -0.063  0.00  0.00    -0.086 HD
ATOM     14  H   UNL     1      10.822  -8.191   0.144  0.00  0.00    -0.086 HD
ENDROOT
BRANCH  11  15
ATOM     15  C   UNL     1       4.819  -6.148   4.945  0.00  0.00    +0.079 C 
ATOM     16  C   UNL     1       3.639  -7.084   5.232  0.00  0.00    +0.017 C 
ATOM     17  C   UNL     1       2.442  -6.235   5.667  0.00  0.00    +0.027 C 
ATOM     18  C   UNL     1       2.855  -5.271   6.740  0.00  0.00    -0.031 C 
ATOM     19  C   UNL     1       4.083  -4.954   6.997  0.00  0.00    -0.030 C 
ATOM     20  C   UNL     1       5.269  -5.510   6.261  0.00  0.00    +0.039 C 
ENDBRANCH  11  15
BRANCH   1  22
ATOM     21  N   UNL     1       7.812  -3.073   0.945  0.00  0.00    -0.312 N 
ATOM     22  C   UNL     1       7.327  -3.943   1.852  0.00  0.00    +0.218 C 
ATOM     23  O   UNL     1       6.157  -4.258   1.825  0.00  0.00    -0.275 OA
ATOM     24  H   UNL     1       8.749  -2.821   0.967  0.00  0.00    +0.149 HD
BRANCH  21  34
ATOM     25  C   UNL     1       5.929   3.280  -3.526  0.00  0.00    +0.021 A 
ATOM     26  C   UNL     1       5.029   2.322  -3.974  0.00  0.00    +0.025 A 
ATOM     27  C   UNL     1       5.054   1.067  -3.391  0.00  0.00    +0.081 A 
ATOM     28  C   UNL     1       5.977   0.810  -2.380  0.00  0.00    +0.140 A 
ATOM     29  N   UNL     1       6.818   1.751  -1.980  0.00  0.00    -0.239 NA
ATOM     30  C   UNL     1       6.815   2.956  -2.519  0.00  0.00    +0.113 A 
ATOM     31  N   UNL     1       6.014  -0.446  -1.784  0.00  0.00    -0.314 N 
ATOM     32  C   UNL     1       6.815  -1.529  -2.370  0.00  0.00    +0.108 C 
ATOM     33  C   UNL     1       7.750  -2.089  -1.293  0.00  0.00    +0.041 C 
ATOM     34  C   UNL     1       6.925  -2.506  -0.074  0.00  0.00    +0.076 C 
ATOM     35  C   UNL     1       6.205  -1.284   0.500  0.00  0.00    +0.041 C 
ATOM     36  C   UNL     1       5.257  -0.713  -0.553  0.00  0.00    +0.108 C 
ATOM     37 CL   UNL     1       3.952  -0.168  -3.912  0.00  0.00    -0.080 Cl
ENDBRANCH  21  34
ENDBRANCH   1  22
TORSDOF 3
