REMARK  Name = ZINC33810615
REMARK  10 active torsions:
REMARK  status: ('A' for Active; 'I' for Inactive)
REMARK    1  A    between atoms: C_1  and  C_2
REMARK    2  A    between atoms: C_5  and  C_8
REMARK    3  A    between atoms: C_8  and  S_9
REMARK    4  A    between atoms: S_9  and  C_10
REMARK    5  A    between atoms: C_17  and  C_29
REMARK    6  A    between atoms: C_23  and  C_27
REMARK    7  A    between atoms: C_23  and  C_28
REMARK    8  A    between atoms: C_32  and  C_35
REMARK    9  A    between atoms: C_35  and  O_37
REMARK   10  A    between atoms: O_37  and  C_38
REMARK                            x       y       z     vdW  Elec       q    Type
REMARK                         _______ _______ _______ _____ _____    ______ ____
ROOT
ATOM      1  C   UNL     1      -1.067   6.120   1.242  0.00  0.00    +0.171 A 
ATOM      2  N   UNL     1       0.054   5.463   0.832  0.00  0.00    -0.208 NA
ATOM      3  C   UNL     1      -0.023   4.153   0.438  0.00  0.00    +0.135 A 
ATOM      4  C   UNL     1      -1.228   3.522   0.458  0.00  0.00    +0.069 A 
ATOM      5  C   UNL     1      -2.365   4.237   0.893  0.00  0.00    +0.258 A 
ATOM      6  O   UNL     1      -3.459   3.692   0.926  0.00  0.00    -0.267 OA
ATOM      7  N   UNL     1      -2.238   5.519   1.270  0.00  0.00    -0.302 N 
ATOM      8  C   UNL     1      -1.357   2.092   0.020  0.00  0.00    +0.092 C 
ATOM      9  C   UNL     1      -0.017   1.402   0.010  0.00  0.00    +0.024 C 
ATOM     10  C   UNL     1       1.131   2.112   0.003  0.00  0.00    +0.017 C 
ATOM     11  N   UNL     1       1.103   3.481   0.026  0.00  0.00    -0.302 N 
ATOM     12  C   UNL     1       2.472   1.423  -0.028  0.00  0.00    +0.058 C 
ATOM     13  C   UNL     1       2.375   0.076   0.691  0.00  0.00    -0.023 C 
ATOM     14  C   UNL     1       1.298  -0.767  -0.001  0.00  0.00    +0.086 C 
ATOM     15  C   UNL     1       0.002  -0.004   0.002  0.00  0.00    +0.162 C 
ATOM     16  O   UNL     1      -1.049  -0.614  -0.003  0.00  0.00    -0.292 OA
ATOM     17  C   UNL     1       1.989   0.301   2.155  0.00  0.00    +0.011 C 
ATOM     18  C   UNL     1       3.720  -0.649   0.620  0.00  0.00    +0.011 C 
ATOM     19  H   UNL     1       1.995   4.043  -0.289  0.00  0.00    +0.153 HD
ATOM     20  H   UNL     1      -3.130   6.067   1.606  0.00  0.00    +0.171 HD
ENDROOT
BRANCH   8  21
ATOM     21  C   UNL     1      -1.945   2.050  -1.367  0.00  0.00    -0.035 A 
ATOM     22  C   UNL     1      -1.269   2.642  -2.420  0.00  0.00    +0.005 A 
ATOM     23  C   UNL     1      -1.799   2.603  -3.693  0.00  0.00    +0.015 A 
ATOM     24  C   UNL     1      -3.025   1.974  -3.916  0.00  0.00    +0.059 A 
ATOM     25  C   UNL     1      -3.704   1.383  -2.849  0.00  0.00    +0.015 A 
ATOM     26  C   UNL     1      -3.160   1.425  -1.581  0.00  0.00    +0.005 A 
BRANCH  24  27
ATOM     27  C   UNL     1      -3.601   1.933  -5.276  0.00  0.00    +0.339 C 
ATOM     28  O   UNL     1      -4.668   1.384  -5.467  0.00  0.00    -0.245 OA
BRANCH  27  29
ATOM     29  O   UNL     1      -2.943   2.503  -6.303  0.00  0.00    -0.464 OA
ATOM     30  C   UNL     1      -3.569   2.425  -7.612  0.00  0.00    +0.280 C 
ENDBRANCH  27  29
ENDBRANCH  24  27
ENDBRANCH   8  21
BRANCH   1  31
ATOM     31  S   UNL     1      -0.947   7.805   1.744  0.00  0.00    -0.083 S 
BRANCH  31  32
ATOM     32  C   UNL     1      -2.677   8.132   2.163  0.00  0.00    +0.112 C 
BRANCH  32  37
ATOM     33  C   UNL     1      -3.226  13.596   3.963  0.00  0.00    +0.044 C 
ATOM     34  C   UNL     1      -3.083  12.171   3.493  0.00  0.00    -0.050 A 
ATOM     35  C   UNL     1      -3.223  11.867   2.152  0.00  0.00    +0.003 A 
ATOM     36  C   UNL     1      -3.092  10.560   1.721  0.00  0.00    +0.005 A 
ATOM     37  C   UNL     1      -2.820   9.557   2.632  0.00  0.00    -0.037 A 
ATOM     38  C   UNL     1      -2.685   9.859   3.974  0.00  0.00    +0.005 A 
ATOM     39  C   UNL     1      -2.812  11.167   4.404  0.00  0.00    +0.003 A 
ENDBRANCH  32  37
ENDBRANCH  31  32
ENDBRANCH   1  31
TORSDOF 6
