REMARK  Name = ZINC49543788
REMARK  3 active torsions:
REMARK  status: ('A' for Active; 'I' for Inactive)
REMARK    1  A    between atoms: C_10  and  C_12
REMARK    2  A    between atoms: C_12  and  N_13
REMARK    3  A    between atoms: C_14  and  C_16
REMARK                            x       y       z     vdW  Elec       q    Type
REMARK                         _______ _______ _______ _____ _____    ______ ____
ROOT
ATOM      1  N   UNL     1       5.960  -0.669  -1.022  0.00  0.00    -0.308 N 
ATOM      2  C   UNL     1       6.941  -0.242  -1.841  0.00  0.00    +0.249 C 
ATOM      3  O   UNL     1       6.723   0.652  -2.637  0.00  0.00    -0.270 OA
ATOM      4  H   UNL     1       6.111  -1.430  -0.440  0.00  0.00    +0.149 HD
ENDROOT
BRANCH   2   5
ATOM      5  C   UNL     1       8.276  -0.856  -1.773  0.00  0.00    +0.101 A 
ATOM      6  C   UNL     1       9.331  -0.348  -2.525  0.00  0.00    +0.023 A 
ATOM      7  C   UNL     1      10.588  -0.955  -2.438  0.00  0.00    -0.027 A 
ATOM      8  C   UNL     1      10.771  -2.028  -1.626  0.00  0.00    +0.022 A 
ATOM      9  N   UNL     1       9.741  -2.525  -0.890  0.00  0.00    -0.325 N 
ATOM     10  H   UNL     1       9.896  -3.292  -0.317  0.00  0.00    +0.169 HD
ATOM     11  C   UNL     1       8.515  -1.976  -0.934  0.00  0.00    +0.261 A 
ATOM     12  O   UNL     1       7.612  -2.440  -0.260  0.00  0.00    -0.267 OA
ATOM     13  C   UNL     1      12.210  -2.499  -1.707  0.00  0.00    +0.054 C 
ATOM     14  C   UNL     1      12.771  -1.856  -2.993  0.00  0.00    +0.011 C 
ATOM     15  C   UNL     1      11.882  -0.603  -3.141  0.00  0.00    +0.037 C 
ENDBRANCH   2   5
BRANCH   1  16
ATOM     16  C   UNL     1       4.665   0.017  -1.011  0.00  0.00    +0.141 C 
BRANCH  16  26
ATOM     17  C   UNL     1      -0.001   1.411   0.037  0.00  0.00    +0.000 A 
ATOM     18  C   UNL     1       1.190   2.113   0.014  0.00  0.00    +0.000 A 
ATOM     19  C   UNL     1       2.390   1.431   0.001  0.00  0.00    +0.006 A 
ATOM     20  C   UNL     1       2.408   0.045   0.008  0.00  0.00    -0.014 A 
ATOM     21  C   UNL     1       1.219  -0.655   0.027  0.00  0.00    -0.040 A 
ATOM     22  C   UNL     1       0.015   0.030   0.044  0.00  0.00    +0.004 A 
ATOM     23  C   UNL     1       1.197  -2.162   0.023  0.00  0.00    +0.063 C 
ATOM     24  C   UNL     1       2.572  -2.701   0.420  0.00  0.00    +0.165 C 
ATOM     25  O   UNL     1       3.567  -2.032  -0.363  0.00  0.00    -0.370 OA
ATOM     26  C   UNL     1       3.738  -0.662  -0.001  0.00  0.00    +0.165 C 
ENDBRANCH  16  26
ENDBRANCH   1  16
TORSDOF 3
