REMARK  Name = ZINC13148260
REMARK  8 active torsions:
REMARK  status: ('A' for Active; 'I' for Inactive)
REMARK    1  A    between atoms: C_4  and  C_7
REMARK    2  A    between atoms: C_7  and  C_8
REMARK    3  A    between atoms: C_8  and  C_10
REMARK    4  A    between atoms: C_8  and  N_36
REMARK    5  A    between atoms: N_12  and  N_13
REMARK    6  A    between atoms: C_14  and  C_16
REMARK    7  A    between atoms: C_19  and  C_22
REMARK    8  A    between atoms: C_22  and  N_23
REMARK                            x       y       z     vdW  Elec       q    Type
REMARK                         _______ _______ _______ _____ _____    ______ ____
ROOT
ATOM      1  N   UNL     1       2.787  -2.267  -6.091  0.00  0.00    -0.230 N 
ATOM      2  C   UNL     1       3.784  -1.612  -5.463  0.00  0.00    +0.260 C 
ATOM      3  O   UNL     1       4.828  -1.392  -6.045  0.00  0.00    -0.269 OA
ATOM      4  H   UNL     1       1.954  -2.443  -5.626  0.00  0.00    +0.173 HD
ENDROOT
BRANCH   2   5
ATOM      5  C   UNL     1       3.607  -1.163  -4.065  0.00  0.00    +0.038 A 
ATOM      6  C   UNL     1       4.638  -0.485  -3.411  0.00  0.00    +0.013 A 
ATOM      7  C   UNL     1       4.466  -0.068  -2.107  0.00  0.00    +0.006 A 
ATOM      8  C   UNL     1       3.277  -0.321  -1.448  0.00  0.00    -0.030 A 
ATOM      9  C   UNL     1       2.254  -0.997  -2.088  0.00  0.00    +0.006 A 
ATOM     10  C   UNL     1       2.410  -1.414  -3.394  0.00  0.00    +0.013 A 
BRANCH   8  11
ATOM     11  C   UNL     1       3.097   0.138  -0.024  0.00  0.00    +0.149 C 
BRANCH  11  12
ATOM     12  N   UNL     1       2.533   1.490  -0.013  0.00  0.00    -0.263 N 
ATOM     13  C   UNL     1       1.175   1.784   0.000  0.00  0.00    +0.045 A 
ATOM     14  C   UNL     1      -0.013   1.076   0.008  0.00  0.00    +0.024 A 
ATOM     15  C   UNL     1      -1.229   1.757   0.017  0.00  0.00    +0.002 A 
ATOM     16  C   UNL     1      -1.325   3.122   0.030  0.00  0.00    +0.008 A 
ATOM     17  C   UNL     1      -0.141   3.877   0.023  0.00  0.00    -0.015 A 
ATOM     18  C   UNL     1       1.062   3.170   0.008  0.00  0.00    +0.016 A 
ATOM     19  C   UNL     1       2.330   3.769  -0.002  0.00  0.00    +0.047 A 
ATOM     20  C   UNL     1       2.366   5.152   0.003  0.00  0.00    +0.014 A 
ATOM     21  C   UNL     1       1.173   5.874   0.017  0.00  0.00    +0.001 A 
ATOM     22  C   UNL     1      -0.061   5.280   0.027  0.00  0.00    +0.008 A 
ATOM     23  C   UNL     1       3.264   2.636  -0.015  0.00  0.00    +0.252 C 
ATOM     24  O   UNL     1       4.478   2.710  -0.026  0.00  0.00    -0.270 OA
ENDBRANCH  11  12
ENDBRANCH   8  11
ENDBRANCH   2   5
BRANCH   1  27
ATOM     25  C   UNL     1       1.958  -3.347  -8.043  0.00  0.00    +0.250 C 
ATOM     26  O   UNL     1       0.916  -3.567  -7.463  0.00  0.00    -0.272 OA
ATOM     27  N   UNL     1       2.954  -2.692  -7.415  0.00  0.00    -0.233 N 
ATOM     28  H   UNL     1       3.788  -2.516  -7.880  0.00  0.00    +0.173 HD
BRANCH  25  29
ATOM     29  C   UNL     1       2.138  -3.805  -9.468  0.00  0.00    +0.166 C 
BRANCH  29  30
ATOM     30  N   UNL     1       1.171  -4.864  -9.766  0.00  0.00    -0.288 N 
ATOM     31  C   UNL     1      -0.150  -4.619  -9.667  0.00  0.00    +0.298 C 
ATOM     32  O   UNL     1      -0.540  -3.517  -9.331  0.00  0.00    -0.253 OA
ATOM     33  N   UNL     1      -1.040  -5.594  -9.941  0.00  0.00    -0.313 N 
ATOM     34  H   UNL     1       1.482  -5.743 -10.034  0.00  0.00    +0.151 HD
ATOM     35  H   UNL     1      -0.729  -6.472 -10.210  0.00  0.00    +0.146 HD
ATOM     36  H   UNL     1      -1.991  -5.417  -9.870  0.00  0.00    +0.146 HD
ENDBRANCH  29  30
BRANCH  29  37
ATOM     37  C   UNL     1       1.909  -2.625 -10.415  0.00  0.00    +0.067 C 
BRANCH  37  41
ATOM     38  C   UNL     1       2.757  -3.834 -14.424  0.00  0.00    +0.000 A 
ATOM     39  C   UNL     1       1.479  -3.972 -13.916  0.00  0.00    +0.000 A 
ATOM     40  C   UNL     1       1.205  -3.581 -12.619  0.00  0.00    +0.004 A 
ATOM     41  C   UNL     1       2.209  -3.052 -11.830  0.00  0.00    -0.045 A 
ATOM     42  C   UNL     1       3.486  -2.908 -12.339  0.00  0.00    +0.004 A 
ATOM     43  C   UNL     1       3.761  -3.304 -13.635  0.00  0.00    +0.000 A 
ENDBRANCH  37  41
ENDBRANCH  29  37
ENDBRANCH  25  29
ENDBRANCH   1  27
TORSDOF 8
