REMARK  Name = ZINC32953049
REMARK  4 active torsions:
REMARK  status: ('A' for Active; 'I' for Inactive)
REMARK    1  A    between atoms: C_4  and  C_7
REMARK    2  A    between atoms: C_8  and  C_17
REMARK    3  A    between atoms: N_19  and  C_20
REMARK    4  A    between atoms: C_20  and  C_21
REMARK                            x       y       z     vdW  Elec       q    Type
REMARK                         _______ _______ _______ _____ _____    ______ ____
ROOT
ATOM      1  C   UNL     1      -7.738   2.394  -1.364  0.00  0.00    +0.106 A 
ATOM      2  C   UNL     1      -7.063   1.269  -0.871  0.00  0.00    +0.074 A 
ATOM      3  C   UNL     1      -7.708   0.522   0.147  0.00  0.00    +0.016 A 
ATOM      4  C   UNL     1      -7.125  -0.615   0.717  0.00  0.00    +0.011 A 
ATOM      5  C   UNL     1      -7.793  -1.294   1.693  0.00  0.00    +0.001 A 
ATOM      6  C   UNL     1      -9.045  -0.869   2.131  0.00  0.00    +0.002 A 
ATOM      7  C   UNL     1      -9.640   0.234   1.598  0.00  0.00    +0.030 A 
ATOM      8  C   UNL     1      -8.984   0.959   0.589  0.00  0.00    +0.094 A 
ATOM      9  N   UNL     1      -9.532   2.047   0.040  0.00  0.00    -0.149 NA
ATOM     10  N   UNL     1      -8.940   2.716  -0.882  0.00  0.00    -0.148 NA
ENDROOT
BRANCH   1  14
ATOM     11  C   UNL     1      -5.963   4.772  -4.405  0.00  0.00    +0.000 A 
ATOM     12  C   UNL     1      -5.926   3.392  -4.500  0.00  0.00    +0.001 A 
ATOM     13  C   UNL     1      -6.500   2.615  -3.516  0.00  0.00    +0.010 A 
ATOM     14  C   UNL     1      -7.120   3.222  -2.423  0.00  0.00    +0.003 A 
ATOM     15  C   UNL     1      -7.159   4.614  -2.337  0.00  0.00    +0.010 A 
ATOM     16  C   UNL     1      -6.576   5.381  -3.325  0.00  0.00    +0.001 A 
ENDBRANCH   1  14
BRANCH   2  17
ATOM     17  C   UNL     1      -5.735   0.881  -1.386  0.00  0.00    +0.247 C 
ATOM     18  O   UNL     1      -5.643   0.034  -2.253  0.00  0.00    -0.270 OA
ATOM     19  N   UNL     1      -4.625   1.467  -0.895  0.00  0.00    -0.309 N 
ATOM     20  H   UNL     1      -4.708   2.234  -0.111  0.00  0.00    +0.149 HD
BRANCH  19  21
ATOM     21  C   UNL     1      -3.307   1.082  -1.407  0.00  0.00    +0.136 C 
BRANCH  21  22
ATOM     22  C   UNL     1      -2.225   1.891  -0.688  0.00  0.00    +0.135 C 
ATOM     23  C   UNL     1      -0.846   1.585  -1.304  0.00  0.00    +0.035 C 
ATOM     24  C   UNL     1      -0.010   1.049  -0.117  0.00  0.00    +0.031 C 
ATOM     25  C   UNL     1      -0.786   1.605   1.105  0.00  0.00    +0.160 C 
ATOM     26  O   UNL     1      -2.168   1.509   0.697  0.00  0.00    -0.375 OA
ENDBRANCH  21  22
ENDBRANCH  19  21
ENDBRANCH   2  17
TORSDOF 4
