REMARK  Name = ZINC05643899
REMARK  13 active torsions:
REMARK  status: ('A' for Active; 'I' for Inactive)
REMARK    1  A    between atoms: C_1  and  C_2
REMARK    2  A    between atoms: C_2  and  N_56
REMARK    3  A    between atoms: C_3  and  C_4
REMARK    4  A    between atoms: C_3  and  N_56
REMARK    5  A    between atoms: C_5  and  C_6
REMARK    6  A    between atoms: C_5  and  N_56
REMARK    7  A    between atoms: C_12  and  O_28
REMARK    8  A    between atoms: C_13  and  O_18
REMARK    9  A    between atoms: C_14  and  C_17
REMARK   10  A    between atoms: O_18  and  C_19
REMARK   11  A    between atoms: C_24  and  O_25
REMARK   12  A    between atoms: O_25  and  C_26
REMARK   13  A    between atoms: C_26  and  C_27
REMARK                            x       y       z     vdW  Elec       q    Type
REMARK                         _______ _______ _______ _____ _____    ______ ____
ROOT
ATOM      1  C   UNL     1       2.520  -0.660  -0.446  0.00  0.00    +0.026 A 
ATOM      2  C   UNL     1       3.496   0.339  -0.482  0.00  0.00    +0.184 A 
ATOM      3  O   UNL     1       4.772   0.028  -0.254  0.00  0.00    -0.288 OA
ATOM      4  C   UNL     1       3.138   1.673  -0.758  0.00  0.00    +0.052 A 
ATOM      5  C   UNL     1       1.842   2.002  -0.991  0.00  0.00    +0.019 A 
ATOM      6  C   UNL     1       0.849   1.007  -0.958  0.00  0.00    +0.063 A 
ATOM      7  C   UNL     1      -0.506   1.323  -1.198  0.00  0.00    +0.173 A 
ATOM      8  C   UNL     1      -1.449   0.281  -1.151  0.00  0.00    +0.208 A 
ATOM      9  C   UNL     1      -1.045  -0.986  -0.880  0.00  0.00    +0.148 A 
ATOM     10  O   UNL     1       0.240  -1.284  -0.653  0.00  0.00    -0.456 OA
ATOM     11  C   UNL     1       1.197  -0.336  -0.682  0.00  0.00    +0.144 A 
ATOM     12  C   UNL     1      -2.072  -2.089  -0.833  0.00  0.00    +0.090 C 
ENDROOT
BRANCH   7  13
ATOM     13  O   UNL     1      -0.886   2.591  -1.466  0.00  0.00    -0.503 OA
ATOM     14  H   UNL     1      -1.115   3.107  -0.681  0.00  0.00    +0.292 HD
ENDBRANCH   7  13
BRANCH   1  15
ATOM     15  C   UNL     1       2.908  -2.087  -0.151  0.00  0.00    -0.035 C 
BRANCH  15  16
ATOM     16  N   UNL     1       3.198  -2.775  -1.426  0.00  0.00    +0.382 N 
ATOM     17  H   UNL     1       2.409  -2.634  -2.068  0.00  0.00    -0.081 HD
BRANCH  16  19
ATOM     18  C   UNL     1       5.638  -2.488  -1.152  0.00  0.00    -0.017 C 
ATOM     19  C   UNL     1       4.420  -2.213  -2.038  0.00  0.00    -0.082 C 
ENDBRANCH  16  19
BRANCH  16  20
ATOM     20  C   UNL     1       3.371  -4.224  -1.190  0.00  0.00    -0.082 C 
ATOM     21  C   UNL     1       3.345  -4.949  -2.537  0.00  0.00    -0.017 C 
ENDBRANCH  16  20
ENDBRANCH  15  16
ENDBRANCH   1  15
BRANCH   8  22
ATOM     22  O   UNL     1      -2.765   0.542  -1.381  0.00  0.00    -0.445 OA
BRANCH  22  23
ATOM     23  C   UNL     1      -3.549   0.861  -0.317  0.00  0.00    +0.170 A 
ATOM     24  C   UNL     1      -3.005   0.909   0.957  0.00  0.00    +0.050 A 
ATOM     25  C   UNL     1      -3.802   1.239   2.037  0.00  0.00    +0.004 A 
ATOM     26  C   UNL     1      -5.144   1.512   1.851  0.00  0.00    +0.004 A 
ATOM     27  C   UNL     1      -5.694   1.462   0.584  0.00  0.00    +0.049 A 
ATOM     28  C   UNL     1      -4.900   1.136  -0.504  0.00  0.00    +0.163 A 
BRANCH  28  29
ATOM     29  O   UNL     1      -5.440   1.085  -1.751  0.00  0.00    -0.489 OA
BRANCH  29  30
ATOM     30  C   UNL     1      -6.833   1.379  -1.867  0.00  0.00    +0.226 C 
ATOM     31  C   UNL     1      -7.257   1.272  -3.334  0.00  0.00    +0.048 C 
ENDBRANCH  29  30
ENDBRANCH  28  29
ENDBRANCH  22  23
ENDBRANCH   8  22
TORSDOF 9
