REMARK  Name = ZINC59152028
REMARK  6 active torsions:
REMARK  status: ('A' for Active; 'I' for Inactive)
REMARK    1  A    between atoms: C_1  and  C_2
REMARK    2  A    between atoms: C_2  and  C_3
REMARK    3  A    between atoms: C_2  and  C_4
REMARK    4  A    between atoms: N_6  and  N_7
REMARK    5  A    between atoms: N_15  and  C_18
REMARK    6  A    between atoms: C_18  and  C_19
REMARK                            x       y       z     vdW  Elec       q    Type
REMARK                         _______ _______ _______ _____ _____    ______ ____
ROOT
ATOM      1  N   UNL     1      -2.954  -2.339   0.018  0.00  0.00    -0.175 NA
ATOM      2  C   UNL     1      -3.176  -3.631   0.013  0.00  0.00    +0.153 C 
ATOM      3  C   UNL     1      -4.487  -4.321   0.016  0.00  0.00    +0.029 A 
ATOM      4  C   UNL     1      -5.802  -3.868   0.024  0.00  0.00    +0.027 A 
ATOM      5  C   UNL     1      -6.840  -4.778   0.024  0.00  0.00    +0.019 A 
ATOM      6  C   UNL     1      -6.571  -6.137   0.017  0.00  0.00    +0.017 A 
ATOM      7  C   UNL     1      -5.270  -6.596   0.009  0.00  0.00    +0.025 A 
ATOM      8  C   UNL     1      -4.211  -5.694   0.008  0.00  0.00    +0.046 A 
ATOM      9  N   UNL     1      -2.834  -5.886   0.001  0.00  0.00    -0.261 N 
ATOM     10  C   UNL     1      -2.174  -4.716  -0.003  0.00  0.00    +0.272 C 
ATOM     11  O   UNL     1      -0.966  -4.574  -0.014  0.00  0.00    -0.268 OA
ATOM     12 BR   UNL     1      -8.631  -4.170   0.036  0.00  0.00    -0.050 Br
ENDROOT
BRANCH   1  15
ATOM     13  C   UNL     1      -1.412  -0.526   0.013  0.00  0.00    +0.235 C 
ATOM     14  O   UNL     1      -2.344   0.250   0.026  0.00  0.00    -0.274 OA
ATOM     15  N   UNL     1      -1.640  -1.854   0.008  0.00  0.00    -0.206 N 
ATOM     16  H   UNL     1      -0.894  -2.474  -0.003  0.00  0.00    +0.177 HD
BRANCH  13  18
ATOM     17  C   UNL     1      -0.019   1.526   0.010  0.00  0.00    +0.017 C 
ATOM     18  C   UNL     1       0.002  -0.004   0.002  0.00  0.00    +0.070 C 
ATOM     19  C   UNL     1       0.742  -0.511   1.242  0.00  0.00    +0.017 C 
ENDBRANCH  13  18
ENDBRANCH   1  15
BRANCH   9  20
ATOM     20  C   UNL     1      -2.184  -7.200  -0.007  0.00  0.00    +0.149 C 
BRANCH  20  21
ATOM     21  C   UNL     1      -1.968  -7.644  -1.431  0.00  0.00    -0.030 A 
ATOM     22  C   UNL     1      -2.945  -8.374  -2.083  0.00  0.00    +0.008 A 
ATOM     23  C   UNL     1      -2.748  -8.781  -3.388  0.00  0.00    +0.038 A 
ATOM     24  C   UNL     1      -1.571  -8.459  -4.044  0.00  0.00    +0.123 A 
ATOM     25  C   UNL     1      -0.594  -7.728  -3.390  0.00  0.00    +0.038 A 
ATOM     26  C   UNL     1      -0.795  -7.316  -2.086  0.00  0.00    +0.008 A 
ATOM     27  F   UNL     1      -1.377  -8.857  -5.320  0.00  0.00    -0.205 F 
ENDBRANCH  20  21
ENDBRANCH   9  20
TORSDOF 4
