REMARK  Name = ZINC00382412
REMARK  5 active torsions:
REMARK  status: ('A' for Active; 'I' for Inactive)
REMARK    1  A    between atoms: C_1  and  C_2
REMARK    2  A    between atoms: C_9  and  C_17
REMARK    3  A    between atoms: C_14  and  C_16
REMARK    4  A    between atoms: C_20  and  S_23
REMARK    5  A    between atoms: S_23  and  C_24
REMARK                            x       y       z     vdW  Elec       q    Type
REMARK                         _______ _______ _______ _____ _____    ______ ____
ROOT
ATOM      1  C   UNL     1      -0.018   1.503   0.010  0.00  0.00    +0.045 C 
ATOM      2  C   UNL     1       0.002  -0.004   0.002  0.00  0.00    -0.029 A 
ATOM      3  C   UNL     1       0.006  -0.691  -1.199  0.00  0.00    +0.005 A 
ATOM      4  C   UNL     1       0.026  -2.074  -1.222  0.00  0.00    +0.001 A 
ATOM      5  C   UNL     1       0.048  -2.791  -0.039  0.00  0.00    +0.012 A 
ATOM      6  C   UNL     1       0.048  -2.113   1.168  0.00  0.00    +0.021 A 
ATOM      7  C   UNL     1       0.023  -0.704   1.195  0.00  0.00    +0.041 A 
ATOM      8  N   UNL     1      -0.002  -0.049   2.426  0.00  0.00    -0.318 N 
ATOM      9  C   UNL     1       0.627  -0.643   3.614  0.00  0.00    +0.222 C 
ATOM     10  N   UNL     1       0.363  -2.084   3.626  0.00  0.00    -0.238 N 
ATOM     11  C   UNL     1       0.086  -2.793   2.476  0.00  0.00    +0.073 A 
ATOM     12  C   UNL     1      -0.097  -4.086   2.823  0.00  0.00    +0.052 A 
ATOM     13  C   UNL     1       0.043  -4.176   4.213  0.00  0.00    +0.061 A 
ATOM     14  N   UNL     1       0.327  -2.979   4.688  0.00  0.00    -0.174 NA
ATOM     15  C   UNL     1      -0.084  -5.437   5.028  0.00  0.00    +0.067 C 
ATOM     16  H   UNL     1      -0.442   0.813   2.499  0.00  0.00    +0.148 HD
ENDROOT
BRANCH   9  17
ATOM     17  C   UNL     1       2.114  -0.402   3.570  0.00  0.00    -0.005 A 
ATOM     18  C   UNL     1       2.794  -0.502   2.369  0.00  0.00    +0.008 A 
ATOM     19  C   UNL     1       4.157  -0.283   2.325  0.00  0.00    +0.015 A 
ATOM     20  C   UNL     1       4.845   0.040   3.489  0.00  0.00    +0.008 A 
ATOM     21  C   UNL     1       4.158   0.140   4.693  0.00  0.00    +0.015 A 
ATOM     22  C   UNL     1       2.795  -0.076   4.729  0.00  0.00    +0.008 A 
BRANCH  20  23
ATOM     23  S   UNL     1       6.584   0.320   3.438  0.00  0.00    -0.129 S 
ATOM     24  C   UNL     1       7.018   0.700   5.157  0.00  0.00    +0.090 C 
ENDBRANCH  20  23
ENDBRANCH   9  17
TORSDOF 2
