REMARK  Name = ZINC11898427
REMARK  7 active torsions:
REMARK  status: ('A' for Active; 'I' for Inactive)
REMARK    1  A    between atoms: C_1  and  N_2
REMARK    2  A    between atoms: C_6  and  C_7
REMARK    3  A    between atoms: C_7  and  C_9
REMARK    4  A    between atoms: C_7  and  N_56
REMARK    5  A    between atoms: C_9  and  N_10
REMARK    6  A    between atoms: C_11  and  C_13
REMARK    7  A    between atoms: N_15  and  C_16
REMARK                            x       y       z     vdW  Elec       q    Type
REMARK                         _______ _______ _______ _____ _____    ______ ____
ROOT
ATOM      1  C   UNL     1      -4.010   9.700   0.237  0.00  0.00    -0.003 C 
ENDROOT
BRANCH   1  11
ATOM      2  C   UNL     1      -4.274   7.943   1.886  0.00  0.00    -0.073 C 
ATOM      3  C   UNL     1      -4.953   7.656   3.225  0.00  0.00    +0.017 C 
ATOM      4  C   UNL     1      -6.450   7.719   3.067  0.00  0.00    -0.048 A 
ATOM      5  C   UNL     1      -7.244   7.153   4.053  0.00  0.00    +0.004 A 
ATOM      6  C   UNL     1      -8.620   7.197   3.951  0.00  0.00    +0.000 A 
ATOM      7  C   UNL     1      -9.210   7.809   2.861  0.00  0.00    +0.000 A 
ATOM      8  C   UNL     1      -8.421   8.371   1.878  0.00  0.00    +0.002 A 
ATOM      9  C   UNL     1      -7.038   8.327   1.978  0.00  0.00    -0.061 A 
ATOM     10  C   UNL     1      -6.219   8.950   0.878  0.00  0.00    -0.042 C 
ATOM     11  N   UNL     1      -4.846   9.195   1.350  0.00  0.00    +0.389 N 
ATOM     12  H   UNL     1      -4.868   9.900   2.097  0.00  0.00    -0.080 HD
ENDBRANCH   1  11
BRANCH   1  18
ATOM     13  C   UNL     1      -2.937  11.436  -2.097  0.00  0.00    +0.148 C 
ATOM     14  N   UNL     1      -3.995  11.837  -1.167  0.00  0.00    -0.355 N 
ATOM     15  C   UNL     1      -4.665  13.024  -1.190  0.00  0.00    +0.085 A 
ATOM     16  C   UNL     1      -5.555  13.026  -0.177  0.00  0.00    +0.019 A 
ATOM     17  C   UNL     1      -5.435  11.792   0.492  0.00  0.00    +0.021 A 
ATOM     18  C   UNL     1      -4.475  11.083  -0.137  0.00  0.00    +0.006 A 
ENDBRANCH   1  18
BRANCH   1  19
ATOM     19  C   UNL     1      -2.550   9.758   0.692  0.00  0.00    +0.095 C 
BRANCH  19  20
ATOM     20  N   UNL     1      -2.459  10.513   1.944  0.00  0.00    -0.309 N 
ATOM     21  C   UNL     1      -1.253  10.781   2.483  0.00  0.00    +0.299 C 
ATOM     22  O   UNL     1      -0.243  10.397   1.931  0.00  0.00    -0.265 OA
ATOM     23  H   UNL     1      -3.266  10.819   2.385  0.00  0.00    +0.149 HD
BRANCH  21  24
ATOM     24  C   UNL     1      -1.160  11.550   3.760  0.00  0.00    +0.303 C 
ATOM     25  O   UNL     1      -2.170  11.934   4.312  0.00  0.00    -0.265 OA
ATOM     26  N   UNL     1       0.046  11.818   4.298  0.00  0.00    -0.278 N 
ATOM     27  H   UNL     1       0.855  11.576   3.821  0.00  0.00    +0.155 HD
BRANCH  26  28
ATOM     28  C   UNL     1       0.131  12.444   5.545  0.00  0.00    +0.037 A 
ATOM     29  C   UNL     1       1.189  13.301   5.822  0.00  0.00    +0.023 A 
ATOM     30  C   UNL     1       1.271  13.919   7.054  0.00  0.00    +0.005 A 
ATOM     31  C   UNL     1       0.301  13.688   8.012  0.00  0.00    +0.038 A 
ATOM     32  C   UNL     1      -0.752  12.830   7.742  0.00  0.00    +0.125 A 
ATOM     33  C   UNL     1      -0.843  12.213   6.507  0.00  0.00    +0.061 A 
ATOM     34  F   UNL     1      -1.695  12.601   8.682  0.00  0.00    -0.205 F 
ENDBRANCH  26  28
ENDBRANCH  21  24
ENDBRANCH  19  20
ENDBRANCH   1  19
TORSDOF 6
