REMARK  Name = ZINC06904487
REMARK  3 active torsions:
REMARK  status: ('A' for Active; 'I' for Inactive)
REMARK    1  A    between atoms: C_5  and  N_8
REMARK    2  A    between atoms: C_9  and  C_11
REMARK    3  A    between atoms: C_11  and  N_12
REMARK                            x       y       z     vdW  Elec       q    Type
REMARK                         _______ _______ _______ _____ _____    ______ ____
ROOT
ATOM      1  N   UNL     1       1.048   2.039   0.003  0.00  0.00    -0.215 N 
ATOM      2  C   UNL     1      -0.014   1.208   0.009  0.00  0.00    +0.247 C 
ATOM      3  O   UNL     1       0.002  -0.004   0.002  0.00  0.00    -0.273 OA
ATOM      4  C   UNL     1      -1.230   2.107   0.018  0.00  0.00    +0.113 C 
ATOM      5  C   UNL     1      -2.058   1.866   1.276  0.00  0.00    +0.035 C 
ATOM      6  C   UNL     1      -3.268   2.804   1.280  0.00  0.00    +0.003 C 
ATOM      7  C   UNL     1      -4.116   2.547   0.033  0.00  0.00    +0.000 C 
ATOM      8  C   UNL     1      -3.279   2.817  -1.219  0.00  0.00    +0.003 C 
ATOM      9  C   UNL     1      -2.069   1.879  -1.234  0.00  0.00    +0.035 C 
ATOM     10  N   UNL     1      -0.670   3.464   0.026  0.00  0.00    -0.285 N 
ATOM     11  C   UNL     1       0.670   3.323   0.013  0.00  0.00    +0.310 C 
ATOM     12  O   UNL     1       1.448   4.257   0.010  0.00  0.00    -0.252 OA
ATOM     13  H   UNL     1      -1.166   4.297   0.034  0.00  0.00    +0.151 HD
ENDROOT
BRANCH   1  14
ATOM     14  C   UNL     1       2.443   1.592  -0.013  0.00  0.00    +0.213 C 
BRANCH  14  16
ATOM     15  N   UNL     1       4.168   1.043  -1.699  0.00  0.00    -0.311 N 
ATOM     16  C   UNL     1       2.908   1.446  -1.439  0.00  0.00    +0.231 C 
ATOM     17  O   UNL     1       2.149   1.692  -2.352  0.00  0.00    -0.274 OA
ATOM     18  H   UNL     1       4.775   0.847  -0.969  0.00  0.00    +0.149 HD
BRANCH  15  23
ATOM     19  C   UNL     1       5.463  -0.939  -5.740  0.00  0.00    +0.000 C 
ATOM     20  C   UNL     1       6.712  -0.466  -4.973  0.00  0.00    +0.000 C 
ATOM     21  C   UNL     1       6.624   0.979  -4.563  0.00  0.00    +0.002 C 
ATOM     22  C   UNL     1       6.067   1.049  -3.127  0.00  0.00    +0.022 C 
ATOM     23  C   UNL     1       4.619   0.902  -3.086  0.00  0.00    +0.073 C 
ATOM     24  C   UNL     1       4.152  -0.465  -3.626  0.00  0.00    +0.022 C 
ATOM     25  C   UNL     1       4.151  -0.410  -5.130  0.00  0.00    +0.002 C 
ENDBRANCH  15  23
ENDBRANCH  14  16
ENDBRANCH   1  14
TORSDOF 3
