REMARK  Name = ZINC03984008
REMARK  11 active torsions:
REMARK  status: ('A' for Active; 'I' for Inactive)
REMARK    1  A    between atoms: C_1  and  O_2
REMARK    2  A    between atoms: O_2  and  C_3
REMARK    3  A    between atoms: C_5  and  C_12
REMARK    4  A    between atoms: C_7  and  O_10
REMARK    5  A    between atoms: C_8  and  O_9
REMARK    6  A    between atoms: O_10  and  C_11
REMARK    7  A    between atoms: C_20  and  O_30
REMARK    8  A    between atoms: O_30  and  C_31
REMARK    9  A    between atoms: C_33  and  O_53
REMARK   10  A    between atoms: C_35  and  O_52
REMARK   11  A    between atoms: C_44  and  C_47
REMARK                            x       y       z     vdW  Elec       q    Type
REMARK                         _______ _______ _______ _____ _____    ______ ____
ROOT
ATOM      1  C   UNL     1       5.395  -2.998   2.543  0.00  0.00    +0.064 C 
ATOM      2  C   UNL     1       4.320  -1.971   2.853  0.00  0.00    -0.030 A 
ATOM      3  C   UNL     1       3.468  -2.276   3.916  0.00  0.00    +0.054 A 
ATOM      4  C   UNL     1       2.490  -1.355   4.250  0.00  0.00    +0.167 A 
ATOM      5  C   UNL     1       2.362  -0.152   3.538  0.00  0.00    +0.167 A 
ATOM      6  C   UNL     1       3.208   0.141   2.482  0.00  0.00    +0.056 A 
ATOM      7  C   UNL     1       4.189  -0.794   2.148  0.00  0.00    -0.011 A 
ATOM      8  C   UNL     1       5.083  -0.434   0.975  0.00  0.00    +0.159 C 
ATOM      9  C   UNL     1       5.737  -1.709   0.477  0.00  0.00    +0.075 C 
ATOM     10  C   UNL     1       6.467  -2.318   1.717  0.00  0.00    +0.118 C 
ATOM     11  C   UNL     1       7.482  -3.209   1.065  0.00  0.00    +0.312 C 
ATOM     12  O   UNL     1       7.956  -4.212   1.545  0.00  0.00    -0.250 OA
ATOM     13  O   UNL     1       7.777  -2.698  -0.153  0.00  0.00    -0.464 OA
ATOM     14  C   UNL     1       6.961  -1.507  -0.430  0.00  0.00    +0.239 C 
ATOM     15  O   UNL     1       1.341   0.561   4.066  0.00  0.00    -0.453 OA
ATOM     16  C   UNL     1       1.085  -0.031   5.357  0.00  0.00    +0.466 C 
ATOM     17  O   UNL     1       1.546  -1.391   5.218  0.00  0.00    -0.453 OA
ENDROOT
BRANCH   1  20
ATOM     18  C   UNL     1       4.736  -6.477   1.219  0.00  0.00    +0.165 A 
ATOM     19  C   UNL     1       5.283  -5.423   1.936  0.00  0.00    +0.054 A 
ATOM     20  C   UNL     1       4.798  -4.141   1.761  0.00  0.00    -0.032 A 
ATOM     21  C   UNL     1       3.763  -3.903   0.876  0.00  0.00    +0.054 A 
ATOM     22  C   UNL     1       3.215  -4.950   0.151  0.00  0.00    +0.165 A 
ATOM     23  C   UNL     1       3.700  -6.242   0.324  0.00  0.00    +0.201 A 
BRANCH  18  25
ATOM     24  C   UNL     1       6.280  -7.906   2.329  0.00  0.00    +0.277 C 
ATOM     25  O   UNL     1       5.214  -7.738   1.392  0.00  0.00    -0.491 OA
ENDBRANCH  18  25
BRANCH  23  26
ATOM     26  O   UNL     1       3.160  -7.273  -0.381  0.00  0.00    -0.501 OA
ATOM     27  H   UNL     1       2.416  -7.705   0.061  0.00  0.00    +0.292 HD
ENDBRANCH  23  26
BRANCH  22  28
ATOM     28  O   UNL     1       2.200  -4.715  -0.724  0.00  0.00    -0.491 OA
ATOM     29  C   UNL     1       1.753  -3.364  -0.850  0.00  0.00    +0.277 C 
ENDBRANCH  22  28
ENDBRANCH   1  20
BRANCH   8  30
ATOM     30  O   UNL     1       4.299   0.146  -0.070  0.00  0.00    -0.340 OA
BRANCH  30  31
ATOM     31  C   UNL     1       4.467   1.559  -0.206  0.00  0.00    +0.282 C 
ATOM     32  C   UNL     1       4.604   1.918  -1.688  0.00  0.00    +0.201 C 
ATOM     33  C   UNL     1       3.318   1.521  -2.420  0.00  0.00    +0.179 C 
ATOM     34  C   UNL     1       2.130   2.226  -1.766  0.00  0.00    +0.184 C 
ATOM     35  C   UNL     1       2.089   1.877  -0.274  0.00  0.00    +0.178 C 
ATOM     36  O   UNL     1       3.329   2.229   0.338  0.00  0.00    -0.340 OA
ATOM     37  C   UNL     1       1.845   0.373  -0.122  0.00  0.00    +0.197 C 
ATOM     38  O   UNL     1       0.661   0.020  -0.844  0.00  0.00    -0.344 OA
ATOM     39  C   UNL     1       0.711   0.355  -2.233  0.00  0.00    +0.289 C 
ATOM     40  O   UNL     1       0.922   1.761  -2.379  0.00  0.00    -0.338 OA
BRANCH  39  41
ATOM     41  C   UNL     1      -0.592  -0.028  -2.888  0.00  0.00    +0.045 A 
ATOM     42  C   UNL     1      -1.174  -1.248  -2.983  0.00  0.00    +0.016 A 
ATOM     43  C   UNL     1      -2.386  -1.364  -3.636  0.00  0.00    +0.008 A 
ATOM     44  C   UNL     1      -2.958  -0.253  -4.163  0.00  0.00    +0.045 A 
ATOM     45  S   UNL     1      -1.773   1.011  -3.733  0.00  0.00    -0.097 S 
ENDBRANCH  39  41
BRANCH  33  46
ATOM     46  O   UNL     1       3.140   0.105  -2.337  0.00  0.00    -0.386 OA
ATOM     47  H   UNL     1       3.861  -0.406  -2.730  0.00  0.00    +0.210 HD
ENDBRANCH  33  46
BRANCH  32  48
ATOM     48  O   UNL     1       4.816   3.325  -1.822  0.00  0.00    -0.384 OA
ATOM     49  H   UNL     1       5.612   3.646  -1.376  0.00  0.00    +0.210 HD
ENDBRANCH  32  48
ENDBRANCH  30  31
ENDBRANCH   8  30
TORSDOF 9
