REMARK  Name = ZINC00886171
REMARK  11 active torsions:
REMARK  status: ('A' for Active; 'I' for Inactive)
REMARK    1  A    between atoms: C_1  and  C_2
REMARK    2  A    between atoms: C_5  and  C_7
REMARK    3  A    between atoms: N_10  and  C_12
REMARK    4  A    between atoms: C_12  and  C_13
REMARK    5  A    between atoms: N_15  and  C_16
REMARK    6  A    between atoms: N_15  and  C_23
REMARK    7  A    between atoms: C_16  and  C_17
REMARK    8  A    between atoms: C_23  and  C_25
REMARK    9  A    between atoms: C_23  and  C_31
REMARK   10  A    between atoms: C_28  and  C_30
REMARK   11  A    between atoms: N_33  and  C_34
REMARK                            x       y       z     vdW  Elec       q    Type
REMARK                         _______ _______ _______ _____ _____    ______ ____
ROOT
ATOM      1  C   UNL     1      -1.125  -0.219   6.283  0.00  0.00    +0.240 C 
ATOM      2  O   UNL     1      -1.299   0.627   7.134  0.00  0.00    -0.273 OA
ATOM      3  N   UNL     1      -1.599  -0.030   5.036  0.00  0.00    -0.279 N 
ENDROOT
BRANCH   1   4
ATOM      4  C   UNL     1      -0.378  -1.484   6.621  0.00  0.00    +0.264 C 
BRANCH   4   8
ATOM      5  C   UNL     1       1.151  -1.115   9.782  0.00  0.00    +0.239 A 
ATOM      6  N   UNL     1      -0.009  -1.704  10.110  0.00  0.00    -0.105 NA
ATOM      7  N   UNL     1      -0.666  -1.892   9.016  0.00  0.00    -0.045 NA
ATOM      8  N   UNL     1       0.030  -1.449   8.028  0.00  0.00    -0.154 N 
ATOM      9  N   UNL     1       1.144  -0.975   8.469  0.00  0.00    -0.127 NA
BRANCH   5  14
ATOM     10  C   UNL     1       5.483   0.755  11.497  0.00  0.00    +0.086 C 
ATOM     11  C   UNL     1       4.121   0.109  11.464  0.00  0.00    +0.103 A 
ATOM     12  C   UNL     1       3.438  -0.338  12.536  0.00  0.00    +0.045 A 
ATOM     13  C   UNL     1       2.218  -0.859  12.059  0.00  0.00    +0.053 A 
ATOM     14  C   UNL     1       2.228  -0.708  10.709  0.00  0.00    +0.175 A 
ATOM     15  O   UNL     1       3.388  -0.116  10.362  0.00  0.00    -0.457 OA
ENDBRANCH   5  14
ENDBRANCH   4   8
ENDBRANCH   1   4
BRANCH   3  16
ATOM     16  C   UNL     1      -1.388  -1.053   4.009  0.00  0.00    +0.140 C 
BRANCH  16  17
ATOM     17  C   UNL     1      -0.110  -0.736   3.228  0.00  0.00    +0.136 C 
ATOM     18  C   UNL     1       0.161  -1.846   2.194  0.00  0.00    +0.035 C 
ATOM     19  C   UNL     1       0.184  -1.102   0.837  0.00  0.00    +0.031 C 
ATOM     20  C   UNL     1       0.469   0.358   1.272  0.00  0.00    +0.160 C 
ATOM     21  O   UNL     1      -0.273   0.494   2.503  0.00  0.00    -0.375 OA
ENDBRANCH  16  17
ENDBRANCH   3  16
BRANCH   3  22
ATOM     22  C   UNL     1      -2.325   1.200   4.707  0.00  0.00    +0.228 C 
BRANCH  22  23
ATOM     23  C   UNL     1      -3.575   1.283   5.545  0.00  0.00    +0.135 A 
ATOM     24  C   UNL     1      -4.801   1.611   5.097  0.00  0.00    +0.047 A 
ATOM     25  C   UNL     1      -5.670   1.561   6.211  0.00  0.00    +0.045 A 
ATOM     26  C   UNL     1      -4.922   1.215   7.274  0.00  0.00    +0.102 A 
ATOM     27  O   UNL     1      -3.654   1.045   6.864  0.00  0.00    -0.462 OA
ATOM     28  C   UNL     1      -5.422   1.040   8.685  0.00  0.00    +0.086 C 
ENDBRANCH  22  23
BRANCH  22  29
ATOM     29  C   UNL     1      -1.448   2.392   4.992  0.00  0.00    +0.241 C 
ATOM     30  O   UNL     1      -0.328   2.231   5.427  0.00  0.00    -0.273 OA
ATOM     31  N   UNL     1      -1.910   3.638   4.764  0.00  0.00    -0.311 N 
ATOM     32  H   UNL     1      -2.807   3.766   4.416  0.00  0.00    +0.149 HD
BRANCH  31  33
ATOM     33  C   UNL     1      -1.058   4.797   5.041  0.00  0.00    +0.073 C 
ATOM     34  C   UNL     1      -1.213   5.226   6.515  0.00  0.00    +0.022 C 
ATOM     35  C   UNL     1      -1.145   6.774   6.468  0.00  0.00    +0.002 C 
ATOM     36  C   UNL     1      -1.914   7.111   5.166  0.00  0.00    +0.002 C 
ATOM     37  C   UNL     1      -1.503   5.995   4.184  0.00  0.00    +0.022 C 
ENDBRANCH  31  33
ENDBRANCH  22  29
ENDBRANCH   3  22
TORSDOF 9
