REMARK  Name = ZINC20532153
REMARK  14 active torsions:
REMARK  status: ('A' for Active; 'I' for Inactive)
REMARK    1  A    between atoms: C_1  and  C_2
REMARK    2  A    between atoms: C_2  and  C_3
REMARK    3  A    between atoms: C_2  and  C_4
REMARK    4  A    between atoms: C_4  and  C_5
REMARK    5  A    between atoms: C_5  and  C_6
REMARK    6  A    between atoms: C_6  and  C_8
REMARK    7  A    between atoms: C_6  and  N_23
REMARK    8  A    between atoms: C_12  and  N_13
REMARK    9  A    between atoms: N_19  and  C_22
REMARK   10  A    between atoms: N_26  and  C_27
REMARK   11  A    between atoms: C_30  and  O_35
REMARK   12  A    between atoms: C_31  and  O_33
REMARK   13  A    between atoms: O_33  and  C_34
REMARK   14  A    between atoms: O_35  and  C_36
REMARK                            x       y       z     vdW  Elec       q    Type
REMARK                         _______ _______ _______ _____ _____    ______ ____
ROOT
ATOM      1  C   UNL     1      -5.721   3.223  -0.560  0.00  0.00    +0.108 C 
ENDROOT
BRANCH   1   2
ATOM      2  C   UNL     1      -6.909   3.927  -1.164  0.00  0.00    +0.007 A 
ATOM      3  C   UNL     1      -7.625   3.329  -2.198  0.00  0.00    -0.034 A 
ATOM      4  C   UNL     1      -8.687   4.026  -2.690  0.00  0.00    -0.021 A 
ATOM      5  S   UNL     1      -8.698   5.515  -1.732  0.00  0.00    -0.077 S 
ATOM      6  C   UNL     1      -7.283   5.151  -0.703  0.00  0.00    +0.090 A 
ATOM      7  C   UNL     1      -9.604   3.602  -3.790  0.00  0.00    -0.036 C 
ATOM      8  N   UNL     1      -8.983   2.465  -4.496  0.00  0.00    +0.381 N 
ATOM      9  C   UNL     1      -8.523   1.449  -3.539  0.00  0.00    -0.074 C 
ATOM     10  C   UNL     1      -7.295   1.956  -2.778  0.00  0.00    +0.018 C 
ATOM     11  C   UNL     1      -9.910   1.884  -5.476  0.00  0.00    -0.096 C 
ATOM     12  H   UNL     1      -8.105   2.836  -5.047  0.00  0.00    -0.082 HD
BRANCH   6  13
ATOM     13  N   UNL     1      -6.709   5.924   0.313  0.00  0.00    -0.317 N 
ATOM     14  C   UNL     1      -5.704   5.524   1.146  0.00  0.00    +0.092 A 
ATOM     15  C   UNL     1      -5.422   6.542   1.985  0.00  0.00    +0.019 A 
ATOM     16  C   UNL     1      -6.289   7.606   1.665  0.00  0.00    +0.019 A 
ATOM     17  C   UNL     1      -7.065   7.201   0.639  0.00  0.00    +0.092 A 
ENDBRANCH   6  13
ENDBRANCH   1   2
BRANCH   1  18
ATOM     18  N   UNL     1      -4.594   4.154  -0.474  0.00  0.00    -0.292 N 
ATOM     19  C   UNL     1      -3.334   3.681  -0.399  0.00  0.00    +0.304 C 
ATOM     20  O   UNL     1      -3.133   2.482  -0.401  0.00  0.00    -0.252 OA
ATOM     21  N   UNL     1      -2.296   4.537  -0.319  0.00  0.00    -0.269 N 
ATOM     22  H   UNL     1      -4.775   5.239  -0.472  0.00  0.00    +0.151 HD
ATOM     23  H   UNL     1      -2.481   5.617  -0.212  0.00  0.00    +0.156 HD
BRANCH  21  24
ATOM     24  C   UNL     1      -0.982   4.053  -0.374  0.00  0.00    +0.038 A 
ATOM     25  C   UNL     1      -0.687   2.931  -1.137  0.00  0.00    +0.027 A 
ATOM     26  C   UNL     1       0.607   2.450  -1.188  0.00  0.00    +0.051 A 
ATOM     27  C   UNL     1       1.615   3.092  -0.487  0.00  0.00    +0.162 A 
ATOM     28  C   UNL     1       1.323   4.220   0.273  0.00  0.00    +0.163 A 
ATOM     29  C   UNL     1       0.025   4.699   0.329  0.00  0.00    +0.072 A 
BRANCH  28  30
ATOM     30  O   UNL     1       2.312   4.851   0.962  0.00  0.00    -0.491 OA
ATOM     31  C   UNL     1       1.940   6.003   1.721  0.00  0.00    +0.277 C 
ENDBRANCH  28  30
BRANCH  27  32
ATOM     32  O   UNL     1       2.890   2.620  -0.544  0.00  0.00    -0.491 OA
ATOM     33  C   UNL     1       3.117   1.458  -1.344  0.00  0.00    +0.277 C 
ENDBRANCH  27  32
ENDBRANCH  21  24
ENDBRANCH   1  18
BRANCH   1  34
ATOM     34  C   UNL     1      -6.081   2.726   0.842  0.00  0.00    +0.027 C 
BRANCH  34  35
ATOM     35  C   UNL     1      -4.920   1.904   1.405  0.00  0.00    +0.005 C 
BRANCH  35  37
ATOM     36  C   UNL     1      -6.457   0.435   2.717  0.00  0.00    +0.007 C 
ATOM     37  C   UNL     1      -5.279   1.408   2.807  0.00  0.00    -0.017 C 
ATOM     38  C   UNL     1      -4.073   0.693   3.419  0.00  0.00    +0.007 C 
ENDBRANCH  35  37
ENDBRANCH  34  35
ENDBRANCH   1  34
TORSDOF 9
