REMARK  Name = ZINC39638200
REMARK  11 active torsions:
REMARK  status: ('A' for Active; 'I' for Inactive)
REMARK    1  A    between atoms: C_1  and  C_2
REMARK    2  A    between atoms: C_2  and  C_3
REMARK    3  A    between atoms: C_3  and  C_5
REMARK    4  A    between atoms: C_3  and  N_8
REMARK    5  A    between atoms: C_5  and  O_6
REMARK    6  A    between atoms: O_6  and  C_7
REMARK    7  A    between atoms: C_9  and  C_11
REMARK    8  A    between atoms: C_22  and  C_24
REMARK    9  A    between atoms: C_24  and  O_25
REMARK   10  A    between atoms: O_25  and  C_26
REMARK   11  A    between atoms: C_36  and  C_37
REMARK                            x       y       z     vdW  Elec       q    Type
REMARK                         _______ _______ _______ _____ _____    ______ ____
ROOT
ATOM      1  C   UNL     1       3.934   1.552  -1.591  0.00  0.00    +0.100 C 
ATOM      2  C   UNL     1       4.401   1.706  -0.126  0.00  0.00    +0.121 C 
ATOM      3  N   UNL     1       5.311   2.875  -0.144  0.00  0.00    -0.297 N 
ATOM      4  C   UNL     1       4.666   3.831  -1.076  0.00  0.00    +0.115 C 
ATOM      5  C   UNL     1       4.109   2.948  -2.211  0.00  0.00    -0.004 C 
ATOM      6  C   UNL     1       5.100   2.892  -3.369  0.00  0.00    -0.010 C 
ATOM      7  C   UNL     1       5.215   4.280  -4.005  0.00  0.00    -0.082 C 
ATOM      8  N   UNL     1       3.896   4.711  -4.484  0.00  0.00    +0.379 N 
ATOM      9  C   UNL     1       2.973   4.852  -3.351  0.00  0.00    -0.082 C 
ATOM     10  C   UNL     1       2.764   3.488  -2.687  0.00  0.00    -0.010 C 
ATOM     11  C   UNL     1       6.466   3.034   0.533  0.00  0.00    +0.253 C 
ATOM     12  O   UNL     1       7.104   4.058   0.412  0.00  0.00    -0.272 OA
ATOM     13  H   UNL     1       3.984   5.598  -4.956  0.00  0.00    -0.086 HD
ATOM     14  H   UNL     1       3.532   4.025  -5.128  0.00  0.00    -0.086 HD
ENDROOT
BRANCH   1  16
ATOM     15  N   UNL     1       2.030   0.408  -2.679  0.00  0.00    -0.310 N 
ATOM     16  C   UNL     1       2.487   1.134  -1.640  0.00  0.00    +0.218 C 
ATOM     17  O   UNL     1       1.734   1.451  -0.744  0.00  0.00    -0.275 OA
ATOM     18  H   UNL     1       2.633   0.154  -3.396  0.00  0.00    +0.149 HD
BRANCH  15  19
ATOM     19  C   UNL     1       0.624   0.001  -2.727  0.00  0.00    +0.098 C 
BRANCH  19  21
ATOM     20  C   UNL     1       0.735  -1.030  -0.453  0.00  0.00    +0.006 C 
ATOM     21  C   UNL     1       0.440  -1.293  -1.931  0.00  0.00    +0.021 C 
ENDBRANCH  19  21
BRANCH  19  22
ATOM     22  C   UNL     1       0.208  -0.231  -4.181  0.00  0.00    +0.181 C 
BRANCH  22  23
ATOM     23  O   UNL     1       0.940  -1.336  -4.714  0.00  0.00    -0.381 OA
ATOM     24  C   UNL     1       0.625  -1.639  -6.075  0.00  0.00    +0.194 C 
ENDBRANCH  22  23
ENDBRANCH  19  22
ENDBRANCH  15  19
ENDBRANCH   1  16
BRANCH  11  25
ATOM     25  C   UNL     1       6.963   1.938   1.440  0.00  0.00    +0.324 C 
BRANCH  25  26
ATOM     26  O   UNL     1       8.196   2.341   2.041  0.00  0.00    -0.479 OA
BRANCH  26  27
ATOM     27  C   UNL     1       8.784   1.460   2.894  0.00  0.00    +0.164 A 
ATOM     28  C   UNL     1       8.191   0.235   3.143  0.00  0.00    +0.049 A 
ATOM     29  C   UNL     1       8.780  -0.672   4.011  0.00  0.00    +0.004 A 
ATOM     30  C   UNL     1       9.966  -0.366   4.638  0.00  0.00    +0.012 A 
ATOM     31  C   UNL     1      10.580   0.868   4.397  0.00  0.00    +0.024 A 
ATOM     32  C   UNL     1       9.988   1.786   3.515  0.00  0.00    +0.181 A 
ATOM     33  O   UNL     1      10.585   2.975   3.280  0.00  0.00    -0.418 OA
ATOM     34  C   UNL     1      11.744   3.305   3.870  0.00  0.00    +0.338 A 
ATOM     35  O   UNL     1      12.245   4.389   3.629  0.00  0.00    -0.245 OA
ATOM     36  C   UNL     1      12.397   2.429   4.763  0.00  0.00    +0.096 A 
ATOM     37  C   UNL     1      11.844   1.223   5.051  0.00  0.00    -0.033 A 
ATOM     38  C   UNL     1      12.519   0.269   6.001  0.00  0.00    +0.045 C 
ENDBRANCH  26  27
ENDBRANCH  25  26
ENDBRANCH  11  25
TORSDOF 8
