REMARK  Name = ZINC39695820
REMARK  6 active torsions:
REMARK  status: ('A' for Active; 'I' for Inactive)
REMARK    1  A    between atoms: C_1  and  C_2
REMARK    2  A    between atoms: C_9  and  C_11
REMARK    3  A    between atoms: C_11  and  C_13
REMARK    4  A    between atoms: C_11  and  N_14
REMARK    5  A    between atoms: C_15  and  C_17
REMARK    6  A    between atoms: C_28  and  C_30
REMARK                            x       y       z     vdW  Elec       q    Type
REMARK                         _______ _______ _______ _____ _____    ______ ____
ROOT
ATOM      1  C   UNL     1       1.878  -8.733   0.984  0.00  0.00    +0.100 C 
ATOM      2  C   UNL     1       0.776  -9.459   0.179  0.00  0.00    +0.121 C 
ATOM      3  N   UNL     1       1.232 -10.867   0.105  0.00  0.00    -0.297 N 
ATOM      4  C   UNL     1       1.811 -11.138   1.442  0.00  0.00    +0.115 C 
ATOM      5  C   UNL     1       2.554  -9.839   1.812  0.00  0.00    -0.004 C 
ATOM      6  C   UNL     1       4.030  -9.950   1.439  0.00  0.00    -0.010 C 
ATOM      7  C   UNL     1       4.694 -11.016   2.315  0.00  0.00    -0.082 C 
ATOM      8  N   UNL     1       4.552 -10.647   3.729  0.00  0.00    +0.379 N 
ATOM      9  C   UNL     1       3.133 -10.633   4.103  0.00  0.00    -0.082 C 
ATOM     10  C   UNL     1       2.403  -9.551   3.303  0.00  0.00    -0.010 C 
ATOM     11  C   UNL     1       1.141 -11.710  -0.942  0.00  0.00    +0.260 C 
ATOM     12  O   UNL     1       1.564 -12.843  -0.847  0.00  0.00    -0.271 OA
ATOM     13  H   UNL     1       5.042 -11.319   4.301  0.00  0.00    -0.086 HD
ATOM     14  H   UNL     1       4.947  -9.731   3.877  0.00  0.00    -0.086 HD
ENDROOT
BRANCH  11  15
ATOM     15  C   UNL     1       0.514 -11.246  -2.232  0.00  0.00    +0.296 C 
ATOM     16  C   UNL     1      -0.975 -10.952  -2.006  0.00  0.00    +0.283 C 
ATOM     17  O   UNL     1      -1.542 -10.528  -3.251  0.00  0.00    -0.484 OA
ATOM     18  C   UNL     1      -1.229 -11.269  -4.349  0.00  0.00    +0.162 A 
ATOM     19  C   UNL     1      -2.004 -11.151  -5.493  0.00  0.00    +0.049 A 
ATOM     20  C   UNL     1      -1.696 -11.894  -6.617  0.00  0.00    +0.004 A 
ATOM     21  C   UNL     1      -0.616 -12.756  -6.605  0.00  0.00    +0.004 A 
ATOM     22  C   UNL     1       0.159 -12.880  -5.467  0.00  0.00    +0.049 A 
ATOM     23  C   UNL     1      -0.144 -12.138  -4.335  0.00  0.00    +0.163 A 
ATOM     24  O   UNL     1       0.624 -12.276  -3.220  0.00  0.00    -0.473 OA
ENDBRANCH  11  15
BRANCH   1  26
ATOM     25  N   UNL     1       1.974  -6.601   2.233  0.00  0.00    -0.305 N 
ATOM     26  C   UNL     1       1.268  -7.697   1.892  0.00  0.00    +0.219 C 
ATOM     27  O   UNL     1       0.141  -7.848   2.315  0.00  0.00    -0.275 OA
ATOM     28  H   UNL     1       2.875  -6.479   1.895  0.00  0.00    +0.149 HD
BRANCH  25  29
ATOM     29  C   UNL     1       1.381  -5.593   3.116  0.00  0.00    +0.136 C 
ATOM     30  C   UNL     1       0.546  -4.616   2.286  0.00  0.00    +0.036 C 
BRANCH  29  39
ATOM     31  C   UNL     1       5.863  -1.643   7.554  0.00  0.00    +0.044 C 
ATOM     32  C   UNL     1       5.346  -2.463   6.400  0.00  0.00    -0.048 A 
ATOM     33  C   UNL     1       6.194  -2.788   5.351  0.00  0.00    +0.005 A 
ATOM     34  C   UNL     1       5.745  -3.530   4.296  0.00  0.00    +0.030 A 
ATOM     35  C   UNL     1       4.418  -3.969   4.268  0.00  0.00    +0.089 A 
ATOM     36  C   UNL     1       3.559  -3.640   5.330  0.00  0.00    +0.067 A 
ATOM     37  C   UNL     1       4.035  -2.889   6.396  0.00  0.00    +0.031 A 
ATOM     38  N   UNL     1       2.338  -4.206   5.021  0.00  0.00    -0.340 N 
ATOM     39  C   UNL     1       2.477  -4.840   3.826  0.00  0.00    +0.128 A 
ATOM     40  N   UNL     1       3.693  -4.702   3.385  0.00  0.00    -0.231 NA
ATOM     41  H   UNL     1       1.531  -4.159   5.557  0.00  0.00    +0.167 HD
ENDBRANCH  29  39
ENDBRANCH  25  29
ENDBRANCH   1  26
TORSDOF 4
