REMARK  Name = ZINC35957051
REMARK  10 active torsions:
REMARK  status: ('A' for Active; 'I' for Inactive)
REMARK    1  A    between atoms: C_1  and  C_2
REMARK    2  A    between atoms: C_2  and  C_3
REMARK    3  A    between atoms: C_2  and  C_4
REMARK    4  A    between atoms: C_2  and  C_5
REMARK    5  A    between atoms: N_7  and  C_8
REMARK    6  A    between atoms: C_14  and  N_16
REMARK    7  A    between atoms: C_17  and  C_19
REMARK    8  A    between atoms: C_22  and  C_24
REMARK    9  A    between atoms: C_24  and  O_25
REMARK   10  A    between atoms: O_25  and  C_26
REMARK                            x       y       z     vdW  Elec       q    Type
REMARK                         _______ _______ _______ _____ _____    ______ ____
ROOT
ATOM      1  N   UNL     1       3.055  -3.625  -1.299  0.00  0.00    -0.305 N 
ATOM      2  C   UNL     1       4.036  -4.545  -1.204  0.00  0.00    +0.263 C 
ATOM      3  O   UNL     1       4.130  -5.422  -2.041  0.00  0.00    -0.269 OA
ATOM      4  H   UNL     1       2.980  -2.926  -0.631  0.00  0.00    +0.149 HD
ENDROOT
BRANCH   1  10
ATOM      5  C   UNL     1       1.532  -2.285  -2.665  0.00  0.00    +0.093 C 
ATOM      6  C   UNL     1       0.539  -2.343  -3.827  0.00  0.00    +0.024 C 
ATOM      7  C   UNL     1      -0.599  -3.305  -3.478  0.00  0.00    +0.002 C 
ATOM      8  C   UNL     1      -0.027  -4.701  -3.225  0.00  0.00    +0.002 C 
ATOM      9  C   UNL     1       0.967  -4.643  -2.062  0.00  0.00    +0.024 C 
ATOM     10  C   UNL     1       2.104  -3.681  -2.412  0.00  0.00    +0.093 C 
BRANCH   5  13
ATOM     11  C   UNL     1       0.707  -0.490  -1.238  0.00  0.00    +0.219 C 
ATOM     12  O   UNL     1       1.150   0.308  -2.036  0.00  0.00    -0.275 OA
ATOM     13  N   UNL     1       0.847  -1.812  -1.460  0.00  0.00    -0.310 N 
ATOM     14  H   UNL     1       0.493  -2.451  -0.821  0.00  0.00    +0.149 HD
BRANCH  11  16
ATOM     15  C   UNL     1      -0.019   1.526   0.010  0.00  0.00    +0.020 C 
ATOM     16  C   UNL     1       0.002  -0.004   0.002  0.00  0.00    +0.039 C 
ATOM     17  C   UNL     1       0.742  -0.511   1.242  0.00  0.00    +0.020 C 
ATOM     18  C   UNL     1      -1.433  -0.534   0.013  0.00  0.00    +0.020 C 
ENDBRANCH  11  16
ENDBRANCH   5  13
ENDBRANCH   1  10
BRANCH   2  19
ATOM     19  C   UNL     1       4.992  -4.489  -0.085  0.00  0.00    +0.133 A 
ATOM     20  C   UNL     1       6.006  -5.399   0.048  0.00  0.00    +0.080 A 
ATOM     21  S   UNL     1       6.771  -4.885   1.453  0.00  0.00    -0.076 S 
ATOM     22  C   UNL     1       5.805  -3.562   1.819  0.00  0.00    +0.116 A 
ATOM     23  N   UNL     1       4.924  -3.542   0.857  0.00  0.00    -0.236 NA
BRANCH  22  24
ATOM     24  C   UNL     1       5.930  -2.615   2.985  0.00  0.00    +0.291 C 
BRANCH  24  25
ATOM     25  O   UNL     1       5.162  -3.108   4.084  0.00  0.00    -0.485 OA
BRANCH  25  26
ATOM     26  C   UNL     1       5.166  -2.366   5.223  0.00  0.00    +0.121 A 
ATOM     27  C   UNL     1       5.891  -1.184   5.279  0.00  0.00    +0.047 A 
ATOM     28  C   UNL     1       5.894  -0.431   6.437  0.00  0.00    +0.023 A 
ATOM     29  C   UNL     1       5.176  -0.855   7.541  0.00  0.00    +0.041 A 
ATOM     30  C   UNL     1       4.453  -2.034   7.487  0.00  0.00    +0.023 A 
ATOM     31  C   UNL     1       4.442  -2.786   6.329  0.00  0.00    +0.047 A 
ATOM     32 CL   UNL     1       5.183   0.092   8.995  0.00  0.00    -0.084 Cl
ENDBRANCH  25  26
ENDBRANCH  24  25
ENDBRANCH  22  24
ENDBRANCH   2  19
TORSDOF 7
