REMARK  Name = ZINC05867364
REMARK  6 active torsions:
REMARK  status: ('A' for Active; 'I' for Inactive)
REMARK    1  A    between atoms: C_1  and  C_2
REMARK    2  A    between atoms: C_5  and  C_8
REMARK    3  A    between atoms: C_11  and  S_14
REMARK    4  A    between atoms: S_14  and  C_15
REMARK    5  A    between atoms: C_15  and  C_17
REMARK    6  A    between atoms: C_15  and  C_18
REMARK                            x       y       z     vdW  Elec       q    Type
REMARK                         _______ _______ _______ _____ _____    ______ ____
ROOT
ATOM      1  C   UNL     1       0.059  -4.256  -0.021  0.00  0.00    +0.182 A 
ATOM      2  N   UNL     1       0.075  -5.042   1.065  0.00  0.00    -0.201 NA
ATOM      3  H   UNL     1       0.091  -7.142  -1.209  0.00  0.00    +0.191 HD
ATOM      4  C   UNL     1       0.089  -6.304   0.698  0.00  0.00    +0.185 A 
ATOM      5  N   UNL     1       0.083  -6.347  -0.653  0.00  0.00    -0.253 N 
ATOM      6  N   UNL     1       0.058  -5.014  -1.094  0.00  0.00    -0.152 NA
ENDROOT
BRANCH   1  11
ATOM      7  C   UNL     1      -0.018   1.503   0.010  0.00  0.00    +0.044 C 
ATOM      8  C   UNL     1       0.002  -0.004   0.002  0.00  0.00    -0.050 A 
ATOM      9  C   UNL     1       0.006  -0.686  -1.201  0.00  0.00    +0.004 A 
ATOM     10  C   UNL     1       0.024  -2.067  -1.215  0.00  0.00    +0.012 A 
ATOM     11  C   UNL     1       0.040  -2.772  -0.013  0.00  0.00    +0.021 A 
ATOM     12  C   UNL     1       0.036  -2.080   1.196  0.00  0.00    +0.012 A 
ATOM     13  C   UNL     1       0.023  -0.700   1.198  0.00  0.00    +0.004 A 
ENDBRANCH   1  11
BRANCH   4  14
ATOM     14  S   UNL     1       0.114  -7.696   1.777  0.00  0.00    -0.074 S 
BRANCH  14  15
ATOM     15  C   UNL     1       0.112  -6.965   3.437  0.00  0.00    +0.137 C 
ATOM     16  C   UNL     1      -1.204  -6.218   3.665  0.00  0.00    +0.029 C 
BRANCH  15  17
ATOM     17  C   UNL     1       0.256  -8.055   4.467  0.00  0.00    +0.229 C 
ATOM     18  O   UNL     1      -0.010  -9.202   4.177  0.00  0.00    -0.274 OA
ATOM     19  N   UNL     1       0.680  -7.756   5.711  0.00  0.00    -0.301 N 
ATOM     20  C   UNL     1       1.028  -6.413   6.198  0.00  0.00    +0.108 C 
ATOM     21  C   UNL     1       1.481  -6.561   7.665  0.00  0.00    +0.020 C 
ATOM     22  C   UNL     1       1.902  -8.052   7.751  0.00  0.00    +0.020 C 
ATOM     23  C   UNL     1       0.864  -8.720   6.811  0.00  0.00    +0.108 C 
ENDBRANCH  15  17
ENDBRANCH  14  15
ENDBRANCH   4  14
TORSDOF 4
