REMARK  Name = ZINC36346204
REMARK  16 active torsions:
REMARK  status: ('A' for Active; 'I' for Inactive)
REMARK    1  A    between atoms: C_1  and  C_2
REMARK    2  A    between atoms: C_5  and  O_8
REMARK    3  A    between atoms: O_8  and  C_9
REMARK    4  A    between atoms: C_10  and  C_21
REMARK    5  A    between atoms: C_11  and  C_20
REMARK    6  A    between atoms: N_13  and  C_14
REMARK    7  A    between atoms: C_21  and  N_22
REMARK    8  A    between atoms: N_22  and  C_23
REMARK    9  A    between atoms: N_22  and  C_30
REMARK   10  A    between atoms: C_23  and  C_24
REMARK   11  A    between atoms: C_30  and  C_31
REMARK   12  A    between atoms: C_31  and  C_33
REMARK   13  A    between atoms: C_31  and  O_38
REMARK   14  A    between atoms: C_33  and  O_34
REMARK   15  A    between atoms: O_34  and  C_35
REMARK   16  A    between atoms: C_35  and  C_36
REMARK                            x       y       z     vdW  Elec       q    Type
REMARK                         _______ _______ _______ _____ _____    ______ ____
ROOT
ATOM      1  C   UNL     1       0.402  -4.425   1.298  0.00  0.00    +0.225 A 
ATOM      2  C   UNL     1       0.102  -5.747   1.411  0.00  0.00    +0.021 A 
ATOM      3  C   UNL     1      -0.070  -6.034   2.768  0.00  0.00    +0.065 A 
ATOM      4  N   UNL     1       0.116  -4.933   3.451  0.00  0.00    -0.168 NA
ATOM      5  N   UNL     1       0.421  -3.902   2.554  0.00  0.00    -0.200 N 
ATOM      6  C   UNL     1      -0.414  -7.382   3.347  0.00  0.00    +0.068 C 
ENDROOT
BRANCH   5   7
ATOM      7  C   UNL     1       0.695  -2.569   2.889  0.00  0.00    +0.069 A 
ATOM      8  C   UNL     1       1.724  -1.888   2.251  0.00  0.00    +0.028 A 
ATOM      9  C   UNL     1       1.991  -0.575   2.584  0.00  0.00    +0.002 A 
ATOM     10  C   UNL     1       1.235   0.063   3.550  0.00  0.00    +0.000 A 
ATOM     11  C   UNL     1       0.210  -0.612   4.187  0.00  0.00    +0.002 A 
ATOM     12  C   UNL     1      -0.066  -1.924   3.855  0.00  0.00    +0.028 A 
ENDBRANCH   5   7
BRANCH   1  13
ATOM     13  O   UNL     1       0.643  -3.752   0.144  0.00  0.00    -0.438 OA
BRANCH  13  18
ATOM     14  C   UNL     1      -3.621  -0.922  -2.207  0.00  0.00    +0.044 C 
ATOM     15  C   UNL     1      -2.480  -1.679  -1.578  0.00  0.00    -0.050 A 
ATOM     16  C   UNL     1      -1.210  -1.586  -2.116  0.00  0.00    +0.007 A 
ATOM     17  C   UNL     1      -0.162  -2.279  -1.541  0.00  0.00    +0.046 A 
ATOM     18  C   UNL     1      -0.386  -3.069  -0.423  0.00  0.00    +0.130 A 
ATOM     19  C   UNL     1      -1.661  -3.161   0.116  0.00  0.00    +0.046 A 
ATOM     20  C   UNL     1      -2.704  -2.461  -0.460  0.00  0.00    +0.007 A 
ENDBRANCH  13  18
ENDBRANCH   1  13
BRANCH   2  21
ATOM     21  C   UNL     1      -0.022  -6.728   0.274  0.00  0.00    -0.036 C 
BRANCH  21  22
ATOM     22  N   UNL     1       1.315  -7.187  -0.125  0.00  0.00    +0.386 N 
ATOM     23  H   UNL     1       1.906  -6.389  -0.301  0.00  0.00    -0.081 HD
BRANCH  22  24
ATOM     24  C   UNL     1       1.896  -7.999   0.954  0.00  0.00    -0.046 C 
BRANCH  24  25
ATOM     25  C   UNL     1       1.248  -9.385   0.954  0.00  0.00    +0.102 C 
ATOM     26  C   UNL     1       1.875 -10.271   2.060  0.00  0.00    +0.032 C 
ATOM     27  C   UNL     1       0.723 -11.280   2.318  0.00  0.00    +0.030 C 
ATOM     28  C   UNL     1      -0.532 -10.408   2.097  0.00  0.00    +0.160 C 
ATOM     29  O   UNL     1      -0.144  -9.285   1.295  0.00  0.00    -0.378 OA
ENDBRANCH  24  25
ENDBRANCH  22  24
BRANCH  22  30
ATOM     30  C   UNL     1       1.210  -7.998  -1.345  0.00  0.00    -0.044 C 
BRANCH  30  31
ATOM     31  C   UNL     1       2.612  -8.383  -1.824  0.00  0.00    +0.124 C 
BRANCH  31  32
ATOM     32  O   UNL     1       3.363  -7.199  -2.099  0.00  0.00    -0.391 OA
ATOM     33  H   UNL     1       2.974  -6.635  -2.781  0.00  0.00    +0.210 HD
ENDBRANCH  31  32
BRANCH  31  34
ATOM     34  C   UNL     1       2.503  -9.225  -3.096  0.00  0.00    +0.189 C 
BRANCH  34  35
ATOM     35  O   UNL     1       3.802  -9.681  -3.478  0.00  0.00    -0.373 OA
BRANCH  35  36
ATOM     36  C   UNL     1       3.813 -10.482  -4.662  0.00  0.00    +0.186 C 
BRANCH  36  37
ATOM     37  C   UNL     1       5.226 -10.906  -4.969  0.00  0.00    -0.007 C 
ATOM     38  C   UNL     1       5.479 -12.146  -5.305  0.00  0.00    +0.006 C 
ENDBRANCH  36  37
ENDBRANCH  35  36
ENDBRANCH  34  35
ENDBRANCH  31  34
ENDBRANCH  30  31
ENDBRANCH  22  30
ENDBRANCH  21  22
ENDBRANCH   2  21
TORSDOF 14
