REMARK  Name = ZINC64942577
REMARK  5 active torsions:
REMARK  status: ('A' for Active; 'I' for Inactive)
REMARK    1  A    between atoms: C_1  and  C_2
REMARK    2  A    between atoms: C_4  and  C_7
REMARK    3  A    between atoms: C_7  and  N_8
REMARK    4  A    between atoms: C_9  and  C_11
REMARK    5  A    between atoms: C_11  and  C_16
REMARK                            x       y       z     vdW  Elec       q    Type
REMARK                         _______ _______ _______ _____ _____    ______ ____
ROOT
ATOM      1  N   UNL     1       1.424  -3.694  -1.928  0.00  0.00    -0.308 N 
ATOM      2  C   UNL     1       1.681  -4.756  -2.717  0.00  0.00    +0.219 C 
ATOM      3  O   UNL     1       0.765  -5.402  -3.181  0.00  0.00    -0.275 OA
ATOM      4  H   UNL     1       2.156  -3.177  -1.557  0.00  0.00    +0.149 HD
ENDROOT
BRANCH   2   5
ATOM      5  C   UNL     1       3.106  -5.141  -3.023  0.00  0.00    +0.044 C 
ATOM      6  C   UNL     1       3.805  -4.005  -3.797  0.00  0.00    +0.016 C 
ATOM      7  C   UNL     1       4.717  -4.741  -4.810  0.00  0.00    +0.001 C 
ATOM      8  C   UNL     1       3.848  -5.950  -5.236  0.00  0.00    +0.001 C 
ATOM      9  C   UNL     1       3.133  -6.378  -3.937  0.00  0.00    +0.016 C 
ATOM     10  C   UNL     1       3.859  -5.433  -1.724  0.00  0.00    +0.021 C 
ENDBRANCH   2   5
BRANCH   1  11
ATOM     11  C   UNL     1       0.039  -3.320  -1.631  0.00  0.00    +0.181 C 
BRANCH  11  15
ATOM     12  C   UNL     1      -0.018   1.503   0.010  0.00  0.00    +0.069 C 
ATOM     13  C   UNL     1       0.002  -0.004   0.002  0.00  0.00    +0.081 A 
ATOM     14  C   UNL     1       0.008  -0.824  -1.141  0.00  0.00    +0.072 A 
ATOM     15  C   UNL     1       0.027  -2.108  -0.735  0.00  0.00    +0.154 A 
ATOM     16  O   UNL     1       0.034  -2.119   0.606  0.00  0.00    -0.358 OA
ATOM     17  N   UNL     1       0.023  -0.775   1.052  0.00  0.00    -0.083 NA
ENDBRANCH  11  15
ENDBRANCH   1  11
TORSDOF 3
