REMARK  Name = ZINC15356038
REMARK  4 active torsions:
REMARK  status: ('A' for Active; 'I' for Inactive)
REMARK    1  A    between atoms: C_1  and  C_2
REMARK    2  A    between atoms: C_4  and  N_23
REMARK    3  A    between atoms: C_7  and  N_8
REMARK    4  A    between atoms: C_9  and  C_11
REMARK                            x       y       z     vdW  Elec       q    Type
REMARK                         _______ _______ _______ _____ _____    ______ ____
ROOT
ATOM      1  N   UNL     1       0.318  -1.384  -5.732  0.00  0.00    -0.282 N 
ATOM      2  C   UNL     1       0.642  -2.688  -5.625  0.00  0.00    +0.258 C 
ATOM      3  O   UNL     1       0.607  -3.234  -4.542  0.00  0.00    -0.271 OA
ATOM      4  H   UNL     1       0.267  -0.967  -6.607  0.00  0.00    +0.155 HD
ENDROOT
BRANCH   2   5
ATOM      5  C   UNL     1       1.047  -3.467  -6.849  0.00  0.00    +0.266 C 
ATOM      6  C   UNL     1       2.359  -2.907  -7.400  0.00  0.00    +0.090 C 
ATOM      7  C   UNL     1       2.910  -3.817  -8.465  0.00  0.00    -0.029 A 
ATOM      8  C   UNL     1       3.815  -3.329  -9.387  0.00  0.00    +0.004 A 
ATOM      9  C   UNL     1       4.330  -4.163 -10.363  0.00  0.00    +0.000 A 
ATOM     10  C   UNL     1       3.947  -5.492 -10.425  0.00  0.00    +0.001 A 
ATOM     11  C   UNL     1       3.043  -5.993  -9.511  0.00  0.00    +0.015 A 
ATOM     12  C   UNL     1       2.519  -5.155  -8.527  0.00  0.00    +0.062 A 
ATOM     13  C   UNL     1       1.545  -5.676  -7.541  0.00  0.00    +0.340 C 
ATOM     14  O   UNL     1       1.046  -6.777  -7.662  0.00  0.00    -0.245 OA
ATOM     15  O   UNL     1       1.232  -4.868  -6.495  0.00  0.00    -0.448 OA
ENDBRANCH   2   5
BRANCH   1  22
ATOM     16  C   UNL     1      -1.645   0.668  -5.890  0.00  0.00    +0.046 C 
ATOM     17  C   UNL     1      -0.895   0.382  -4.614  0.00  0.00    -0.027 A 
ATOM     18  C   UNL     1      -1.154   1.125  -3.480  0.00  0.00    +0.028 A 
ATOM     19  C   UNL     1      -0.462   0.861  -2.304  0.00  0.00    +0.030 A 
ATOM     20  C   UNL     1       0.493  -0.147  -2.272  0.00  0.00    +0.025 A 
ATOM     21  C   UNL     1       0.747  -0.894  -3.405  0.00  0.00    +0.025 A 
ATOM     22  C   UNL     1       0.056  -0.629  -4.581  0.00  0.00    +0.037 A 
BRANCH  19  23
ATOM     23  N   UNL     1      -0.724   1.613  -1.155  0.00  0.00    -0.330 N 
ATOM     24  C   UNL     1       0.522   2.219  -0.619  0.00  0.00    +0.105 C 
ATOM     25  C   UNL     1       0.202   2.532   0.858  0.00  0.00    +0.020 C 
ATOM     26  C   UNL     1      -0.941   1.561   1.232  0.00  0.00    +0.020 C 
ATOM     27  C   UNL     1      -1.213   0.747  -0.051  0.00  0.00    +0.105 C 
ENDBRANCH  19  23
ENDBRANCH   1  22
TORSDOF 3
