REMARK  Name = ZINC13033981
REMARK  13 active torsions:
REMARK  status: ('A' for Active; 'I' for Inactive)
REMARK    1  A    between atoms: C_1  and  C_2
REMARK    2  A    between atoms: C_2  and  C_3
REMARK    3  A    between atoms: C_10  and  C_15
REMARK    4  A    between atoms: C_15  and  N_71
REMARK    5  A    between atoms: C_16  and  N_71
REMARK    6  A    between atoms: C_22  and  C_24
REMARK    7  A    between atoms: C_22  and  C_26
REMARK    8  A    between atoms: C_22  and  N_71
REMARK    9  A    between atoms: C_24  and  C_25
REMARK   10  A    between atoms: N_30  and  C_31
REMARK   11  A    between atoms: C_31  and  C_32
REMARK   12  A    between atoms: C_31  and  C_33
REMARK   13  A    between atoms: C_31  and  C_34
REMARK                            x       y       z     vdW  Elec       q    Type
REMARK                         _______ _______ _______ _____ _____    ______ ____
ROOT
ATOM      1  N   UNL     1      -1.132   3.954  -0.151  0.00  0.00    +0.391 N 
ATOM      2  H   UNL     1      -1.312   4.965  -0.168  0.00  0.00    -0.080 HD
ENDROOT
BRANCH   1   3
ATOM      3  C   UNL     1      -2.385   3.238  -0.471  0.00  0.00    -0.067 C 
ATOM      4  C   UNL     1      -3.499   3.762   0.437  0.00  0.00    -0.015 C 
ATOM      5  C   UNL     1      -4.809   3.046   0.103  0.00  0.00    -0.002 C 
ATOM      6  C   UNL     1      -4.638   1.541   0.322  0.00  0.00    -0.000 C 
ATOM      7  C   UNL     1      -3.524   1.017  -0.587  0.00  0.00    -0.002 C 
ATOM      8  C   UNL     1      -2.214   1.733  -0.253  0.00  0.00    -0.015 C 
ENDBRANCH   1   3
BRANCH   1   9
ATOM      9  C   UNL     1      -0.097   3.634  -1.156  0.00  0.00    -0.036 C 
BRANCH   9  17
ATOM     10  C   UNL     1       0.080   8.210  -5.317  0.00  0.00    -0.047 A 
ATOM     11  C   UNL     1      -0.782   7.622  -6.233  0.00  0.00    +0.005 A 
ATOM     12  C   UNL     1      -1.337   6.385  -5.982  0.00  0.00    +0.026 A 
ATOM     13  C   UNL     1      -1.030   5.718  -4.801  0.00  0.00    +0.049 A 
ATOM     14  C   UNL     1      -0.155   6.317  -3.875  0.00  0.00    -0.001 A 
ATOM     15  C   UNL     1       0.395   7.574  -4.151  0.00  0.00    +0.013 A 
ATOM     16  C   UNL     1       0.162   5.607  -2.635  0.00  0.00    +0.017 A 
ATOM     17  C   UNL     1      -0.402   4.392  -2.422  0.00  0.00    +0.001 A 
ATOM     18  C   UNL     1      -1.268   3.832  -3.385  0.00  0.00    +0.251 A 
ATOM     19  O   UNL     1      -1.760   2.736  -3.177  0.00  0.00    -0.268 OA
ATOM     20  N   UNL     1      -1.569   4.479  -4.525  0.00  0.00    -0.322 N 
ATOM     21  H   UNL     1      -2.172   4.067  -5.164  0.00  0.00    +0.169 HD
BRANCH  10  23
ATOM     22  C   UNL     1       1.995   9.388  -6.363  0.00  0.00    +0.009 C 
ATOM     23  C   UNL     1       0.673   9.563  -5.614  0.00  0.00    +0.032 C 
ENDBRANCH  10  23
ENDBRANCH   9  17
ENDBRANCH   1   9
BRANCH   1  24
ATOM     24  C   UNL     1      -0.663   3.572   1.197  0.00  0.00    +0.003 C 
BRANCH  24  25
ATOM     25  C   UNL     1      -0.004   2.217   1.162  0.00  0.00    +0.139 A 
ATOM     26  N   UNL     1       0.754   1.740   0.204  0.00  0.00    -0.115 NA
ATOM     27  N   UNL     1       1.127   0.554   0.545  0.00  0.00    -0.023 NA
ATOM     28  N   UNL     1       0.620   0.260   1.692  0.00  0.00    -0.043 NA
ATOM     29  N   UNL     1      -0.083   1.260   2.105  0.00  0.00    -0.226 N 
BRANCH  29  30
ATOM     30  C   UNL     1      -0.828   1.338   3.364  0.00  0.00    +0.059 C 
ATOM     31  C   UNL     1      -2.327   1.399   3.067  0.00  0.00    +0.036 C 
ATOM     32  C   UNL     1      -0.525   0.102   4.213  0.00  0.00    +0.036 C 
ATOM     33  C   UNL     1      -0.408   2.596   4.127  0.00  0.00    +0.036 C 
ENDBRANCH  29  30
ENDBRANCH  24  25
BRANCH  24  34
ATOM     34  C   UNL     1       0.345   4.617   1.680  0.00  0.00    -0.011 C 
ATOM     35  C   UNL     1      -0.358   5.966   1.844  0.00  0.00    +0.002 C 
ENDBRANCH  24  34
ENDBRANCH   1  24
TORSDOF 8
