REMARK  Name = ZINC52692731
REMARK  10 active torsions:
REMARK  status: ('A' for Active; 'I' for Inactive)
REMARK    1  A    between atoms: C_1  and  C_2
REMARK    2  A    between atoms: C_5  and  O_9
REMARK    3  A    between atoms: O_9  and  C_10
REMARK    4  A    between atoms: C_10  and  C_11
REMARK    5  A    between atoms: C_12  and  C_16
REMARK    6  A    between atoms: C_16  and  N_17
REMARK    7  A    between atoms: N_17  and  C_18
REMARK    8  A    between atoms: C_18  and  C_19
REMARK    9  A    between atoms: C_18  and  C_20
REMARK   10  A    between atoms: C_18  and  C_21
REMARK                            x       y       z     vdW  Elec       q    Type
REMARK                         _______ _______ _______ _____ _____    ______ ____
ROOT
ATOM      1  C   UNL     1       0.079  -6.266  -1.111  0.00  0.00    +0.143 A 
ATOM      2  C   UNL     1      -1.002  -7.061  -1.012  0.00  0.00    -0.020 A 
ATOM      3  C   UNL     1      -0.525  -8.382  -0.845  0.00  0.00    +0.043 A 
ATOM      4  C   UNL     1       0.819  -8.314  -0.852  0.00  0.00    +0.195 A 
ATOM      5  O   UNL     1       1.179  -7.031  -1.019  0.00  0.00    -0.464 OA
ENDROOT
BRANCH   1   6
ATOM      6  C   UNL     1       0.058  -4.771  -1.300  0.00  0.00    +0.303 C 
BRANCH   6   7
ATOM      7  O   UNL     1       0.057  -4.130  -0.022  0.00  0.00    -0.483 OA
BRANCH   7  12
ATOM      8  C   UNL     1      -0.018   1.503   0.010  0.00  0.00    +0.044 C 
ATOM      9  C   UNL     1       0.002  -0.004   0.002  0.00  0.00    -0.049 A 
ATOM     10  C   UNL     1       0.006  -0.688  -1.200  0.00  0.00    +0.007 A 
ATOM     11  C   UNL     1       0.024  -2.069  -1.211  0.00  0.00    +0.047 A 
ATOM     12  C   UNL     1       0.039  -2.771  -0.014  0.00  0.00    +0.135 A 
ATOM     13  C   UNL     1       0.036  -2.083   1.191  0.00  0.00    +0.060 A 
ATOM     14  C   UNL     1       0.023  -0.700   1.196  0.00  0.00    +0.022 A 
ATOM     15 BR   UNL     1       0.056  -3.035   2.825  0.00  0.00    -0.047 Br
ENDBRANCH   7  12
ENDBRANCH   6   7
ENDBRANCH   1   6
BRANCH   2  16
ATOM     16  C   UNL     1      -2.444  -6.628  -1.068  0.00  0.00    -0.042 C 
BRANCH  16  17
ATOM     17  N   UNL     1      -2.841  -6.428  -2.469  0.00  0.00    +0.385 N 
ATOM     18  H   UNL     1      -2.260  -5.717  -2.885  0.00  0.00    -0.085 HD
ATOM     19  H   UNL     1      -2.730  -7.293  -2.976  0.00  0.00    -0.085 HD
BRANCH  17  20
ATOM     20  C   UNL     1      -4.247  -6.006  -2.523  0.00  0.00    -0.077 C 
ATOM     21  C   UNL     1      -4.416  -4.694  -1.754  0.00  0.00    -0.011 C 
ATOM     22  C   UNL     1      -4.661  -5.798  -3.982  0.00  0.00    -0.011 C 
ATOM     23  C   UNL     1      -5.129  -7.085  -1.891  0.00  0.00    -0.011 C 
ENDBRANCH  17  20
ENDBRANCH  16  17
ENDBRANCH   2  16
TORSDOF 6
