REMARK  Name = ZINC35965539
REMARK  9 active torsions:
REMARK  status: ('A' for Active; 'I' for Inactive)
REMARK    1  A    between atoms: C_1  and  C_2
REMARK    2  A    between atoms: C_6  and  C_8
REMARK    3  A    between atoms: N_13  and  C_16
REMARK    4  A    between atoms: C_16  and  C_18
REMARK    5  A    between atoms: C_16  and  C_19
REMARK    6  A    between atoms: N_21  and  C_22
REMARK    7  A    between atoms: C_22  and  C_23
REMARK    8  A    between atoms: N_28  and  C_32
REMARK    9  A    between atoms: C_32  and  C_33
REMARK                            x       y       z     vdW  Elec       q    Type
REMARK                         _______ _______ _______ _____ _____    ______ ____
ROOT
ATOM      1  C   UNL     1       0.054  -2.845   2.489  0.00  0.00    +0.142 C 
ATOM      2  C   UNL     1      -1.372  -3.237   2.818  0.00  0.00    +0.058 C 
ATOM      3  C   UNL     1      -1.641  -4.550   2.973  0.00  0.00    +0.043 C 
ATOM      4  C   UNL     1      -3.116  -4.647   3.292  0.00  0.00    +0.160 C 
ATOM      5  N   UNL     1      -3.596  -3.257   3.289  0.00  0.00    -0.281 N 
ATOM      6  C   UNL     1      -2.541  -2.472   3.007  0.00  0.00    +0.247 C 
ATOM      7  O   UNL     1      -2.589  -1.258   2.927  0.00  0.00    -0.270 OA
ATOM      8  N   UNL     1      -0.663  -5.493   2.837  0.00  0.00    -0.253 N 
ATOM      9  C   UNL     1       0.612  -5.203   2.547  0.00  0.00    +0.307 C 
ATOM     10  O   UNL     1       1.414  -6.111   2.446  0.00  0.00    -0.252 OA
ATOM     11  N   UNL     1       1.034  -3.937   2.364  0.00  0.00    -0.288 N 
ATOM     12  H   UNL     1       1.962  -3.749   2.153  0.00  0.00    +0.151 HD
ENDROOT
BRANCH   1  18
ATOM     13  C   UNL     1      -0.018   1.503   0.010  0.00  0.00    +0.044 C 
ATOM     14  C   UNL     1       0.002  -0.004   0.002  0.00  0.00    -0.050 A 
ATOM     15  C   UNL     1       0.006  -0.689  -1.199  0.00  0.00    +0.003 A 
ATOM     16  C   UNL     1       0.025  -2.071  -1.207  0.00  0.00    +0.001 A 
ATOM     17  C   UNL     1       0.040  -2.768  -0.013  0.00  0.00    +0.006 A 
ATOM     18  C   UNL     1       0.037  -2.084   1.188  0.00  0.00    -0.022 A 
ATOM     19  C   UNL     1       0.023  -0.702   1.195  0.00  0.00    +0.009 A 
ENDBRANCH   1  18
BRANCH   5  20
ATOM     20  C   UNL     1      -4.968  -2.811   3.545  0.00  0.00    +0.159 C 
ATOM     21  C   UNL     1      -5.497  -2.062   2.320  0.00  0.00    +0.038 C 
BRANCH  20  22
ATOM     22  C   UNL     1      -4.983  -1.893   4.740  0.00  0.00    +0.234 C 
ATOM     23  O   UNL     1      -3.950  -1.637   5.321  0.00  0.00    -0.274 OA
ATOM     24  N   UNL     1      -6.145  -1.357   5.163  0.00  0.00    -0.307 N 
ATOM     25  H   UNL     1      -6.971  -1.562   4.699  0.00  0.00    +0.149 HD
BRANCH  24  26
ATOM     26  C   UNL     1      -6.159  -0.465   6.325  0.00  0.00    +0.178 C 
BRANCH  26  27
ATOM     27  C   UNL     1      -7.570  -0.006   6.589  0.00  0.00    +0.122 A 
ATOM     28  C   UNL     1      -8.462  -0.621   7.387  0.00  0.00    +0.046 A 
ATOM     29  C   UNL     1      -9.649   0.146   7.342  0.00  0.00    +0.041 A 
ATOM     30  C   UNL     1      -9.412   1.183   6.520  0.00  0.00    +0.195 A 
ATOM     31  O   UNL     1      -8.149   1.089   6.071  0.00  0.00    -0.466 OA
ENDBRANCH  26  27
ENDBRANCH  24  26
ENDBRANCH  20  22
ENDBRANCH   5  20
BRANCH   8  32
ATOM     32  C   UNL     1      -1.028  -6.900   3.020  0.00  0.00    +0.141 C 
BRANCH  32  33
ATOM     33  C   UNL     1      -1.446  -7.487   1.696  0.00  0.00    -0.015 C 
ATOM     34  C   UNL     1      -0.857  -8.565   1.242  0.00  0.00    +0.005 C 
ENDBRANCH  32  33
ENDBRANCH   8  32
TORSDOF 7
