REMARK  Name = ZINC38631681
REMARK  6 active torsions:
REMARK  status: ('A' for Active; 'I' for Inactive)
REMARK    1  A    between atoms: N_9  and  C_10
REMARK    2  A    between atoms: C_10  and  C_12
REMARK    3  A    between atoms: C_10  and  C_23
REMARK    4  A    between atoms: C_12  and  N_13
REMARK    5  A    between atoms: N_13  and  S_14
REMARK    6  A    between atoms: S_14  and  C_17
REMARK                            x       y       z     vdW  Elec       q    Type
REMARK                         _______ _______ _______ _____ _____    ______ ____
ROOT
ATOM      1  C   UNL     1       4.903  -0.424  -0.048  0.00  0.00    +0.155 C 
ENDROOT
BRANCH   1  10
ATOM      2  C   UNL     1      -0.017   1.378   0.010  0.00  0.00    +0.000 A 
ATOM      3  C   UNL     1       1.174   2.082   0.002  0.00  0.00    +0.002 A 
ATOM      4  C   UNL     1       2.377   1.411  -0.013  0.00  0.00    +0.023 A 
ATOM      5  C   UNL     1       2.405   0.014  -0.021  0.00  0.00    +0.034 A 
ATOM      6  C   UNL     1       1.206  -0.682  -0.013  0.00  0.00    -0.025 A 
ATOM      7  C   UNL     1       0.002  -0.004   0.002  0.00  0.00    +0.005 A 
ATOM      8  C   UNL     1       1.510  -2.163  -0.023  0.00  0.00    +0.056 C 
ATOM      9  C   UNL     1       3.046  -2.241  -0.038  0.00  0.00    +0.110 C 
ATOM     10  N   UNL     1       3.501  -0.849  -0.036  0.00  0.00    -0.318 N 
ENDBRANCH   1  10
BRANCH   1  11
ATOM     11  C   UNL     1       5.166   0.407  -1.278  0.00  0.00    +0.126 A 
ATOM     12  C   UNL     1       6.270   0.352  -2.044  0.00  0.00    +0.046 A 
ATOM     13  C   UNL     1       6.096   1.296  -3.082  0.00  0.00    +0.041 A 
ATOM     14  C   UNL     1       4.896   1.871  -2.888  0.00  0.00    +0.195 A 
ATOM     15  O   UNL     1       4.334   1.325  -1.797  0.00  0.00    -0.466 OA
ENDBRANCH   1  11
BRANCH   1  16
ATOM     16  C   UNL     1       5.195   0.408   1.202  0.00  0.00    +0.136 C 
BRANCH  16  17
ATOM     17  N   UNL     1       4.827  -0.358   2.395  0.00  0.00    -0.187 NA
ATOM     18  H   UNL     1       4.269  -1.147   2.312  0.00  0.00    +0.148 HD
BRANCH  17  19
ATOM     19  S   UNL     1       5.365   0.122   3.886  0.00  0.00    +0.065 S 
ATOM     20  O   UNL     1       4.825  -0.795   4.828  0.00  0.00    -0.153 OA
ATOM     21  O   UNL     1       6.762   0.350   3.760  0.00  0.00    -0.153 OA
BRANCH  19  22
ATOM     22  C   UNL     1       4.629   1.686   4.227  0.00  0.00    +0.144 A 
ATOM     23  C   UNL     1       3.456   1.960   4.848  0.00  0.00    +0.038 A 
ATOM     24  C   UNL     1       3.073   3.279   5.007  0.00  0.00    +0.030 A 
ATOM     25  C   UNL     1       3.883   4.260   4.536  0.00  0.00    +0.080 A 
ATOM     26  S   UNL     1       5.238   3.321   3.850  0.00  0.00    -0.057 S 
ATOM     27 CL   UNL     1       3.663   5.981   4.593  0.00  0.00    -0.076 Cl
ENDBRANCH  19  22
ENDBRANCH  17  19
ENDBRANCH  16  17
ENDBRANCH   1  16
TORSDOF 6
