REMARK  Name = ZINC20109425
REMARK  9 active torsions:
REMARK  status: ('A' for Active; 'I' for Inactive)
REMARK    1  A    between atoms: C_4  and  C_7
REMARK    2  A    between atoms: C_7  and  C_8
REMARK    3  A    between atoms: C_8  and  N_9
REMARK    4  A    between atoms: N_9  and  C_10
REMARK    5  A    between atoms: N_9  and  C_25
REMARK    6  A    between atoms: C_10  and  C_11
REMARK    7  A    between atoms: C_25  and  C_26
REMARK    8  A    between atoms: N_30  and  C_31
REMARK    9  A    between atoms: C_31  and  C_32
REMARK                            x       y       z     vdW  Elec       q    Type
REMARK                         _______ _______ _______ _____ _____    ______ ____
ROOT
ATOM      1  N   UNL     1       5.530  -1.449   1.160  0.00  0.00    -0.290 NA
ENDROOT
BRANCH   1   2
ATOM      2  C   UNL     1       4.198  -0.869   0.941  0.00  0.00    +0.090 C 
BRANCH   2   3
ATOM      3  C   UNL     1       4.034  -0.515  -0.538  0.00  0.00    +0.050 C 
BRANCH   3   7
ATOM      4  C   UNL     1       0.041   0.828  -1.247  0.00  0.00    +0.000 A 
ATOM      5  C   UNL     1       1.006   1.722  -0.825  0.00  0.00    +0.000 A 
ATOM      6  C   UNL     1       2.298   1.288  -0.595  0.00  0.00    +0.003 A 
ATOM      7  C   UNL     1       2.625  -0.041  -0.787  0.00  0.00    -0.046 A 
ATOM      8  C   UNL     1       1.659  -0.936  -1.209  0.00  0.00    +0.003 A 
ATOM      9  C   UNL     1       0.367  -0.502  -1.439  0.00  0.00    +0.000 A 
ENDBRANCH   3   7
ENDBRANCH   2   3
ENDBRANCH   1   2
BRANCH   1  10
ATOM     10  C   UNL     1       5.674  -1.931   2.541  0.00  0.00    +0.125 C 
BRANCH  10  11
ATOM     11  C   UNL     1       4.737  -3.088   2.769  0.00  0.00    +0.031 A 
ATOM     12  C   UNL     1       5.187  -4.361   2.627  0.00  0.00    +0.020 A 
ATOM     13  C   UNL     1       4.253  -5.463   2.855  0.00  0.00    +0.003 A 
ATOM     14  C   UNL     1       4.662  -6.796   2.721  0.00  0.00    +0.059 A 
ATOM     15  C   UNL     1       3.760  -7.812   2.942  0.00  0.00    +0.167 A 
ATOM     16  C   UNL     1       2.438  -7.518   3.300  0.00  0.00    +0.168 A 
ATOM     17  C   UNL     1       2.026  -6.205   3.434  0.00  0.00    +0.075 A 
ATOM     18  C   UNL     1       2.924  -5.168   3.215  0.00  0.00    +0.053 A 
ATOM     19  N   UNL     1       2.530  -3.851   3.343  0.00  0.00    -0.322 N 
ATOM     20  C   UNL     1       3.398  -2.846   3.135  0.00  0.00    +0.254 A 
ATOM     21  O   UNL     1       3.015  -1.695   3.262  0.00  0.00    -0.268 OA
ATOM     22  O   UNL     1       1.761  -8.692   3.458  0.00  0.00    -0.453 OA
ATOM     23  C   UNL     1       2.560  -9.690   2.796  0.00  0.00    +0.466 C 
ATOM     24  O   UNL     1       3.900  -9.170   2.879  0.00  0.00    -0.453 OA
ATOM     25  H   UNL     1       1.614  -3.649   3.591  0.00  0.00    +0.169 HD
ENDBRANCH  10  11
ENDBRANCH   1  10
BRANCH   1  26
ATOM     26  C   UNL     1       6.586  -0.484   0.827  0.00  0.00    +0.162 C 
BRANCH  26  27
ATOM     27  C   UNL     1       7.905  -1.204   0.707  0.00  0.00    +0.165 A 
ATOM     28  N   UNL     1       8.797  -1.365   1.654  0.00  0.00    -0.112 NA
ATOM     29  N   UNL     1       9.784  -2.031   1.161  0.00  0.00    -0.023 NA
ATOM     30  N   UNL     1       9.544  -2.299  -0.075  0.00  0.00    -0.044 NA
ATOM     31  N   UNL     1       8.393  -1.810  -0.391  0.00  0.00    -0.225 N 
BRANCH  31  32
ATOM     32  C   UNL     1       7.741  -1.896  -1.700  0.00  0.00    +0.178 C 
BRANCH  32  33
ATOM     33  C   UNL     1       8.227  -0.748  -2.588  0.00  0.00    +0.140 C 
ATOM     34  C   UNL     1       7.456  -0.759  -3.926  0.00  0.00    +0.035 C 
ATOM     35  C   UNL     1       8.567  -0.395  -4.949  0.00  0.00    +0.031 C 
ATOM     36  C   UNL     1       9.797  -1.081  -4.303  0.00  0.00    +0.160 C 
ATOM     37  O   UNL     1       9.617  -0.920  -2.886  0.00  0.00    -0.375 OA
ENDBRANCH  32  33
ENDBRANCH  31  32
ENDBRANCH  26  27
ENDBRANCH   1  26
TORSDOF 9
