REMARK  Name = ZINC02074408
REMARK  16 active torsions:
REMARK  status: ('A' for Active; 'I' for Inactive)
REMARK    1  A    between atoms: C_1  and  C_2
REMARK    2  A    between atoms: C_2  and  C_3
REMARK    3  A    between atoms: C_3  and  C_4
REMARK    4  A    between atoms: C_4  and  O_5
REMARK    5  A    between atoms: O_5  and  C_6
REMARK    6  A    between atoms: C_6  and  C_8
REMARK    7  A    between atoms: C_9  and  C_41
REMARK    8  A    between atoms: C_13  and  C_15
REMARK    9  A    between atoms: C_18  and  C_21
REMARK   10  A    between atoms: C_21  and  O_23
REMARK   11  A    between atoms: O_23  and  C_24
REMARK   12  A    between atoms: C_28  and  C_31
REMARK   13  A    between atoms: C_34  and  O_39
REMARK   14  A    between atoms: C_35  and  O_37
REMARK   15  A    between atoms: O_37  and  C_38
REMARK   16  A    between atoms: O_39  and  C_40
REMARK                            x       y       z     vdW  Elec       q    Type
REMARK                         _______ _______ _______ _____ _____    ______ ____
ROOT
ATOM      1  C   UNL     1      -9.421  -4.436   1.417  0.00  0.00    +0.065 C 
ATOM      2  C   UNL     1      -8.725  -4.119   2.522  0.00  0.00    +0.016 C 
ATOM      3  N   UNL     1      -7.714  -3.201   2.465  0.00  0.00    -0.321 N 
ATOM      4  C   UNL     1      -7.127  -2.883   1.269  0.00  0.00    +0.016 C 
ATOM      5  C   UNL     1      -7.754  -3.153   0.105  0.00  0.00    +0.024 C 
ATOM      6  C   UNL     1      -9.120  -3.792   0.096  0.00  0.00    +0.092 C 
ATOM      7  C   UNL     1      -7.156  -2.845  -1.130  0.00  0.00    +0.162 C 
ATOM      8  O   UNL     1      -7.752  -3.094  -2.159  0.00  0.00    -0.292 OA
ATOM      9  C   UNL     1      -5.793  -2.212  -1.200  0.00  0.00    +0.088 C 
ATOM     10  C   UNL     1      -4.987  -2.627   0.035  0.00  0.00    +0.032 C 
ATOM     11  C   UNL     1      -5.769  -2.226   1.288  0.00  0.00    +0.059 C 
ATOM     12  C   UNL     1      -9.061  -4.780   3.834  0.00  0.00    +0.061 C 
ATOM     13  H   UNL     1      -7.364  -2.709   3.384  0.00  0.00    +0.152 HD
ENDROOT
BRANCH   6  14
ATOM     14  C   UNL     1     -10.158  -2.738  -0.189  0.00  0.00    -0.035 A 
ATOM     15  C   UNL     1     -10.297  -1.659   0.666  0.00  0.00    +0.005 A 
ATOM     16  C   UNL     1     -11.242  -0.688   0.408  0.00  0.00    +0.015 A 
ATOM     17  C   UNL     1     -12.066  -0.800  -0.713  0.00  0.00    +0.059 A 
ATOM     18  C   UNL     1     -11.924  -1.894  -1.569  0.00  0.00    +0.015 A 
ATOM     19  C   UNL     1     -10.971  -2.855  -1.303  0.00  0.00    +0.005 A 
BRANCH  17  20
ATOM     20  C   UNL     1     -13.084   0.233  -0.992  0.00  0.00    +0.339 C 
ATOM     21  O   UNL     1     -13.800   0.132  -1.968  0.00  0.00    -0.245 OA
BRANCH  20  22
ATOM     22  O   UNL     1     -13.219   1.287  -0.164  0.00  0.00    -0.464 OA
ATOM     23  C   UNL     1     -14.240   2.263  -0.500  0.00  0.00    +0.280 C 
ENDBRANCH  20  22
ENDBRANCH  17  20
ENDBRANCH   6  14
BRANCH  10  24
ATOM     24  C   UNL     1      -3.652  -1.928   0.026  0.00  0.00    -0.040 A 
ATOM     25  C   UNL     1      -3.596  -0.546   0.033  0.00  0.00    +0.008 A 
ATOM     26  C   UNL     1      -2.374   0.099   0.031  0.00  0.00    +0.049 A 
ATOM     27  C   UNL     1      -1.201  -0.638   0.010  0.00  0.00    +0.161 A 
ATOM     28  C   UNL     1      -1.257  -2.028   0.003  0.00  0.00    +0.162 A 
ATOM     29  C   UNL     1      -2.485  -2.669   0.011  0.00  0.00    +0.053 A 
BRANCH  28  30
ATOM     30  O   UNL     1      -0.108  -2.756  -0.012  0.00  0.00    -0.491 OA
ATOM     31  C   UNL     1      -0.242  -4.179  -0.018  0.00  0.00    +0.277 C 
ENDBRANCH  28  30
BRANCH  27  32
ATOM     32  O   UNL     1       0.002  -0.004   0.002  0.00  0.00    -0.491 OA
ATOM     33  C   UNL     1      -0.017   1.425   0.010  0.00  0.00    +0.277 C 
ENDBRANCH  27  32
ENDBRANCH  10  24
BRANCH   1  34
ATOM     34  C   UNL     1     -10.458  -5.394   1.502  0.00  0.00    +0.338 C 
ATOM     35  O   UNL     1     -10.713  -5.923   2.568  0.00  0.00    -0.245 OA
BRANCH  34  36
ATOM     36  O   UNL     1     -11.166  -5.722   0.401  0.00  0.00    -0.461 OA
BRANCH  36  37
ATOM     37  C   UNL     1     -12.199  -6.697   0.559  0.00  0.00    +0.232 C 
BRANCH  37  38
ATOM     38  C   UNL     1     -12.885  -6.936  -0.787  0.00  0.00    +0.041 C 
BRANCH  38  40
ATOM     39  C   UNL     1     -14.677  -8.220  -1.964  0.00  0.00    +0.004 C 
ATOM     40  C   UNL     1     -13.991  -7.980  -0.617  0.00  0.00    -0.000 C 
ENDBRANCH  38  40
ENDBRANCH  37  38
ENDBRANCH  36  37
ENDBRANCH  34  36
ENDBRANCH   1  34
TORSDOF 11
