REMARK  Name = ZINC36331224
REMARK  2 active torsions:
REMARK  status: ('A' for Active; 'I' for Inactive)
REMARK    1  A    between atoms: C_7  and  N_13
REMARK    2  A    between atoms: N_13  and  C_14
REMARK                            x       y       z     vdW  Elec       q    Type
REMARK                         _______ _______ _______ _____ _____    ______ ____
ROOT
ATOM      1  C   UNL     1      -0.642   1.387   0.108  0.00  0.00    -0.000 C 
ATOM      2  C   UNL     1       0.733   2.022  -0.112  0.00  0.00    -0.000 C 
ATOM      3  C   UNL     1       1.007   3.041   0.995  0.00  0.00    -0.000 C 
ATOM      4  C   UNL     1       2.352   2.728   1.655  0.00  0.00    -0.000 C 
ATOM      5  C   UNL     1       2.162   2.611   3.169  0.00  0.00    -0.002 C 
ATOM      6  C   UNL     1       2.733   1.276   3.652  0.00  0.00    -0.016 C 
ATOM      7  C   UNL     1       1.668   0.526   4.455  0.00  0.00    -0.071 C 
ATOM      8  C   UNL     1       1.496  -0.882   3.882  0.00  0.00    -0.016 C 
ATOM      9  C   UNL     1       0.019  -1.127   3.567  0.00  0.00    -0.002 C 
ATOM     10  C   UNL     1      -0.123  -1.589   2.115  0.00  0.00    -0.000 C 
ATOM     11  C   UNL     1      -1.136  -0.697   1.394  0.00  0.00    -0.000 C 
ATOM     12  C   UNL     1      -0.505  -0.137   0.118  0.00  0.00    -0.000 C 
ENDROOT
BRANCH   7  13
ATOM     13  N   UNL     1       0.392   1.249   4.370  0.00  0.00    +0.383 N 
ATOM     14  H   UNL     1       0.201   1.482   3.406  0.00  0.00    -0.085 HD
ATOM     15  H   UNL     1      -0.349   0.666   4.728  0.00  0.00    -0.085 HD
BRANCH  13  16
ATOM     16  C   UNL     1       0.473   2.481   5.165  0.00  0.00    -0.068 C 
ATOM     17  C   UNL     1       0.582   2.119   6.643  0.00  0.00    +0.007 C 
ATOM     18  C   UNL     1       0.936   3.364   7.461  0.00  0.00    +0.164 C 
ATOM     19  S   UNL     1      -0.414   4.571   7.310  0.00  0.00    -0.031 S 
ATOM     20  O   UNL     1       0.033   5.816   7.830  0.00  0.00    -0.174 OA
ATOM     21  O   UNL     1      -1.601   3.989   7.831  0.00  0.00    -0.174 OA
ATOM     22  C   UNL     1      -0.584   4.724   5.508  0.00  0.00    +0.164 C 
ATOM     23  C   UNL     1      -0.770   3.329   4.907  0.00  0.00    +0.007 C 
ENDBRANCH  13  16
ENDBRANCH   7  13
TORSDOF 2
