REMARK  Name = ZINC00919517
REMARK  6 active torsions:
REMARK  status: ('A' for Active; 'I' for Inactive)
REMARK    1  A    between atoms: C_4  and  S_7
REMARK    2  A    between atoms: S_7  and  N_10
REMARK    3  A    between atoms: N_10  and  C_11
REMARK    4  A    between atoms: N_10  and  C_21
REMARK    5  A    between atoms: C_11  and  C_12
REMARK    6  A    between atoms: C_21  and  C_22
REMARK                            x       y       z     vdW  Elec       q    Type
REMARK                         _______ _______ _______ _____ _____    ______ ____
ROOT
ATOM      1  N   UNL     1       6.004  -0.998   1.292  0.00  0.00    -0.168 NA
ENDROOT
BRANCH   1   2
ATOM      2  S   UNL     1       6.891   0.295   0.759  0.00  0.00    +0.061 S 
ATOM      3  O   UNL     1       7.289  -0.006  -0.571  0.00  0.00    -0.153 OA
ATOM      4  O   UNL     1       6.147   1.461   1.087  0.00  0.00    -0.153 OA
BRANCH   2   8
ATOM      5  C   UNL     1      10.674   0.437   3.241  0.00  0.00    +0.000 A 
ATOM      6  C   UNL     1      10.645  -0.290   2.066  0.00  0.00    +0.002 A 
ATOM      7  C   UNL     1       9.490  -0.333   1.308  0.00  0.00    +0.028 A 
ATOM      8  C   UNL     1       8.363   0.350   1.726  0.00  0.00    +0.105 A 
ATOM      9  C   UNL     1       8.394   1.081   2.898  0.00  0.00    +0.028 A 
ATOM     10  C   UNL     1       9.547   1.120   3.659  0.00  0.00    +0.002 A 
ENDBRANCH   2   8
ENDBRANCH   1   2
BRANCH   1  11
ATOM     11  C   UNL     1       4.936  -0.798   2.276  0.00  0.00    +0.145 C 
BRANCH  11  12
ATOM     12  C   UNL     1       5.449  -1.145   3.650  0.00  0.00    -0.028 A 
ATOM     13  C   UNL     1       5.923  -0.148   4.481  0.00  0.00    +0.009 A 
ATOM     14  C   UNL     1       6.395  -0.462   5.742  0.00  0.00    +0.050 A 
ATOM     15  C   UNL     1       6.392  -1.778   6.176  0.00  0.00    +0.166 A 
ATOM     16  C   UNL     1       5.913  -2.782   5.339  0.00  0.00    +0.167 A 
ATOM     17  C   UNL     1       5.442  -2.461   4.076  0.00  0.00    +0.054 A 
ATOM     18  O   UNL     1       6.015  -3.978   5.989  0.00  0.00    -0.453 OA
ATOM     19  C   UNL     1       6.179  -3.646   7.381  0.00  0.00    +0.466 C 
ATOM     20  O   UNL     1       6.794  -2.344   7.351  0.00  0.00    -0.453 OA
ENDBRANCH  11  12
ENDBRANCH   1  11
BRANCH   1  21
ATOM     21  C   UNL     1       6.286  -2.341   0.779  0.00  0.00    +0.150 C 
BRANCH  21  22
ATOM     22  C   UNL     1       5.345  -2.653  -0.356  0.00  0.00    +0.033 A 
ATOM     23  C   UNL     1       5.732  -2.426  -1.637  0.00  0.00    +0.020 A 
ATOM     24  C   UNL     1       4.799  -2.744  -2.716  0.00  0.00    +0.003 A 
ATOM     25  C   UNL     1       5.145  -2.534  -4.057  0.00  0.00    +0.059 A 
ATOM     26  C   UNL     1       4.243  -2.840  -5.053  0.00  0.00    +0.163 A 
ATOM     27  C   UNL     1       2.985  -3.357  -4.729  0.00  0.00    +0.164 A 
ATOM     28  C   UNL     1       2.634  -3.567  -3.407  0.00  0.00    +0.075 A 
ATOM     29  C   UNL     1       3.531  -3.264  -2.392  0.00  0.00    +0.053 A 
ATOM     30  N   UNL     1       3.197  -3.466  -1.068  0.00  0.00    -0.322 N 
ATOM     31  H   UNL     1       2.296  -3.835  -0.838  0.00  0.00    +0.169 HD
ATOM     32  C   UNL     1       4.065  -3.175  -0.083  0.00  0.00    +0.254 A 
ATOM     33  O   UNL     1       3.735  -3.366   1.075  0.00  0.00    -0.268 OA
ATOM     34  O   UNL     1       2.090  -3.665  -5.707  0.00  0.00    -0.485 OA
ATOM     35  C   UNL     1       2.326  -3.096  -6.999  0.00  0.00    +0.270 C 
ATOM     36  C   UNL     1       3.808  -3.291  -7.348  0.00  0.00    +0.270 C 
ATOM     37  O   UNL     1       4.594  -2.627  -6.352  0.00  0.00    -0.485 OA
ENDBRANCH  21  22
ENDBRANCH   1  21
TORSDOF 6
