REMARK  Name = ZINC35279263
REMARK  6 active torsions:
REMARK  status: ('A' for Active; 'I' for Inactive)
REMARK    1  A    between atoms: C_1  and  C_2
REMARK    2  A    between atoms: C_5  and  N_9
REMARK    3  A    between atoms: C_6  and  O_8
REMARK    4  A    between atoms: N_9  and  S_10
REMARK    5  A    between atoms: S_10  and  N_13
REMARK    6  A    between atoms: C_18  and  C_20
REMARK                            x       y       z     vdW  Elec       q    Type
REMARK                         _______ _______ _______ _____ _____    ______ ____
ROOT
ATOM      1  N   UNL     1       0.249  -3.749   0.501  0.00  0.00    -0.203 N 
ATOM      2  H   UNL     1      -0.173  -4.248   1.217  0.00  0.00    +0.175 HD
ENDROOT
BRANCH   1   7
ATOM      3  C   UNL     1       1.176   1.822   1.077  0.00  0.00    +0.044 C 
ATOM      4  C   UNL     1       0.928   0.343   0.926  0.00  0.00    -0.047 A 
ATOM      5  C   UNL     1       1.837  -0.442   0.242  0.00  0.00    +0.005 A 
ATOM      6  C   UNL     1       1.615  -1.799   0.100  0.00  0.00    +0.028 A 
ATOM      7  C   UNL     1       0.477  -2.376   0.644  0.00  0.00    +0.090 A 
ATOM      8  C   UNL     1      -0.439  -1.584   1.333  0.00  0.00    +0.139 A 
ATOM      9  C   UNL     1      -0.206  -0.226   1.476  0.00  0.00    +0.050 A 
BRANCH   8  10
ATOM     10  O   UNL     1      -1.557  -2.144   1.869  0.00  0.00    -0.505 OA
ATOM     11  H   UNL     1      -1.444  -2.457   2.776  0.00  0.00    +0.292 HD
ENDBRANCH   8  10
ENDBRANCH   1   7
BRANCH   1  12
ATOM     12  S   UNL     1       0.700  -4.522  -0.893  0.00  0.00    +0.112 S 
ATOM     13  O   UNL     1       0.323  -5.884  -0.742  0.00  0.00    -0.138 OA
ATOM     14  O   UNL     1       0.239  -3.719  -1.970  0.00  0.00    -0.138 OA
BRANCH  12  15
ATOM     15  N   UNL     1       2.355  -4.493  -0.955  0.00  0.00    -0.161 NA
ATOM     16  C   UNL     1       3.052  -3.688  -1.967  0.00  0.00    +0.111 C 
ATOM     17  C   UNL     1       4.032  -4.589  -2.725  0.00  0.00    +0.017 C 
ATOM     18  C   UNL     1       4.960  -5.281  -1.724  0.00  0.00    +0.003 C 
ATOM     19  C   UNL     1       4.133  -6.155  -0.779  0.00  0.00    +0.020 C 
ATOM     20  C   UNL     1       3.154  -5.267   0.005  0.00  0.00    +0.078 C 
ATOM     21  C   UNL     1       2.230  -6.144   0.853  0.00  0.00    +0.026 C 
ENDBRANCH  12  15
ENDBRANCH   1  12
TORSDOF 4
