REMARK  Name = ZINC40495706
REMARK  5 active torsions:
REMARK  status: ('A' for Active; 'I' for Inactive)
REMARK    1  A    between atoms: C_1  and  C_2
REMARK    2  A    between atoms: C_4  and  C_21
REMARK    3  A    between atoms: N_8  and  C_9
REMARK    4  A    between atoms: C_9  and  C_10
REMARK    5  A    between atoms: C_15  and  N_16
REMARK                            x       y       z     vdW  Elec       q    Type
REMARK                         _______ _______ _______ _____ _____    ______ ____
ROOT
ATOM      1  C   UNL     1       0.046  -1.929   3.606  0.00  0.00    +0.142 C 
ENDROOT
BRANCH   1   9
ATOM      2  C   UNL     1      -0.018   1.503   0.010  0.00  0.00    +0.066 C 
ATOM      3  C   UNL     1       0.002  -0.004   0.002  0.00  0.00    +0.044 A 
ATOM      4  C   UNL     1       0.006  -0.699  -1.197  0.00  0.00    +0.046 A 
ATOM      5  C   UNL     1       0.025  -2.084  -1.160  0.00  0.00    +0.044 A 
ATOM      6  N   UNL     1       0.040  -2.698   0.011  0.00  0.00    -0.220 NA
ATOM      7  C   UNL     1       0.035  -2.004   1.140  0.00  0.00    +0.216 A 
ATOM      8  N   UNL     1       0.022  -0.679   1.139  0.00  0.00    -0.220 NA
ATOM      9  N   UNL     1       0.050  -2.679   2.348  0.00  0.00    -0.309 N 
ATOM     10  C   UNL     1       0.030  -2.881  -2.439  0.00  0.00    +0.066 C 
ATOM     11  H   UNL     1       0.063  -3.649   2.362  0.00  0.00    +0.149 HD
ENDBRANCH   1   9
BRANCH   1  12
ATOM     12  C   UNL     1       0.064  -2.892   4.765  0.00  0.00    -0.005 A 
ATOM     13  C   UNL     1      -1.107  -3.194   5.432  0.00  0.00    +0.007 A 
ATOM     14  C   UNL     1      -1.091  -4.078   6.495  0.00  0.00    +0.000 A 
ATOM     15  C   UNL     1       0.097  -4.661   6.895  0.00  0.00    +0.002 A 
ATOM     16  C   UNL     1       1.272  -4.362   6.233  0.00  0.00    +0.028 A 
ATOM     17  C   UNL     1       1.258  -3.480   5.161  0.00  0.00    +0.070 A 
BRANCH  17  18
ATOM     18  N   UNL     1       2.447  -3.180   4.483  0.00  0.00    -0.240 N 
ATOM     19  C   UNL     1       3.671  -3.684   4.761  0.00  0.00    +0.114 A 
ATOM     20  C   UNL     1       4.547  -3.147   3.881  0.00  0.00    +0.041 A 
ATOM     21  C   UNL     1       3.837  -2.285   3.038  0.00  0.00    +0.135 A 
ATOM     22  N   UNL     1       2.578  -2.308   3.394  0.00  0.00    -0.175 NA
ENDBRANCH  17  18
ENDBRANCH   1  12
TORSDOF 3
