REMARK  Name = ZINC36066392
REMARK  8 active torsions:
REMARK  status: ('A' for Active; 'I' for Inactive)
REMARK    1  A    between atoms: C_1  and  C_2
REMARK    2  A    between atoms: C_2  and  C_3
REMARK    3  A    between atoms: C_3  and  N_4
REMARK    4  A    between atoms: C_5  and  C_29
REMARK    5  A    between atoms: C_13  and  C_19
REMARK    6  A    between atoms: N_21  and  C_22
REMARK    7  A    between atoms: C_25  and  C_28
REMARK    8  A    between atoms: N_31  and  C_32
REMARK                            x       y       z     vdW  Elec       q    Type
REMARK                         _______ _______ _______ _____ _____    ______ ____
ROOT
ATOM      1  N   UNL     1       1.361  -2.012  -1.549  0.00  0.00    -0.287 N 
ATOM      2  C   UNL     1       2.332  -2.963  -0.922  0.00  0.00    +0.198 C 
ATOM      3  C   UNL     1       2.010  -4.244  -1.628  0.00  0.00    +0.127 C 
ATOM      4  C   UNL     1       2.462  -4.248  -3.077  0.00  0.00    +0.009 C 
ATOM      5  C   UNL     1       2.120  -5.434  -3.557  0.00  0.00    +0.004 C 
ATOM      6  C   UNL     1       1.395  -6.136  -2.402  0.00  0.00    +0.155 C 
ATOM      7  O   UNL     1       2.124  -5.588  -1.225  0.00  0.00    -0.358 OA
ATOM      8  C   UNL     1       0.020  -5.363  -2.354  0.00  0.00    +0.123 C 
ATOM      9  C   UNL     1       0.435  -4.106  -1.591  0.00  0.00    +0.128 C 
ATOM     10  C   UNL     1       0.281  -2.709  -2.034  0.00  0.00    +0.223 C 
ATOM     11  O   UNL     1      -0.627  -2.260  -2.702  0.00  0.00    -0.275 OA
ENDROOT
BRANCH   8  12
ATOM     12  C   UNL     1      -0.468  -5.040  -3.743  0.00  0.00    +0.224 C 
ATOM     13  O   UNL     1      -0.618  -3.885  -4.080  0.00  0.00    -0.275 OA
ATOM     14  N   UNL     1      -0.737  -6.036  -4.611  0.00  0.00    -0.285 N 
ATOM     15  H   UNL     1      -0.545  -6.955  -4.369  0.00  0.00    +0.155 HD
BRANCH  14  16
ATOM     16  C   UNL     1      -1.294  -5.742  -5.861  0.00  0.00    +0.033 A 
ATOM     17  C   UNL     1      -0.972  -6.519  -6.966  0.00  0.00    +0.023 A 
ATOM     18  C   UNL     1      -1.523  -6.227  -8.198  0.00  0.00    +0.005 A 
ATOM     19  C   UNL     1      -2.395  -5.162  -8.332  0.00  0.00    -0.050 A 
ATOM     20  C   UNL     1      -2.718  -4.386  -7.234  0.00  0.00    +0.005 A 
ATOM     21  C   UNL     1      -2.175  -4.677  -5.997  0.00  0.00    +0.023 A 
ATOM     22  C   UNL     1      -2.995  -4.846  -9.678  0.00  0.00    +0.044 C 
ENDBRANCH  14  16
ENDBRANCH   8  12
BRANCH   2  23
ATOM     23  C   UNL     1       3.753  -2.540  -1.194  0.00  0.00    +0.237 C 
ATOM     24  O   UNL     1       3.993  -1.768  -2.098  0.00  0.00    -0.274 OA
ATOM     25  N   UNL     1       4.756  -3.019  -0.432  0.00  0.00    -0.311 N 
ATOM     26  H   UNL     1       4.564  -3.636   0.291  0.00  0.00    +0.149 HD
BRANCH  25  27
ATOM     27  C   UNL     1       6.137  -2.607  -0.696  0.00  0.00    +0.073 C 
ATOM     28  C   UNL     1       6.735  -3.499  -1.786  0.00  0.00    +0.022 C 
ATOM     29  C   UNL     1       8.177  -3.069  -2.062  0.00  0.00    +0.002 C 
ATOM     30  C   UNL     1       9.004  -3.205  -0.782  0.00  0.00    +0.000 C 
ATOM     31  C   UNL     1       8.406  -2.313   0.308  0.00  0.00    +0.002 C 
ATOM     32  C   UNL     1       6.963  -2.743   0.584  0.00  0.00    +0.022 C 
ENDBRANCH  25  27
ENDBRANCH   2  23
BRANCH   1  33
ATOM     33  C   UNL     1       1.534  -0.560  -1.628  0.00  0.00    +0.108 C 
BRANCH  33  35
ATOM     34  C   UNL     1       1.108   1.611  -0.468  0.00  0.00    +0.005 C 
ATOM     35  C   UNL     1       0.927   0.094  -0.385  0.00  0.00    +0.016 C 
ENDBRANCH  33  35
ENDBRANCH   1  33
TORSDOF 6
