REMARK  Name = ZINC16986864
REMARK  11 active torsions:
REMARK  status: ('A' for Active; 'I' for Inactive)
REMARK    1  A    between atoms: C_1  and  C_2
REMARK    2  A    between atoms: C_5  and  O_33
REMARK    3  A    between atoms: C_6  and  N_8
REMARK    4  A    between atoms: C_9  and  C_11
REMARK    5  A    between atoms: C_11  and  C_13
REMARK    6  A    between atoms: C_11  and  S_14
REMARK    7  A    between atoms: S_14  and  C_15
REMARK    8  A    between atoms: C_19  and  C_22
REMARK    9  A    between atoms: N_29  and  C_30
REMARK   10  A    between atoms: C_30  and  C_31
REMARK   11  A    between atoms: O_33  and  C_34
REMARK                            x       y       z     vdW  Elec       q    Type
REMARK                         _______ _______ _______ _____ _____    ______ ____
ROOT
ATOM      1  C   UNL     1      -5.148   1.210  -0.440  0.00  0.00    +0.174 A 
ATOM      2  N   UNL     1      -5.046   0.013   0.100  0.00  0.00    -0.216 NA
ATOM      3  C   UNL     1      -6.111  -0.772   0.222  0.00  0.00    +0.117 A 
ATOM      4  C   UNL     1      -7.386  -0.372  -0.213  0.00  0.00    +0.080 A 
ATOM      5  C   UNL     1      -8.446  -1.354  -0.004  0.00  0.00    +0.010 A 
ATOM      6  C   UNL     1      -8.131  -2.539   0.575  0.00  0.00    +0.057 A 
ATOM      7  S   UNL     1      -6.380  -2.401   0.874  0.00  0.00    -0.076 S 
ATOM      8  C   UNL     1      -7.466   0.931  -0.793  0.00  0.00    +0.264 A 
ATOM      9  O   UNL     1      -8.532   1.362  -1.198  0.00  0.00    -0.267 OA
ATOM     10  N   UNL     1      -6.351   1.678  -0.883  0.00  0.00    -0.283 N 
ENDROOT
BRANCH   5  11
ATOM     11  C   UNL     1      -9.835  -1.063  -0.415  0.00  0.00    +0.021 A 
ATOM     12  C   UNL     1     -10.690  -1.823  -1.168  0.00  0.00    +0.016 A 
ATOM     13  C   UNL     1     -11.956  -1.339  -1.423  0.00  0.00    +0.008 A 
ATOM     14  C   UNL     1     -12.312  -0.126  -0.931  0.00  0.00    +0.046 A 
ATOM     15  S   UNL     1     -10.834   0.376  -0.065  0.00  0.00    -0.097 S 
ENDBRANCH   5  11
BRANCH   1  16
ATOM     16  S   UNL     1      -3.713   2.223  -0.586  0.00  0.00    -0.075 S 
BRANCH  16  17
ATOM     17  C   UNL     1      -2.476   1.122   0.145  0.00  0.00    +0.137 C 
ATOM     18  C   UNL     1      -2.799   0.902   1.624  0.00  0.00    +0.029 C 
BRANCH  17  20
ATOM     19  N   UNL     1      -0.011   0.966   0.007  0.00  0.00    -0.282 N 
ATOM     20  C   UNL     1      -1.110   1.746   0.016  0.00  0.00    +0.230 C 
ATOM     21  O   UNL     1      -1.000   2.950  -0.079  0.00  0.00    -0.274 OA
ATOM     22  H   UNL     1      -0.102   0.000   0.018  0.00  0.00    +0.155 HD
BRANCH  19  28
ATOM     23  C   UNL     1       2.949   4.588  -1.510  0.00  0.00    +0.044 C 
ATOM     24  C   UNL     1       2.726   3.305  -0.751  0.00  0.00    -0.048 A 
ATOM     25  C   UNL     1       3.779   2.705  -0.086  0.00  0.00    +0.007 A 
ATOM     26  C   UNL     1       3.581   1.528   0.611  0.00  0.00    +0.048 A 
ATOM     27  C   UNL     1       2.324   0.946   0.645  0.00  0.00    +0.141 A 
ATOM     28  C   UNL     1       1.262   1.550  -0.024  0.00  0.00    +0.076 A 
ATOM     29  C   UNL     1       1.470   2.728  -0.726  0.00  0.00    +0.030 A 
BRANCH  27  30
ATOM     30  O   UNL     1       2.128  -0.212   1.330  0.00  0.00    -0.493 OA
ATOM     31  C   UNL     1       3.262  -0.775   1.992  0.00  0.00    +0.277 C 
ENDBRANCH  27  30
ENDBRANCH  19  28
ENDBRANCH  17  20
ENDBRANCH  16  17
ENDBRANCH   1  16
BRANCH  10  32
ATOM     32  C   UNL     1      -6.428   3.017  -1.473  0.00  0.00    +0.154 C 
BRANCH  32  33
ATOM     33  C   UNL     1      -6.196   2.925  -2.960  0.00  0.00    -0.013 C 
ATOM     34  C   UNL     1      -7.080   3.418  -3.792  0.00  0.00    +0.005 C 
ENDBRANCH  32  33
ENDBRANCH  10  32
TORSDOF 8
