REMARK  Name = ZINC02956696
REMARK  8 active torsions:
REMARK  status: ('A' for Active; 'I' for Inactive)
REMARK    1  A    between atoms: C_1  and  C_2
REMARK    2  A    between atoms: C_2  and  C_3
REMARK    3  A    between atoms: C_3  and  O_4
REMARK    4  A    between atoms: O_4  and  C_5
REMARK    5  A    between atoms: C_15  and  O_16
REMARK    6  A    between atoms: O_16  and  C_17
REMARK    7  A    between atoms: C_17  and  C_18
REMARK    8  A    between atoms: C_18  and  C_19
REMARK                            x       y       z     vdW  Elec       q    Type
REMARK                         _______ _______ _______ _____ _____    ______ ____
ROOT
ATOM      1  C   UNL     1       1.341  -2.529  -2.322  0.00  0.00    +0.166 A 
ATOM      2  C   UNL     1       1.908  -1.752  -3.329  0.00  0.00    +0.050 A 
ATOM      3  C   UNL     1       2.519  -2.342  -4.398  0.00  0.00    +0.015 A 
ATOM      4  C   UNL     1       2.576  -3.738  -4.485  0.00  0.00    +0.025 A 
ATOM      5  C   UNL     1       3.227  -4.393  -5.627  0.00  0.00    -0.027 A 
ATOM      6  C   UNL     1       3.257  -5.742  -5.660  0.00  0.00    +0.041 A 
ATOM      7  C   UNL     1       2.655  -6.477  -4.608  0.00  0.00    +0.341 A 
ATOM      8  O   UNL     1       2.675  -7.694  -4.652  0.00  0.00    -0.245 OA
ATOM      9  O   UNL     1       2.064  -5.876  -3.567  0.00  0.00    -0.418 OA
ATOM     10  C   UNL     1       2.006  -4.530  -3.474  0.00  0.00    +0.184 A 
ATOM     11  C   UNL     1       1.393  -3.915  -2.388  0.00  0.00    +0.205 A 
ATOM     12  C   UNL     1       3.916  -6.513  -6.773  0.00  0.00    +0.042 C 
ATOM     13  C   UNL     1       4.114  -5.626  -8.000  0.00  0.00    +0.005 C 
ATOM     14  C   UNL     1       4.807  -4.332  -7.554  0.00  0.00    +0.005 C 
ATOM     15  C   UNL     1       3.823  -3.530  -6.705  0.00  0.00    +0.036 C 
ENDROOT
BRANCH   1  16
ATOM     16  O   UNL     1       0.738  -1.926  -1.265  0.00  0.00    -0.488 OA
BRANCH  16  17
ATOM     17  C   UNL     1       0.718  -0.497  -1.257  0.00  0.00    +0.229 C 
BRANCH  17  19
ATOM     18  C   UNL     1      -0.019   1.526   0.010  0.00  0.00    +0.007 C 
ATOM     19  C   UNL     1       0.002  -0.004   0.002  0.00  0.00    +0.038 C 
ENDBRANCH  17  19
ENDBRANCH  16  17
ENDBRANCH   1  16
BRANCH  11  20
ATOM     20  O   UNL     1       0.842  -4.668  -1.397  0.00  0.00    -0.485 OA
BRANCH  20  21
ATOM     21  C   UNL     1      -0.530  -5.039  -1.550  0.00  0.00    +0.229 C 
BRANCH  21  22
ATOM     22  C   UNL     1      -0.970  -5.876  -0.347  0.00  0.00    +0.038 C 
ATOM     23  C   UNL     1      -2.438  -6.273  -0.511  0.00  0.00    +0.007 C 
ENDBRANCH  21  22
ENDBRANCH  20  21
ENDBRANCH  11  20
TORSDOF 6
