REMARK  Name = ZINC43591748
REMARK  7 active torsions:
REMARK  status: ('A' for Active; 'I' for Inactive)
REMARK    1  A    between atoms: C_1  and  C_2
REMARK    2  A    between atoms: C_4  and  N_9
REMARK    3  A    between atoms: N_9  and  C_10
REMARK    4  A    between atoms: C_10  and  C_12
REMARK    5  A    between atoms: C_10  and  C_13
REMARK    6  A    between atoms: N_18  and  C_19
REMARK    7  A    between atoms: C_19  and  C_20
REMARK                            x       y       z     vdW  Elec       q    Type
REMARK                         _______ _______ _______ _____ _____    ______ ____
ROOT
ATOM      1  C   UNL     1       0.648  -4.724  -3.716  0.00  0.00    +0.240 C 
ATOM      2  O   UNL     1       1.023  -3.928  -4.550  0.00  0.00    -0.273 OA
ATOM      3  N   UNL     1       0.769  -6.047  -3.945  0.00  0.00    -0.239 N 
ATOM      4  C   UNL     1       1.306  -6.485  -5.101  0.00  0.00    +0.306 C 
ATOM      5  O   UNL     1       1.682  -5.686  -5.937  0.00  0.00    -0.252 OA
ATOM      6  N   UNL     1       1.427  -7.807  -5.330  0.00  0.00    -0.297 N 
ATOM      7  H   UNL     1       0.470  -6.684  -3.277  0.00  0.00    +0.159 HD
ATOM      8  H   UNL     1       1.128  -8.444  -4.662  0.00  0.00    +0.150 HD
ENDROOT
BRANCH   1   9
ATOM      9  C   UNL     1       0.048  -4.235  -2.423  0.00  0.00    +0.154 C 
ATOM     10  C   UNL     1      -1.382  -4.765  -2.292  0.00  0.00    +0.038 C 
BRANCH   9  11
ATOM     11  N   UNL     1       0.028  -2.770  -2.418  0.00  0.00    -0.333 N 
ATOM     12  H   UNL     1       0.017  -2.282  -3.256  0.00  0.00    +0.147 HD
BRANCH  11  16
ATOM     13  C   UNL     1      -0.018   1.503   0.010  0.00  0.00    +0.045 C 
ATOM     14  C   UNL     1       0.002  -0.004   0.002  0.00  0.00    -0.035 A 
ATOM     15  C   UNL     1       0.006  -0.687  -1.198  0.00  0.00    +0.027 A 
ATOM     16  C   UNL     1       0.025  -2.076  -1.205  0.00  0.00    +0.028 A 
ATOM     17  C   UNL     1       0.040  -2.774  -0.004  0.00  0.00    +0.024 A 
ATOM     18  C   UNL     1       0.036  -2.085   1.193  0.00  0.00    +0.017 A 
ATOM     19  C   UNL     1       0.023  -0.701   1.197  0.00  0.00    +0.021 A 
ATOM     20 BR   UNL     1       0.026   0.238   2.838  0.00  0.00    -0.050 Br
ENDBRANCH  11  16
ENDBRANCH   9  11
ENDBRANCH   1   9
BRANCH   6  21
ATOM     21  C   UNL     1       2.011  -8.283  -6.586  0.00  0.00    +0.137 C 
BRANCH  21  22
ATOM     22  C   UNL     1       2.032  -9.813  -6.592  0.00  0.00    +0.135 C 
ATOM     23  C   UNL     1       2.678 -10.337  -7.899  0.00  0.00    +0.035 C 
ATOM     24  C   UNL     1       3.178 -11.734  -7.441  0.00  0.00    +0.031 C 
ATOM     25  C   UNL     1       3.571 -11.476  -5.971  0.00  0.00    +0.160 C 
ATOM     26  O   UNL     1       2.869 -10.304  -5.534  0.00  0.00    -0.375 OA
ENDBRANCH  21  22
ENDBRANCH   6  21
TORSDOF 5
