REMARK  Name = ZINC36136908
REMARK  6 active torsions:
REMARK  status: ('A' for Active; 'I' for Inactive)
REMARK    1  A    between atoms: C_3  and  S_6
REMARK    2  A    between atoms: S_6  and  N_9
REMARK    3  A    between atoms: N_9  and  C_10
REMARK    4  A    between atoms: C_10  and  C_11
REMARK    5  A    between atoms: C_11  and  C_12
REMARK    6  A    between atoms: C_15  and  N_18
REMARK                            x       y       z     vdW  Elec       q    Type
REMARK                         _______ _______ _______ _____ _____    ______ ____
ROOT
ATOM      1  C   UNL     1       4.596   0.903   2.403  0.00  0.00    +0.110 C 
ENDROOT
BRANCH   1   2
ATOM      2  N   UNL     1       4.477   2.089   1.552  0.00  0.00    -0.189 NA
ATOM      3  H   UNL     1       4.677   2.967   1.913  0.00  0.00    +0.148 HD
BRANCH   2   4
ATOM      4  S   UNL     1       4.001   1.932  -0.026  0.00  0.00    +0.065 S 
ATOM      5  O   UNL     1       4.799   0.900  -0.590  0.00  0.00    -0.153 OA
ATOM      6  O   UNL     1       3.957   3.244  -0.570  0.00  0.00    -0.153 OA
BRANCH   4   9
ATOM      7  C   UNL     1      -0.016   1.351   0.009  0.00  0.00    +0.010 A 
ATOM      8  C   UNL     1       1.183   2.038   0.002  0.00  0.00    +0.036 A 
ATOM      9  C   UNL     1       2.343   1.336  -0.013  0.00  0.00    +0.142 A 
ATOM     10  S   UNL     1       1.754  -0.349  -0.017  0.00  0.00    -0.077 S 
ATOM     11  C   UNL     1       0.002  -0.004   0.002  0.00  0.00    +0.047 A 
ENDBRANCH   4   9
ENDBRANCH   2   4
ENDBRANCH   1   2
BRANCH   1  12
ATOM     12  C   UNL     1       5.391   1.256   3.662  0.00  0.00    +0.052 C 
BRANCH  12  13
ATOM     13  C   UNL     1       5.513   0.035   4.537  0.00  0.00    -0.046 A 
ATOM     14  C   UNL     1       4.551  -0.229   5.493  0.00  0.00    +0.006 A 
ATOM     15  C   UNL     1       4.663  -1.348   6.296  0.00  0.00    +0.033 A 
ATOM     16  C   UNL     1       5.738  -2.204   6.143  0.00  0.00    +0.126 A 
ATOM     17  C   UNL     1       6.700  -1.940   5.187  0.00  0.00    +0.033 A 
ATOM     18  C   UNL     1       6.586  -0.823   4.380  0.00  0.00    +0.006 A 
BRANCH  16  19
ATOM     19  N   UNL     1       5.858  -3.402   7.004  0.00  0.00    +0.056 N 
ATOM     20  O   UNL     1       5.017  -3.632   7.841  0.00  0.00    -0.126 OA
ATOM     21  O   UNL     1       6.798  -4.151   6.870  0.00  0.00    -0.126 OA
ENDBRANCH  16  19
ENDBRANCH  12  13
ENDBRANCH   1  12
TORSDOF 6
