REMARK  Name = ZINC09391453
REMARK  7 active torsions:
REMARK  status: ('A' for Active; 'I' for Inactive)
REMARK    1  A    between atoms: C_1  and  C_2
REMARK    2  A    between atoms: N_7  and  S_9
REMARK    3  A    between atoms: S_9  and  C_12
REMARK    4  A    between atoms: C_15  and  C_18
REMARK    5  A    between atoms: N_20  and  C_21
REMARK    6  A    between atoms: C_22  and  C_31
REMARK    7  A    between atoms: N_27  and  C_30
REMARK                            x       y       z     vdW  Elec       q    Type
REMARK                         _______ _______ _______ _____ _____    ______ ____
ROOT
ATOM      1  C   UNL     1       3.869  -4.123  -4.162  0.00  0.00    +0.249 C 
ATOM      2  O   UNL     1       3.459  -5.110  -4.740  0.00  0.00    -0.270 OA
ATOM      3  N   UNL     1       4.745  -3.299  -4.772  0.00  0.00    -0.275 N 
ATOM      4  H   UNL     1       5.072  -2.511  -4.311  0.00  0.00    +0.156 HD
ENDROOT
BRANCH   3   5
ATOM      5  C   UNL     1       5.176  -3.578  -6.059  0.00  0.00    +0.085 A 
ATOM      6  C   UNL     1       6.070  -2.854  -6.834  0.00  0.00    +0.068 A 
ATOM      7  C   UNL     1       6.358  -3.364  -8.160  0.00  0.00    -0.027 A 
ATOM      8  C   UNL     1       5.701  -4.504  -8.473  0.00  0.00    -0.021 A 
ATOM      9  S   UNL     1       4.743  -4.875  -7.035  0.00  0.00    -0.079 S 
ATOM     10  C   UNL     1       5.796  -5.252  -9.764  0.00  0.00    -0.036 C 
ATOM     11  N   UNL     1       6.409  -4.364 -10.770  0.00  0.00    +0.381 N 
ATOM     12  C   UNL     1       7.643  -3.782 -10.227  0.00  0.00    -0.074 C 
ATOM     13  C   UNL     1       7.308  -2.728  -9.166  0.00  0.00    +0.018 C 
ATOM     14  C   UNL     1       6.724  -5.138 -11.978  0.00  0.00    -0.096 C 
ATOM     15  H   UNL     1       5.763  -3.625 -11.004  0.00  0.00    -0.082 HD
BRANCH   6  16
ATOM     16  C   UNL     1       6.696  -1.625  -6.335  0.00  0.00    +0.244 C 
ATOM     17  O   UNL     1       7.754  -1.681  -5.736  0.00  0.00    -0.270 OA
ATOM     18  N   UNL     1       6.099  -0.434  -6.538  0.00  0.00    -0.325 N 
ATOM     19  H   UNL     1       5.255  -0.390  -7.015  0.00  0.00    +0.145 HD
ATOM     20  H   UNL     1       6.513   0.378  -6.207  0.00  0.00    +0.145 HD
ENDBRANCH   6  16
ENDBRANCH   3   5
BRANCH   1  24
ATOM     21  C   UNL     1       2.547  -3.268  -0.217  0.00  0.00    +0.106 A 
ATOM     22  C   UNL     1       2.077  -4.392  -0.873  0.00  0.00    +0.029 A 
ATOM     23  C   UNL     1       2.502  -4.676  -2.154  0.00  0.00    +0.015 A 
ATOM     24  C   UNL     1       3.409  -3.825  -2.789  0.00  0.00    +0.037 A 
ATOM     25  C   UNL     1       3.879  -2.692  -2.122  0.00  0.00    +0.015 A 
ATOM     26  C   UNL     1       3.441  -2.418  -0.843  0.00  0.00    +0.029 A 
BRANCH  21  27
ATOM     27  S   UNL     1       1.999  -2.914   1.419  0.00  0.00    +0.061 S 
ATOM     28  O   UNL     1       2.998  -2.098   2.015  0.00  0.00    -0.153 OA
ATOM     29  O   UNL     1       1.587  -4.150   1.986  0.00  0.00    -0.153 OA
BRANCH  27  35
ATOM     30  C   UNL     1      -0.019   1.526   0.010  0.00  0.00    +0.009 C 
ATOM     31  C   UNL     1       0.002  -0.004   0.002  0.00  0.00    +0.002 C 
ATOM     32  C   UNL     1      -1.433  -0.534   0.015  0.00  0.00    +0.006 C 
ATOM     33  C   UNL     1      -1.414  -2.064  -0.027  0.00  0.00    +0.017 C 
ATOM     34  C   UNL     1      -0.692  -2.596   1.215  0.00  0.00    +0.109 C 
ATOM     35  N   UNL     1       0.639  -1.977   1.288  0.00  0.00    -0.176 NA
ATOM     36  C   UNL     1       0.742  -0.512   1.244  0.00  0.00    +0.112 C 
ENDBRANCH  27  35
ENDBRANCH  21  27
ENDBRANCH   1  24
TORSDOF 5
