REMARK  Name = ZINC63486225
REMARK  8 active torsions:
REMARK  status: ('A' for Active; 'I' for Inactive)
REMARK    1  A    between atoms: C_1  and  C_2
REMARK    2  A    between atoms: C_13  and  C_15
REMARK    3  A    between atoms: C_15  and  C_16
REMARK    4  A    between atoms: N_18  and  C_19
REMARK    5  A    between atoms: C_19  and  C_20
REMARK    6  A    between atoms: C_20  and  C_21
REMARK    7  A    between atoms: C_24  and  O_30
REMARK    8  A    between atoms: O_30  and  C_31
REMARK                            x       y       z     vdW  Elec       q    Type
REMARK                         _______ _______ _______ _____ _____    ______ ____
ROOT
ATOM      1  C   UNL     1      -0.019   1.526   0.010  0.00  0.00    +0.013 C 
ATOM      2  C   UNL     1       0.002  -0.004   0.002  0.00  0.00    +0.034 C 
ATOM      3  C   UNL     1       0.705  -0.489  -1.242  0.00  0.00    -0.001 A 
ATOM      4  C   UNL     1      -0.001  -0.507  -2.417  0.00  0.00    +0.019 A 
ATOM      5  C   UNL     1       0.606  -0.939  -3.594  0.00  0.00    +0.024 A 
ATOM      6  C   UNL     1       1.948  -1.360  -3.579  0.00  0.00    +0.139 A 
ATOM      7  C   UNL     1       2.649  -1.339  -2.383  0.00  0.00    +0.093 A 
ATOM      8  C   UNL     1       2.029  -0.907  -1.218  0.00  0.00    +0.139 A 
ATOM      9  O   UNL     1       2.755  -0.920  -0.066  0.00  0.00    -0.425 OA
ATOM     10  C   UNL     1       2.222  -0.312   1.013  0.00  0.00    +0.316 C 
ATOM     11  O   UNL     1       2.896   0.359   1.758  0.00  0.00    -0.250 OA
ATOM     12  C   UNL     1       0.740  -0.510   1.245  0.00  0.00    +0.114 C 
ATOM     13  O   UNL     1       2.273  -1.719  -4.839  0.00  0.00    -0.459 OA
ATOM     14  C   UNL     1       1.228  -1.558  -5.668  0.00  0.00    +0.109 A 
ATOM     15  C   UNL     1       0.174  -1.085  -4.983  0.00  0.00    +0.001 A 
ATOM     16  C   UNL     1      -1.174  -0.778  -5.579  0.00  0.00    +0.039 C 
ATOM     17  C   UNL     1      -1.024  -0.700  -7.104  0.00  0.00    +0.005 C 
ATOM     18  C   UNL     1      -0.266  -1.934  -7.601  0.00  0.00    +0.008 C 
ATOM     19  C   UNL     1       1.197  -1.852  -7.151  0.00  0.00    +0.075 C 
ENDROOT
BRANCH  12  20
ATOM     20  C   UNL     1       0.441  -1.995   1.458  0.00  0.00    +0.111 C 
BRANCH  20  21
ATOM     21  C   UNL     1       1.069  -2.454   2.748  0.00  0.00    +0.214 C 
ATOM     22  O   UNL     1       1.694  -1.671   3.431  0.00  0.00    -0.276 OA
ATOM     23  N   UNL     1       0.936  -3.736   3.144  0.00  0.00    -0.315 N 
ATOM     24  H   UNL     1       0.436  -4.363   2.598  0.00  0.00    +0.149 HD
BRANCH  23  25
ATOM     25  C   UNL     1       1.547  -4.182   4.399  0.00  0.00    +0.108 C 
BRANCH  25  26
ATOM     26  C   UNL     1       1.248  -5.668   4.611  0.00  0.00    +0.052 C 
BRANCH  26  27
ATOM     27  C   UNL     1       1.877  -6.127   5.902  0.00  0.00    -0.040 C 
ATOM     28  C   UNL     1       1.280  -6.210   7.112  0.00  0.00    +0.002 A 
ATOM     29  C   UNL     1      -0.079  -5.908   7.574  0.00  0.00    +0.055 A 
ATOM     30  C   UNL     1      -0.397  -6.092   8.878  0.00  0.00    +0.121 A 
ATOM     31  C   UNL     1       0.536  -6.566   9.818  0.00  0.00    +0.047 A 
ATOM     32  C   UNL     1       1.809  -6.870   9.489  0.00  0.00    +0.029 A 
ATOM     33  C   UNL     1       2.261  -6.708   8.103  0.00  0.00    +0.043 A 
ATOM     34  N   UNL     1       3.418  -6.925   7.528  0.00  0.00    -0.380 N 
ATOM     35  C   UNL     1       3.301  -6.595   6.103  0.00  0.00    +0.144 C 
ATOM     36  H   UNL     1       4.217  -7.253   7.970  0.00  0.00    +0.160 HD
BRANCH  30  37
ATOM     37  O   UNL     1      -1.660  -5.809   9.293  0.00  0.00    -0.495 OA
ATOM     38  C   UNL     1      -1.951  -6.017  10.676  0.00  0.00    +0.277 C 
ENDBRANCH  30  37
ENDBRANCH  26  27
ENDBRANCH  25  26
ENDBRANCH  23  25
ENDBRANCH  20  21
ENDBRANCH  12  20
TORSDOF 6
