REMARK  Name = ZINC33398282
REMARK  16 active torsions:
REMARK  status: ('A' for Active; 'I' for Inactive)
REMARK    1  A    between atoms: C_1  and  C_2
REMARK    2  A    between atoms: C_5  and  N_9
REMARK    3  A    between atoms: C_6  and  C_8
REMARK    4  A    between atoms: N_12  and  C_13
REMARK    5  A    between atoms: N_12  and  C_16
REMARK    6  A    between atoms: C_13  and  C_14
REMARK    7  A    between atoms: C_16  and  C_17
REMARK    8  A    between atoms: N_19  and  C_20
REMARK    9  A    between atoms: N_19  and  C_32
REMARK   10  A    between atoms: C_20  and  C_21
REMARK   11  A    between atoms: C_21  and  C_22
REMARK   12  A    between atoms: C_25  and  O_30
REMARK   13  A    between atoms: C_26  and  O_28
REMARK   14  A    between atoms: O_28  and  C_29
REMARK   15  A    between atoms: O_30  and  C_31
REMARK   16  A    between atoms: C_32  and  C_33
REMARK                            x       y       z     vdW  Elec       q    Type
REMARK                         _______ _______ _______ _____ _____    ______ ____
ROOT
ATOM      1  C   UNL     1       3.602   2.132  -2.059  0.00  0.00    +0.233 C 
ATOM      2  O   UNL     1       3.965   2.008  -3.210  0.00  0.00    -0.274 OA
ATOM      3  N   UNL     1       3.002   1.104  -1.427  0.00  0.00    -0.295 N 
ENDROOT
BRANCH   1   4
ATOM      4  C   UNL     1       3.821   3.436  -1.337  0.00  0.00    +0.205 C 
BRANCH   4   8
ATOM      5  N   UNL     1       4.365   6.075  -3.839  0.00  0.00    -0.269 N 
ATOM      6  C   UNL     1       3.753   5.202  -3.015  0.00  0.00    +0.307 C 
ATOM      7  O   UNL     1       2.539   5.151  -2.976  0.00  0.00    -0.252 OA
ATOM      8  N   UNL     1       4.487   4.385  -2.233  0.00  0.00    -0.273 N 
ATOM      9  H   UNL     1       5.459   6.187  -3.808  0.00  0.00    +0.156 HD
BRANCH   5  14
ATOM     10  C   UNL     1       1.298   9.174  -7.470  0.00  0.00    +0.044 C 
ATOM     11  C   UNL     1       2.113   8.350  -6.506  0.00  0.00    -0.050 A 
ATOM     12  C   UNL     1       1.623   7.142  -6.045  0.00  0.00    +0.005 A 
ATOM     13  C   UNL     1       2.367   6.385  -5.162  0.00  0.00    +0.024 A 
ATOM     14  C   UNL     1       3.609   6.839  -4.735  0.00  0.00    +0.038 A 
ATOM     15  C   UNL     1       4.095   8.055  -5.195  0.00  0.00    -0.029 A 
ATOM     16  C   UNL     1       3.349   8.805  -6.083  0.00  0.00    +0.008 A 
ATOM     17  C   UNL     1       5.439   8.554  -4.731  0.00  0.00    +0.045 C 
ENDBRANCH   5  14
BRANCH   8  18
ATOM     18  C   UNL     1       5.950   4.447  -2.279  0.00  0.00    +0.136 C 
BRANCH  18  19
ATOM     19  C   UNL     1       6.460   3.489  -3.325  0.00  0.00    -0.016 C 
ATOM     20  C   UNL     1       7.244   3.921  -4.281  0.00  0.00    +0.005 C 
ENDBRANCH  18  19
ENDBRANCH   8  18
ENDBRANCH   4   8
ENDBRANCH   1   4
BRANCH   3  21
ATOM     21  C   UNL     1       2.788  -0.164  -2.130  0.00  0.00    +0.113 C 
BRANCH  21  22
ATOM     22  C   UNL     1       1.429  -0.135  -2.831  0.00  0.00    +0.054 C 
BRANCH  22  23
ATOM     23  C   UNL     1       1.209  -1.439  -3.554  0.00  0.00    -0.042 A 
ATOM     24  C   UNL     1       1.619  -1.578  -4.867  0.00  0.00    +0.007 A 
ATOM     25  C   UNL     1       1.425  -2.774  -5.533  0.00  0.00    +0.049 A 
ATOM     26  C   UNL     1       0.808  -3.833  -4.887  0.00  0.00    +0.161 A 
ATOM     27  C   UNL     1       0.391  -3.692  -3.567  0.00  0.00    +0.162 A 
ATOM     28  C   UNL     1       0.593  -2.493  -2.904  0.00  0.00    +0.053 A 
BRANCH  27  29
ATOM     29  O   UNL     1      -0.215  -4.730  -2.929  0.00  0.00    -0.491 OA
ATOM     30  C   UNL     1      -0.616  -4.513  -1.575  0.00  0.00    +0.277 C 
ENDBRANCH  27  29
BRANCH  26  31
ATOM     31  O   UNL     1       0.612  -5.009  -5.542  0.00  0.00    -0.491 OA
ATOM     32  C   UNL     1       1.066  -5.082  -6.895  0.00  0.00    +0.277 C 
ENDBRANCH  26  31
ENDBRANCH  22  23
ENDBRANCH  21  22
ENDBRANCH   3  21
BRANCH   3  33
ATOM     33  C   UNL     1       2.563   1.254  -0.038  0.00  0.00    +0.150 C 
BRANCH  33  34
ATOM     34  C   UNL     1       1.146   1.768  -0.011  0.00  0.00    +0.007 A 
ATOM     35  C   UNL     1      -0.015   1.070  -0.003  0.00  0.00    +0.013 A 
ATOM     36  C   UNL     1      -1.212   1.760   0.017  0.00  0.00    +0.008 A 
ATOM     37  C   UNL     1      -1.190   3.115   0.039  0.00  0.00    +0.045 A 
ATOM     38  S   UNL     1       0.563   3.455   0.018  0.00  0.00    -0.100 S 
ENDBRANCH  33  34
ENDBRANCH   3  33
TORSDOF 12
