REMARK  Name = ZINC34979935
REMARK  9 active torsions:
REMARK  status: ('A' for Active; 'I' for Inactive)
REMARK    1  A    between atoms: C_1  and  C_2
REMARK    2  A    between atoms: C_2  and  C_3
REMARK    3  A    between atoms: C_3  and  C_5
REMARK    4  A    between atoms: C_3  and  C_6
REMARK    5  A    between atoms: C_6  and  C_8
REMARK    6  A    between atoms: C_6  and  N_26
REMARK    7  A    between atoms: C_14  and  C_17
REMARK    8  A    between atoms: C_18  and  C_20
REMARK    9  A    between atoms: N_29  and  C_30
REMARK                            x       y       z     vdW  Elec       q    Type
REMARK                         _______ _______ _______ _____ _____    ______ ____
ROOT
ATOM      1  C   UNL     1       0.433  -0.068   2.830  0.00  0.00    +0.163 C 
ENDROOT
BRANCH   1   2
ATOM      2  C   UNL     1       1.096  -0.699   4.028  0.00  0.00    +0.236 C 
ATOM      3  O   UNL     1       1.420  -0.013   4.974  0.00  0.00    -0.274 OA
ATOM      4  N   UNL     1       1.328  -2.026   4.047  0.00  0.00    -0.297 N 
ATOM      5  C   UNL     1       1.054  -2.851   2.862  0.00  0.00    +0.127 C 
ATOM      6  C   UNL     1       0.108  -3.989   3.264  0.00  0.00    +0.127 C 
ATOM      7  N   UNL     1       0.640  -4.638   4.471  0.00  0.00    -0.292 N 
ATOM      8  C   UNL     1       0.914  -3.813   5.656  0.00  0.00    +0.091 C 
ATOM      9  C   UNL     1       1.865  -2.674   5.252  0.00  0.00    +0.130 C 
ATOM     10  C   UNL     1      -0.396  -3.231   6.191  0.00  0.00    +0.029 C 
ATOM     11  C   UNL     1       0.873  -5.965   4.491  0.00  0.00    +0.247 C 
ATOM     12  O   UNL     1       0.746  -6.619   3.474  0.00  0.00    -0.270 OA
BRANCH  11  13
ATOM     13  C   UNL     1       1.283  -6.625   5.748  0.00  0.00    +0.037 A 
ATOM     14  C   UNL     1       0.698  -6.252   6.959  0.00  0.00    +0.013 A 
ATOM     15  C   UNL     1       1.084  -6.872   8.129  0.00  0.00    +0.001 A 
ATOM     16  C   UNL     1       2.050  -7.862   8.104  0.00  0.00    +0.000 A 
ATOM     17  C   UNL     1       2.635  -8.237   6.907  0.00  0.00    +0.001 A 
ATOM     18  C   UNL     1       2.253  -7.629   5.729  0.00  0.00    +0.013 A 
ENDBRANCH  11  13
ENDBRANCH   1   2
BRANCH   1  19
ATOM     19  N   UNL     1       0.142   1.339   3.119  0.00  0.00    -0.288 N 
ATOM     20  C   UNL     1      -0.925   1.936   2.552  0.00  0.00    +0.305 C 
ATOM     21  O   UNL     1      -1.698   1.285   1.876  0.00  0.00    -0.252 OA
ATOM     22  N   UNL     1      -1.135   3.255   2.734  0.00  0.00    -0.268 N 
ATOM     23  H   UNL     1       0.717   1.840   3.718  0.00  0.00    +0.151 HD
ATOM     24  H   UNL     1      -0.478   3.790   3.207  0.00  0.00    +0.156 HD
BRANCH  22  25
ATOM     25  C   UNL     1      -2.300   3.854   2.239  0.00  0.00    +0.053 A 
ATOM     26  C   UNL     1      -3.437   3.087   2.020  0.00  0.00    +0.026 A 
ATOM     27  C   UNL     1      -4.585   3.679   1.532  0.00  0.00    +0.022 A 
ATOM     28  C   UNL     1      -4.604   5.037   1.261  0.00  0.00    +0.042 A 
ATOM     29  C   UNL     1      -3.473   5.804   1.478  0.00  0.00    +0.041 A 
ATOM     30  C   UNL     1      -2.323   5.217   1.972  0.00  0.00    +0.064 A 
ATOM     31 CL   UNL     1      -0.907   6.181   2.251  0.00  0.00    -0.082 Cl
ATOM     32 CL   UNL     1      -6.049   5.777   0.647  0.00  0.00    -0.083 Cl
ENDBRANCH  22  25
ENDBRANCH   1  19
BRANCH   1  33
ATOM     33  C   UNL     1       1.368  -0.158   1.623  0.00  0.00    +0.015 C 
ATOM     34  C   UNL     1       0.634   0.328   0.372  0.00  0.00    +0.010 C 
BRANCH  33  36
ATOM     35  C   UNL     1       3.458   0.098   2.969  0.00  0.00    +0.004 C 
ATOM     36  C   UNL     1       2.599   0.719   1.865  0.00  0.00    +0.002 C 
ENDBRANCH  33  36
ENDBRANCH   1  33
TORSDOF 6
