REMARK  Name = ZINC49659685
REMARK  7 active torsions:
REMARK  status: ('A' for Active; 'I' for Inactive)
REMARK    1  A    between atoms: C_1  and  C_2
REMARK    2  A    between atoms: C_6  and  C_24
REMARK    3  A    between atoms: C_7  and  N_8
REMARK    4  A    between atoms: N_8  and  S_9
REMARK    5  A    between atoms: S_9  and  C_12
REMARK    6  A    between atoms: C_18  and  C_22
REMARK    7  A    between atoms: C_18  and  C_23
REMARK                            x       y       z     vdW  Elec       q    Type
REMARK                         _______ _______ _______ _____ _____    ______ ____
ROOT
ATOM      1  S   UNL     1      -0.091  -0.926   3.858  0.00  0.00    +0.072 S 
ATOM      2  O   UNL     1      -0.315   0.007   4.905  0.00  0.00    -0.150 OA
ATOM      3  O   UNL     1      -0.897  -2.083   3.683  0.00  0.00    -0.150 OA
ENDROOT
BRANCH   1   4
ATOM      4  C   UNL     1       1.569  -1.491   4.032  0.00  0.00    +0.109 A 
ATOM      5  C   UNL     1       1.919  -2.757   3.602  0.00  0.00    +0.030 A 
ATOM      6  C   UNL     1       3.217  -3.205   3.736  0.00  0.00    +0.025 A 
ATOM      7  C   UNL     1       4.186  -2.382   4.307  0.00  0.00    +0.038 A 
ATOM      8  C   UNL     1       3.822  -1.112   4.735  0.00  0.00    -0.010 A 
ATOM      9  C   UNL     1       2.527  -0.666   4.596  0.00  0.00    +0.035 A 
ATOM     10  C   UNL     1       5.073  -0.478   5.298  0.00  0.00    +0.068 C 
ATOM     11  C   UNL     1       6.135  -1.542   5.123  0.00  0.00    +0.227 C 
ATOM     12  O   UNL     1       7.302  -1.454   5.443  0.00  0.00    -0.275 OA
ATOM     13  N   UNL     1       5.543  -2.602   4.548  0.00  0.00    -0.285 N 
ATOM     14  C   UNL     1       5.439   0.780   4.506  0.00  0.00    +0.025 C 
ATOM     15  C   UNL     1       4.885  -0.145   6.779  0.00  0.00    +0.025 C 
ATOM     16  H   UNL     1       6.005  -3.425   4.325  0.00  0.00    +0.155 HD
ENDBRANCH   1   4
BRANCH   1  17
ATOM     17  N   UNL     1      -0.172  -0.075   2.440  0.00  0.00    -0.216 N 
ATOM     18  H   UNL     1      -0.346   0.879   2.456  0.00  0.00    +0.174 HD
BRANCH  17  25
ATOM     19  C   UNL     1       2.188   0.488   0.954  0.00  0.00    +0.046 C 
ATOM     20  C   UNL     1       1.149  -0.486   0.462  0.00  0.00    -0.028 A 
ATOM     21  C   UNL     1       1.329  -1.140  -0.741  0.00  0.00    +0.005 A 
ATOM     22  C   UNL     1       0.375  -2.033  -1.194  0.00  0.00    +0.001 A 
ATOM     23  C   UNL     1      -0.761  -2.275  -0.444  0.00  0.00    +0.005 A 
ATOM     24  C   UNL     1      -0.948  -1.625   0.760  0.00  0.00    -0.028 A 
ATOM     25  C   UNL     1       0.011  -0.731   1.220  0.00  0.00    +0.054 A 
ATOM     26  C   UNL     1      -2.187  -1.889   1.576  0.00  0.00    +0.046 C 
ENDBRANCH  17  25
ENDBRANCH   1  17
TORSDOF 3
