REMARK  Name = ZINC38740483
REMARK  5 active torsions:
REMARK  status: ('A' for Active; 'I' for Inactive)
REMARK    1  A    between atoms: C_7  and  C_11
REMARK    2  A    between atoms: C_11  and  C_12
REMARK    3  A    between atoms: C_12  and  N_13
REMARK    4  A    between atoms: C_14  and  C_16
REMARK    5  A    between atoms: C_22  and  C_24
REMARK                            x       y       z     vdW  Elec       q    Type
REMARK                         _______ _______ _______ _____ _____    ______ ____
ROOT
ATOM      1  C   UNL     1      -2.114  -6.362  -2.585  0.00  0.00    +0.091 C 
ATOM      2  C   UNL     1      -1.361  -7.603  -2.099  0.00  0.00    +0.040 C 
ATOM      3  C   UNL     1      -0.376  -8.050  -3.139  0.00  0.00    -0.030 C 
ATOM      4  C   UNL     1      -0.411  -7.679  -4.378  0.00  0.00    -0.030 C 
ATOM      5  C   UNL     1      -1.436  -6.742  -4.946  0.00  0.00    +0.040 C 
ATOM      6  C   UNL     1      -2.639  -6.632  -4.001  0.00  0.00    +0.091 C 
ENDROOT
BRANCH   6   7
ATOM      7  C   UNL     1      -3.532  -5.498  -4.434  0.00  0.00    +0.220 C 
ATOM      8  O   UNL     1      -3.078  -4.584  -5.089  0.00  0.00    -0.275 OA
ATOM      9  N   UNL     1      -4.837  -5.500  -4.094  0.00  0.00    -0.298 N 
ATOM     10  C   UNL     1      -5.375  -6.535  -3.200  0.00  0.00    +0.126 C 
ATOM     11  C   UNL     1      -6.061  -5.849  -2.013  0.00  0.00    +0.125 C 
ATOM     12  N   UNL     1      -6.970  -4.816  -2.529  0.00  0.00    -0.314 N 
ATOM     13  C   UNL     1      -6.432  -3.781  -3.423  0.00  0.00    +0.125 C 
ATOM     14  C   UNL     1      -5.745  -4.464  -4.606  0.00  0.00    +0.126 C 
ATOM     15  C   UNL     1      -8.315  -4.818  -2.179  0.00  0.00    +0.099 A 
ATOM     16  C   UNL     1      -8.832  -5.873  -1.432  0.00  0.00    +0.042 A 
ATOM     17  C   UNL     1     -10.172  -5.862  -1.091  0.00  0.00    +0.005 A 
ATOM     18  C   UNL     1     -10.954  -4.793  -1.508  0.00  0.00    +0.018 A 
ATOM     19  C   UNL     1     -10.376  -3.780  -2.246  0.00  0.00    +0.084 A 
ATOM     20  N   UNL     1      -9.093  -3.814  -2.553  0.00  0.00    -0.350 N 
ATOM     21  H   UNL     1      -8.710  -3.087  -3.069  0.00  0.00    +0.166 HD
ENDBRANCH   6   7
BRANCH   1  23
ATOM     22  N   UNL     1      -1.675  -3.929  -2.520  0.00  0.00    -0.315 N 
ATOM     23  C   UNL     1      -1.180  -5.180  -2.608  0.00  0.00    +0.217 C 
ATOM     24  O   UNL     1       0.016  -5.353  -2.705  0.00  0.00    -0.275 OA
ATOM     25  H   UNL     1      -2.631  -3.790  -2.442  0.00  0.00    +0.149 HD
BRANCH  22  26
ATOM     26  C   UNL     1      -0.767  -2.779  -2.542  0.00  0.00    +0.109 C 
BRANCH  26  27
ATOM     27  C   UNL     1      -1.578  -1.487  -2.428  0.00  0.00    +0.056 C 
BRANCH  27  34
ATOM     28  C   UNL     1       0.386   0.983  -5.895  0.00  0.00    +0.001 A 
ATOM     29  C   UNL     1       1.195   2.012  -5.435  0.00  0.00    +0.002 A 
ATOM     30  C   UNL     1       1.359   2.227  -4.084  0.00  0.00    +0.026 A 
ATOM     31  C   UNL     1       0.707   1.405  -3.170  0.00  0.00    +0.047 A 
ATOM     32  C   UNL     1      -0.113   0.364  -3.642  0.00  0.00    +0.003 A 
ATOM     33  C   UNL     1      -0.264   0.164  -5.015  0.00  0.00    +0.010 A 
ATOM     34  C   UNL     1      -0.644  -0.304  -2.451  0.00  0.00    -0.021 A 
ATOM     35  C   UNL     1      -0.142   0.338  -1.384  0.00  0.00    +0.087 A 
ATOM     36  N   UNL     1       0.667   1.362  -1.794  0.00  0.00    -0.360 N 
ATOM     37  H   UNL     1       1.142   1.967  -1.204  0.00  0.00    +0.165 HD
ENDBRANCH  27  34
ENDBRANCH  26  27
ENDBRANCH  22  26
ENDBRANCH   1  23
TORSDOF 5
