REMARK  Name = ZINC38546340
REMARK  6 active torsions:
REMARK  status: ('A' for Active; 'I' for Inactive)
REMARK    1  A    between atoms: C_1  and  C_2
REMARK    2  A    between atoms: N_5  and  C_8
REMARK    3  A    between atoms: C_8  and  C_10
REMARK    4  A    between atoms: C_8  and  C_15
REMARK    5  A    between atoms: C_19  and  N_20
REMARK    6  A    between atoms: C_21  and  C_23
REMARK                            x       y       z     vdW  Elec       q    Type
REMARK                         _______ _______ _______ _____ _____    ______ ____
ROOT
ATOM      1  C   UNL     1       2.469  -4.223   1.269  0.00  0.00    -0.024 A 
ATOM      2  C   UNL     1       2.174  -5.397   1.962  0.00  0.00    -0.033 A 
ATOM      3  C   UNL     1       3.124  -5.852   2.822  0.00  0.00    -0.005 A 
ATOM      4  S   UNL     1       4.432  -4.664   2.680  0.00  0.00    -0.078 S 
ATOM      5  C   UNL     1       3.661  -3.600   1.469  0.00  0.00    +0.074 A 
ATOM      6  C   UNL     1       3.064  -7.072   3.683  0.00  0.00    +0.043 C 
ATOM      7  C   UNL     1       1.608  -7.558   3.732  0.00  0.00    +0.005 C 
ATOM      8  C   UNL     1       1.051  -7.587   2.306  0.00  0.00    +0.005 C 
ATOM      9  C   UNL     1       0.863  -6.160   1.789  0.00  0.00    +0.036 C 
ENDROOT
BRANCH   5  10
ATOM     10  N   UNL     1       4.154  -2.433   0.883  0.00  0.00    -0.273 N 
ATOM     11  C   UNL     1       5.319  -1.905   1.307  0.00  0.00    +0.284 C 
ATOM     12  O   UNL     1       5.942  -2.446   2.202  0.00  0.00    -0.266 OA
ATOM     13  H   UNL     1       3.657  -2.001   0.170  0.00  0.00    +0.156 HD
BRANCH  11  14
ATOM     14  C   UNL     1       5.836  -0.679   0.691  0.00  0.00    +0.189 A 
ATOM     15  C   UNL     1       7.000  -0.045   1.020  0.00  0.00    +0.054 A 
ATOM     16  C   UNL     1       7.099   1.078   0.184  0.00  0.00    +0.042 A 
ATOM     17  C   UNL     1       6.004   1.080  -0.609  0.00  0.00    +0.196 A 
ATOM     18  O   UNL     1       5.249   0.017  -0.304  0.00  0.00    -0.458 OA
ENDBRANCH  11  14
ENDBRANCH   5  10
BRANCH   1  19
ATOM     19  C   UNL     1       1.472  -3.649   0.296  0.00  0.00    +0.003 C 
BRANCH  19  24
ATOM     20  C   UNL     1      -0.278   1.628   1.566  0.00  0.00    +0.007 C 
ATOM     21  C   UNL     1      -0.233   0.117   1.329  0.00  0.00    -0.018 C 
ATOM     22  C   UNL     1       0.150  -0.162  -0.127  0.00  0.00    -0.015 C 
ATOM     23  C   UNL     1       0.271  -1.673  -0.336  0.00  0.00    -0.077 C 
ATOM     24  N   UNL     1       1.305  -2.213   0.555  0.00  0.00    +0.387 N 
ATOM     25  C   UNL     1       0.910  -2.013   1.954  0.00  0.00    -0.077 C 
ATOM     26  C   UNL     1       0.814  -0.515   2.252  0.00  0.00    -0.015 C 
ATOM     27  H   UNL     1       2.178  -1.738   0.382  0.00  0.00    -0.080 HD
ENDBRANCH  19  24
BRANCH  19  28
ATOM     28  C   UNL     1       1.970  -3.851  -1.112  0.00  0.00    -0.019 A 
ATOM     29  C   UNL     1       1.613  -4.794  -2.017  0.00  0.00    +0.010 A 
ATOM     30  C   UNL     1       2.209  -4.787  -3.264  0.00  0.00    +0.008 A 
ATOM     31  C   UNL     1       3.133  -3.836  -3.546  0.00  0.00    +0.045 A 
ATOM     32  S   UNL     1       3.179  -2.904  -2.023  0.00  0.00    -0.103 S 
ENDBRANCH  19  28
ENDBRANCH   1  19
TORSDOF 5
