REMARK  Name = ZINC66236575
REMARK  8 active torsions:
REMARK  status: ('A' for Active; 'I' for Inactive)
REMARK    1  A    between atoms: C_1  and  C_2
REMARK    2  A    between atoms: C_2  and  C_4
REMARK    3  A    between atoms: C_2  and  N_10
REMARK    4  A    between atoms: N_10  and  C_11
REMARK    5  A    between atoms: C_11  and  C_12
REMARK    6  A    between atoms: N_14  and  C_26
REMARK    7  A    between atoms: C_16  and  C_17
REMARK    8  A    between atoms: C_20  and  N_23
REMARK                            x       y       z     vdW  Elec       q    Type
REMARK                         _______ _______ _______ _____ _____    ______ ____
ROOT
ATOM      1  C   UNL     1       0.644  -0.458  -3.663  0.00  0.00    -0.019 A 
ATOM      2  C   UNL     1       1.476   0.347  -4.358  0.00  0.00    +0.116 A 
ATOM      3  N   UNL     1       2.011  -0.382  -5.372  0.00  0.00    -0.239 N 
ATOM      4  N   UNL     1       1.488  -1.679  -5.295  0.00  0.00    -0.166 NA
ATOM      5  C   UNL     1       0.669  -1.731  -4.265  0.00  0.00    +0.094 A 
ENDROOT
BRANCH   5   6
ATOM      6  C   UNL     1      -0.096  -2.921  -3.819  0.00  0.00    +0.002 A 
ATOM      7  C   UNL     1       0.517  -4.172  -3.779  0.00  0.00    +0.012 A 
ATOM      8  C   UNL     1      -0.199  -5.276  -3.363  0.00  0.00    +0.033 A 
ATOM      9  C   UNL     1      -1.524  -5.142  -2.986  0.00  0.00    +0.126 A 
ATOM     10  C   UNL     1      -2.137  -3.903  -3.025  0.00  0.00    +0.033 A 
ATOM     11  C   UNL     1      -1.429  -2.792  -3.433  0.00  0.00    +0.012 A 
BRANCH   9  12
ATOM     12  N   UNL     1      -2.287  -6.330  -2.541  0.00  0.00    +0.056 N 
ATOM     13  O   UNL     1      -1.753  -7.414  -2.506  0.00  0.00    -0.126 OA
ATOM     14  O   UNL     1      -3.445  -6.215  -2.211  0.00  0.00    -0.126 OA
ENDBRANCH   9  12
ENDBRANCH   5   6
BRANCH   3  15
ATOM     15  C   UNL     1       2.925   0.082  -6.328  0.00  0.00    +0.065 A 
ATOM     16  C   UNL     1       3.368   1.397  -6.285  0.00  0.00    +0.028 A 
ATOM     17  C   UNL     1       4.269   1.851  -7.229  0.00  0.00    +0.002 A 
ATOM     18  C   UNL     1       4.729   0.998  -8.214  0.00  0.00    +0.000 A 
ATOM     19  C   UNL     1       4.290  -0.313  -8.259  0.00  0.00    +0.002 A 
ATOM     20  C   UNL     1       3.393  -0.774  -7.315  0.00  0.00    +0.028 A 
ENDBRANCH   3  15
BRANCH   1  21
ATOM     21  C   UNL     1      -0.164  -0.065  -2.453  0.00  0.00    -0.042 C 
BRANCH  21  22
ATOM     22  N   UNL     1       0.472  -0.605  -1.243  0.00  0.00    +0.386 N 
ATOM     23  H   UNL     1       1.373  -0.171  -1.114  0.00  0.00    -0.085 HD
ATOM     24  H   UNL     1       0.590  -1.602  -1.342  0.00  0.00    -0.085 HD
BRANCH  22  26
ATOM     25  C   UNL     1      -0.456   1.185   0.147  0.00  0.00    -0.009 C 
ATOM     26  C   UNL     1      -0.378  -0.327  -0.078  0.00  0.00    -0.042 C 
BRANCH  26  27
ATOM     27  C   UNL     1       0.212  -0.986   1.143  0.00  0.00    -0.044 A 
ATOM     28  C   UNL     1      -0.610  -1.607   2.071  0.00  0.00    +0.005 A 
ATOM     29  C   UNL     1      -0.024  -2.200   3.179  0.00  0.00    +0.020 A 
ATOM     30  C   UNL     1       1.351  -2.154   3.319  0.00  0.00    +0.111 A 
ATOM     31  N   UNL     1       2.101  -1.554   2.416  0.00  0.00    -0.263 NA
ATOM     32  C   UNL     1       1.578  -0.984   1.347  0.00  0.00    +0.112 A 
ENDBRANCH  26  27
ENDBRANCH  22  26
ENDBRANCH  21  22
ENDBRANCH   1  21
TORSDOF 7
