REMARK  Name = ZINC01030430
REMARK  5 active torsions:
REMARK  status: ('A' for Active; 'I' for Inactive)
REMARK    1  A    between atoms: C_1  and  C_2
REMARK    2  A    between atoms: C_4  and  N_28
REMARK    3  A    between atoms: C_5  and  C_17
REMARK    4  A    between atoms: C_9  and  C_11
REMARK    5  A    between atoms: C_17  and  C_19
REMARK                            x       y       z     vdW  Elec       q    Type
REMARK                         _______ _______ _______ _____ _____    ______ ____
ROOT
ATOM      1  C   UNL     1       2.179  -3.598  -3.255  0.00  0.00    +0.066 C 
ATOM      2  C   UNL     1       0.835  -2.998  -2.929  0.00  0.00    +0.052 A 
ATOM      3  C   UNL     1       0.713  -1.608  -2.692  0.00  0.00    +0.050 A 
ATOM      4  C   UNL     1       1.735  -0.577  -2.710  0.00  0.00    +0.054 A 
ATOM      5  C   UNL     1       1.357   0.725  -2.443  0.00  0.00    +0.086 A 
ATOM      6  S   UNL     1      -0.398   0.596  -2.159  0.00  0.00    -0.063 S 
ATOM      7  C   UNL     1      -0.596  -1.150  -2.395  0.00  0.00    +0.115 A 
ATOM      8  N   UNL     1      -1.616  -1.979  -2.347  0.00  0.00    -0.220 NA
ATOM      9  C   UNL     1      -1.436  -3.274  -2.578  0.00  0.00    +0.161 A 
ATOM     10  N   UNL     1      -0.232  -3.762  -2.863  0.00  0.00    -0.232 NA
ENDROOT
BRANCH   9  11
ATOM     11  C   UNL     1      -2.598  -4.192  -2.519  0.00  0.00    +0.019 A 
ATOM     12  C   UNL     1      -2.427  -5.554  -2.766  0.00  0.00    +0.011 A 
ATOM     13  C   UNL     1      -3.512  -6.404  -2.705  0.00  0.00    +0.001 A 
ATOM     14  C   UNL     1      -4.769  -5.907  -2.410  0.00  0.00    +0.000 A 
ATOM     15  C   UNL     1      -4.945  -4.556  -2.170  0.00  0.00    +0.001 A 
ATOM     16  C   UNL     1      -3.867  -3.697  -2.223  0.00  0.00    +0.011 A 
ENDBRANCH   9  11
BRANCH   4  17
ATOM     17  N   UNL     1       3.057  -0.891  -2.988  0.00  0.00    -0.356 N 
ATOM     18  H   UNL     1       3.401  -1.772  -2.774  0.00  0.00    +0.142 HD
ATOM     19  H   UNL     1       3.637  -0.230  -3.396  0.00  0.00    +0.142 HD
ENDBRANCH   4  17
BRANCH   5  20
ATOM     20  C   UNL     1       2.169   1.885  -2.405  0.00  0.00    +0.236 C 
ATOM     21  O   UNL     1       3.366   1.799  -2.627  0.00  0.00    -0.283 OA
BRANCH  20  22
ATOM     22  C   UNL     1       1.570   3.193  -2.099  0.00  0.00    +0.177 A 
ATOM     23  C   UNL     1       2.249   4.368  -2.036  0.00  0.00    +0.061 A 
ATOM     24  C   UNL     1       1.257   5.391  -1.705  0.00  0.00    +0.021 A 
ATOM     25  C   UNL     1       1.313   6.772  -1.502  0.00  0.00    +0.011 A 
ATOM     26  C   UNL     1       0.172   7.458  -1.197  0.00  0.00    +0.001 A 
ATOM     27  C   UNL     1      -1.042   6.793  -1.089  0.00  0.00    +0.004 A 
ATOM     28  C   UNL     1      -1.118   5.431  -1.287  0.00  0.00    +0.047 A 
ATOM     29  C   UNL     1       0.030   4.711  -1.597  0.00  0.00    +0.136 A 
ATOM     30  O   UNL     1       0.263   3.407  -1.845  0.00  0.00    -0.452 OA
ENDBRANCH  20  22
ENDBRANCH   5  20
TORSDOF 4
