REMARK  Name = ZINC33477332
REMARK  8 active torsions:
REMARK  status: ('A' for Active; 'I' for Inactive)
REMARK    1  A    between atoms: C_1  and  O_2
REMARK    2  A    between atoms: O_2  and  C_3
REMARK    3  A    between atoms: C_3  and  C_5
REMARK    4  A    between atoms: C_8  and  C_11
REMARK    5  A    between atoms: N_13  and  C_14
REMARK    6  A    between atoms: C_14  and  C_15
REMARK    7  A    between atoms: C_15  and  N_16
REMARK    8  A    between atoms: C_20  and  C_21
REMARK                            x       y       z     vdW  Elec       q    Type
REMARK                         _______ _______ _______ _____ _____    ______ ____
ROOT
ATOM      1  C   UNL     1       2.315   1.695  -1.276  0.00  0.00    +0.136 C 
ENDROOT
BRANCH   1   2
ATOM      2  N   UNL     1       0.990   2.174  -0.874  0.00  0.00    -0.227 N 
ATOM      3  C   UNL     1       0.810   3.466  -0.653  0.00  0.00    +0.260 C 
ATOM      4  O   UNL     1       1.717   4.268  -0.777  0.00  0.00    -0.269 OA
ATOM      5  C   UNL     1      -0.548   3.885  -0.250  0.00  0.00    +0.080 C 
ATOM      6  C   UNL     1      -1.021   5.123   0.038  0.00  0.00    +0.028 C 
ATOM      7  S   UNL     1      -1.398   2.312  -0.253  0.00  0.00    -0.026 S 
ATOM      8  C   UNL     1      -0.017   1.289  -0.736  0.00  0.00    +0.286 C 
ATOM      9  O   UNL     1       0.007   0.084  -0.905  0.00  0.00    -0.262 OA
BRANCH   6  10
ATOM     10  C   UNL     1      -0.093   6.257   0.146  0.00  0.00    -0.024 A 
ATOM     11  C   UNL     1       1.159   6.087   0.749  0.00  0.00    +0.011 A 
ATOM     12  C   UNL     1       2.026   7.153   0.842  0.00  0.00    +0.039 A 
ATOM     13  C   UNL     1       1.657   8.396   0.350  0.00  0.00    +0.123 A 
ATOM     14  C   UNL     1       0.416   8.574  -0.244  0.00  0.00    +0.039 A 
ATOM     15  C   UNL     1      -0.459   7.514  -0.349  0.00  0.00    +0.011 A 
ATOM     16  F   UNL     1       2.510   9.439   0.449  0.00  0.00    -0.205 F 
ENDBRANCH   6  10
ENDBRANCH   1   2
BRANCH   1  17
ATOM     17  C   UNL     1       2.423   1.715  -2.802  0.00  0.00    +0.124 C 
BRANCH  17  20
ATOM     18  C   UNL     1       4.071   1.166  -4.511  0.00  0.00    +0.244 C 
ATOM     19  O   UNL     1       3.263   1.502  -5.355  0.00  0.00    -0.270 OA
ATOM     20  N   UNL     1       3.747   1.235  -3.204  0.00  0.00    -0.310 N 
ATOM     21  H   UNL     1       4.478   0.932  -2.440  0.00  0.00    +0.149 HD
BRANCH  18  25
ATOM     22  C   UNL     1       7.917  -0.226  -5.680  0.00  0.00    +0.059 A 
ATOM     23  C   UNL     1       6.990   0.160  -6.649  0.00  0.00    +0.016 A 
ATOM     24  C   UNL     1       5.744   0.610  -6.271  0.00  0.00    +0.014 A 
ATOM     25  C   UNL     1       5.409   0.682  -4.918  0.00  0.00    +0.037 A 
ATOM     26  C   UNL     1       6.338   0.302  -3.948  0.00  0.00    +0.014 A 
ATOM     27  C   UNL     1       7.582  -0.155  -4.326  0.00  0.00    +0.016 A 
BRANCH  22  28
ATOM     28  C   UNL     1       9.255  -0.709  -6.086  0.00  0.00    +0.339 C 
ATOM     29  O   UNL     1       9.546  -0.771  -7.263  0.00  0.00    -0.245 OA
BRANCH  28  31
ATOM     30  C   UNL     1      11.442  -1.545  -5.622  0.00  0.00    +0.280 C 
ATOM     31  O   UNL     1      10.149  -1.081  -5.150  0.00  0.00    -0.464 OA
ENDBRANCH  28  31
ENDBRANCH  22  28
ENDBRANCH  18  25
ENDBRANCH  17  20
ENDBRANCH   1  17
TORSDOF 7
