REMARK  Name = ZINC35735148
REMARK  4 active torsions:
REMARK  status: ('A' for Active; 'I' for Inactive)
REMARK    1  A    between atoms: C_1  and  C_2
REMARK    2  A    between atoms: C_2  and  C_4
REMARK    3  A    between atoms: C_2  and  N_10
REMARK    4  A    between atoms: CA_19  and  C_21
REMARK                            x       y       z     vdW  Elec       q    Type
REMARK                         _______ _______ _______ _____ _____    ______ ____
ROOT
ATOM      1  N   UNL     1       0.688  -0.476  -1.203  0.00  0.00    -0.325 N 
ATOM      2  C   UNL     1       2.067  -0.590  -1.215  0.00  0.00    +0.105 A 
ATOM      3  C   UNL     1       2.758  -1.054  -2.415  0.00  0.00    +0.020 A 
ATOM      4  C   UNL     1       2.069  -1.398  -3.582  0.00  0.00    +0.012 A 
ATOM      5  C   UNL     1       2.767  -1.826  -4.674  0.00  0.00    +0.001 A 
ATOM      6  C   UNL     1       4.155  -1.925  -4.644  0.00  0.00    +0.001 A 
ATOM      7  C   UNL     1       4.859  -1.598  -3.523  0.00  0.00    +0.009 A 
ATOM      8  C   UNL     1       4.173  -1.155  -2.383  0.00  0.00    -0.013 A 
ATOM      9  C   UNL     1       4.840  -0.802  -1.196  0.00  0.00    +0.041 A 
ATOM     10  CA  UNL     1       4.103  -0.373  -0.110  0.00  0.00    +0.130 A 
ATOM     11  N   UNL     1       2.769  -0.275  -0.147  0.00  0.00    -0.337 N 
ATOM     12  H   UNL     1       0.175  -0.710  -1.993  0.00  0.00    +0.148 HD
ATOM     13  H   UNL     1       2.302   0.036   0.644  0.00  0.00    +0.167 HD
ENDROOT
BRANCH  10  14
ATOM     14  C   UNL     1       4.810  -0.005   1.133  0.00  0.00    +0.402 C 
ATOM     15  O   UNL     1       4.178   0.378   2.107  0.00  0.00    -0.239 OA
ATOM     16  OXT UNL     1       6.030  -0.083   1.188  0.00  0.00    -0.239 OA
ENDBRANCH  10  14
BRANCH   1  18
ATOM     17  C   UNL     1      -0.019   1.526   0.010  0.00  0.00    +0.030 C 
ATOM     18  C   UNL     1       0.002  -0.004   0.002  0.00  0.00    +0.097 C 
BRANCH  18  19
ATOM     19  C   UNL     1      -1.433  -0.534   0.013  0.00  0.00    +0.138 C 
ATOM     20  C   UNL     1      -1.422  -2.077  -0.000  0.00  0.00    +0.035 C 
ATOM     21  C   UNL     1      -2.607  -2.408  -0.948  0.00  0.00    +0.031 C 
ATOM     22  C   UNL     1      -2.518  -1.230  -1.952  0.00  0.00    +0.160 C 
ATOM     23  O   UNL     1      -2.122  -0.094  -1.163  0.00  0.00    -0.375 OA
ENDBRANCH  18  19
ENDBRANCH   1  18
TORSDOF 3
