REMARK  Name = ZINC00648672
REMARK  9 active torsions:
REMARK  status: ('A' for Active; 'I' for Inactive)
REMARK    1  A    between atoms: C_1  and  C_2
REMARK    2  A    between atoms: C_2  and  C_3
REMARK    3  A    between atoms: C_7  and  C_29
REMARK    4  A    between atoms: C_8  and  N_9
REMARK    5  A    between atoms: C_10  and  C_12
REMARK    6  A    between atoms: C_12  and  S_13
REMARK    7  A    between atoms: S_13  and  C_14
REMARK    8  A    between atoms: N_27  and  C_28
REMARK    9  A    between atoms: C_29  and  C_30
REMARK                            x       y       z     vdW  Elec       q    Type
REMARK                         _______ _______ _______ _____ _____    ______ ____
ROOT
ATOM      1  S   UNL     1      -0.226  -1.798   6.183  0.00  0.00    -0.078 S 
ENDROOT
BRANCH   1   2
ATOM      2  C   UNL     1      -0.160  -0.891   7.692  0.00  0.00    +0.173 A 
ATOM      3  N   UNL     1       0.102   0.400   7.663  0.00  0.00    -0.216 NA
ATOM      4  C   UNL     1       0.157   1.107   8.786  0.00  0.00    +0.117 A 
ATOM      5  C   UNL     1      -0.057   0.526  10.047  0.00  0.00    +0.076 A 
ATOM      6  C   UNL     1       0.036   1.433  11.193  0.00  0.00    -0.023 A 
ATOM      7  C   UNL     1       0.315   2.725  10.929  0.00  0.00    -0.004 A 
ATOM      8  S   UNL     1       0.469   2.813   9.165  0.00  0.00    -0.073 S 
ATOM      9  C   UNL     1       0.462   3.842  11.917  0.00  0.00    +0.043 C 
ATOM     10  C   UNL     1      -0.116   3.379  13.262  0.00  0.00    +0.005 C 
ATOM     11  C   UNL     1       0.437   1.987  13.581  0.00  0.00    +0.005 C 
ATOM     12  C   UNL     1      -0.169   0.956  12.628  0.00  0.00    +0.037 C 
ATOM     13  C   UNL     1      -0.339  -0.877  10.047  0.00  0.00    +0.263 A 
ATOM     14  O   UNL     1      -0.539  -1.466  11.095  0.00  0.00    -0.267 OA
ATOM     15  N   UNL     1      -0.386  -1.535   8.874  0.00  0.00    -0.290 N 
ATOM     16  C   UNL     1      -0.680  -2.970   8.867  0.00  0.00    +0.154 C 
ENDBRANCH   1   2
BRANCH   1  17
ATOM     17  C   UNL     1       0.132  -0.473   5.003  0.00  0.00    +0.173 C 
BRANCH  17  19
ATOM     18  N   UNL     1       0.371  -0.221   2.554  0.00  0.00    -0.284 N 
ATOM     19  C   UNL     1       0.128  -1.031   3.603  0.00  0.00    +0.228 C 
ATOM     20  O   UNL     1      -0.095  -2.209   3.421  0.00  0.00    -0.275 OA
ATOM     21  H   UNL     1       0.620   0.705   2.704  0.00  0.00    +0.155 HD
BRANCH  18  27
ATOM     22  C   UNL     1      -0.967  -0.738   0.611  0.00  0.00    -0.026 A 
ATOM     23  C   UNL     1      -1.069  -1.232  -0.674  0.00  0.00    +0.005 A 
ATOM     24  C   UNL     1       0.057  -1.694  -1.330  0.00  0.00    +0.001 A 
ATOM     25  C   UNL     1       1.287  -1.672  -0.698  0.00  0.00    +0.005 A 
ATOM     26  C   UNL     1       1.394  -1.184   0.590  0.00  0.00    -0.026 A 
ATOM     27  C   UNL     1       0.266  -0.715   1.250  0.00  0.00    +0.040 A 
BRANCH  22  29
ATOM     28  C   UNL     1      -2.296   1.287   1.146  0.00  0.00    +0.009 C 
ATOM     29  C   UNL     1      -2.195  -0.229   1.323  0.00  0.00    +0.033 C 
ENDBRANCH  22  29
BRANCH  26  30
ATOM     30  C   UNL     1       2.735  -1.162   1.279  0.00  0.00    +0.033 C 
ATOM     31  C   UNL     1       2.881  -2.412   2.149  0.00  0.00    +0.009 C 
ENDBRANCH  26  30
ENDBRANCH  18  27
ENDBRANCH  17  19
ENDBRANCH   1  17
TORSDOF 6
