REMARK  Name = ZINC05351864
REMARK  8 active torsions:
REMARK  status: ('A' for Active; 'I' for Inactive)
REMARK    1  A    between atoms: C_1  and  C_2
REMARK    2  A    between atoms: C_2  and  C_3
REMARK    3  A    between atoms: C_2  and  C_4
REMARK    4  A    between atoms: C_4  and  C_5
REMARK    5  A    between atoms: N_13  and  C_16
REMARK    6  A    between atoms: C_16  and  C_17
REMARK    7  A    between atoms: C_16  and  C_18
REMARK    8  A    between atoms: C_16  and  C_19
REMARK                            x       y       z     vdW  Elec       q    Type
REMARK                         _______ _______ _______ _____ _____    ______ ____
ROOT
ATOM      1  C   UNL     1      -1.111  -1.807   0.204  0.00  0.00    -0.057 C 
ATOM      2  C   UNL     1      -2.451  -2.565   0.104  0.00  0.00    +0.073 C 
ATOM      3  C   UNL     1      -2.877  -2.822   1.577  0.00  0.00    +0.088 C 
ATOM      4  C   UNL     1      -2.830  -4.330   1.694  0.00  0.00    +0.225 C 
ATOM      5  O   UNL     1      -3.102  -4.963   2.691  0.00  0.00    -0.275 OA
ATOM      6  N   UNL     1      -2.442  -4.855   0.526  0.00  0.00    -0.236 N 
ATOM      7  C   UNL     1      -2.202  -3.949  -0.450  0.00  0.00    +0.224 C 
ATOM      8  O   UNL     1      -1.846  -4.197  -1.582  0.00  0.00    -0.275 OA
ATOM      9  C   UNL     1      -1.759  -2.192   2.416  0.00  0.00    +0.050 C 
ATOM     10  N   UNL     1      -0.563  -2.170   1.538  0.00  0.00    +0.394 N 
ATOM     11  C   UNL     1      -1.493  -2.982   3.666  0.00  0.00    -0.026 A 
ATOM     12  C   UNL     1      -1.109  -4.283   3.901  0.00  0.00    +0.004 A 
ATOM     13  C   UNL     1      -0.941  -4.732   5.199  0.00  0.00    +0.002 A 
ATOM     14  C   UNL     1      -1.161  -3.871   6.259  0.00  0.00    +0.022 A 
ATOM     15  C   UNL     1      -1.545  -2.566   6.029  0.00  0.00    +0.062 A 
ATOM     16  C   UNL     1      -1.716  -2.106   4.724  0.00  0.00    +0.054 A 
ATOM     17  N   UNL     1      -2.091  -0.850   4.241  0.00  0.00    -0.285 N 
ATOM     18  C   UNL     1      -2.140  -0.818   2.895  0.00  0.00    +0.211 C 
ATOM     19  O   UNL     1      -2.435   0.135   2.204  0.00  0.00    -0.277 OA
ATOM     20 CL   UNL     1      -1.818  -1.494   7.367  0.00  0.00    -0.082 Cl
ATOM     21  H   UNL     1      -0.122  -3.077   1.504  0.00  0.00    -0.083 HD
ATOM     22  H   UNL     1      -2.294  -0.090   4.808  0.00  0.00    +0.155 HD
ATOM     23  H   UNL     1       0.091  -1.470   1.854  0.00  0.00    -0.083 HD
ENDROOT
BRANCH   6  24
ATOM     24  C   UNL     1      -2.293  -6.297   0.316  0.00  0.00    +0.036 C 
ATOM     25  C   UNL     1      -3.636  -6.989   0.560  0.00  0.00    +0.031 C 
ATOM     26  C   UNL     1      -1.838  -6.559  -1.121  0.00  0.00    +0.031 C 
ATOM     27  C   UNL     1      -1.250  -6.849   1.290  0.00  0.00    +0.031 C 
ENDBRANCH   6  24
BRANCH   1  28
ATOM     28  C   UNL     1      -1.346  -0.298   0.119  0.00  0.00    -0.012 C 
BRANCH  28  30
ATOM     29  C   UNL     1      -1.590   1.637  -1.444  0.00  0.00    +0.007 C 
ATOM     30  C   UNL     1      -1.216   0.157  -1.336  0.00  0.00    -0.019 C 
ATOM     31  C   UNL     1       0.227  -0.040  -1.805  0.00  0.00    +0.007 C 
ENDBRANCH  28  30
ENDBRANCH   1  28
TORSDOF 3
