REMARK  Name = ZINC09752662
REMARK  5 active torsions:
REMARK  status: ('A' for Active; 'I' for Inactive)
REMARK    1  A    between atoms: C_1  and  C_2
REMARK    2  A    between atoms: N_17  and  C_18
REMARK    3  A    between atoms: C_21  and  C_24
REMARK    4  A    between atoms: C_24  and  O_26
REMARK    5  A    between atoms: O_26  and  C_27
REMARK                            x       y       z     vdW  Elec       q    Type
REMARK                         _______ _______ _______ _____ _____    ______ ____
ROOT
ATOM      1  C   UNL     1      -2.419   5.541   0.701  0.00  0.00    +0.079 C 
ATOM      2  C   UNL     1      -1.357   6.326  -0.072  0.00  0.00    +0.185 C 
ATOM      3  C   UNL     1      -1.405   7.816   0.367  0.00  0.00    +0.096 C 
ATOM      4  C   UNL     1      -0.243   8.508  -0.364  0.00  0.00    +0.114 C 
ATOM      5  C   UNL     1      -0.359   8.226  -1.845  0.00  0.00    +0.016 A 
ATOM      6  C   UNL     1       0.242   9.101  -2.739  0.00  0.00    +0.024 A 
ATOM      7  C   UNL     1       0.163   8.865  -4.098  0.00  0.00    +0.018 A 
ATOM      8  C   UNL     1      -0.509   7.750  -4.567  0.00  0.00    +0.019 A 
ATOM      9  C   UNL     1      -1.103   6.877  -3.679  0.00  0.00    +0.047 A 
ATOM     10  C   UNL     1      -1.030   7.114  -2.309  0.00  0.00    +0.128 A 
ATOM     11  O   UNL     1      -1.633   6.237  -1.467  0.00  0.00    -0.468 OA
ATOM     12 BR   UNL     1       0.974  10.063  -5.316  0.00  0.00    -0.050 Br
ATOM     13  N   UNL     1       1.008   7.888   0.104  0.00  0.00    -0.292 N 
ATOM     14  C   UNL     1       1.048   6.566   0.341  0.00  0.00    +0.310 C 
ATOM     15  O   UNL     1       2.105   6.061   0.665  0.00  0.00    -0.252 OA
ATOM     16  N   UNL     1      -0.036   5.782   0.233  0.00  0.00    -0.216 N 
ATOM     17  H   UNL     1       1.799   8.431   0.241  0.00  0.00    +0.151 HD
ENDROOT
BRANCH  16  18
ATOM     18  C   UNL     1       0.104   4.407   0.411  0.00  0.00    +0.042 A 
ATOM     19  C   UNL     1       0.090   3.869   1.694  0.00  0.00    +0.024 A 
ATOM     20  C   UNL     1       0.229   2.511   1.874  0.00  0.00    +0.017 A 
ATOM     21  C   UNL     1       0.382   1.673   0.766  0.00  0.00    +0.059 A 
ATOM     22  C   UNL     1       0.400   2.218  -0.522  0.00  0.00    +0.017 A 
ATOM     23  C   UNL     1       0.256   3.576  -0.694  0.00  0.00    +0.024 A 
BRANCH  21  24
ATOM     24  C   UNL     1       0.531   0.218   0.954  0.00  0.00    +0.339 C 
ATOM     25  O   UNL     1       0.521  -0.254   2.074  0.00  0.00    -0.245 OA
BRANCH  24  26
ATOM     26  O   UNL     1       0.679  -0.589  -0.115  0.00  0.00    -0.464 OA
ATOM     27  C   UNL     1       0.820  -2.010   0.146  0.00  0.00    +0.280 C 
ENDBRANCH  24  26
ENDBRANCH  21  24
ENDBRANCH  16  18
TORSDOF 3
