REMARK  Name = ZINC01326835
REMARK  7 active torsions:
REMARK  status: ('A' for Active; 'I' for Inactive)
REMARK    1  A    between atoms: C_1  and  C_2
REMARK    2  A    between atoms: C_5  and  N_12
REMARK    3  A    between atoms: C_7  and  N_8
REMARK    4  A    between atoms: C_9  and  C_11
REMARK    5  A    between atoms: C_13  and  C_15
REMARK    6  A    between atoms: C_19  and  C_30
REMARK    7  A    between atoms: C_22  and  C_26
REMARK                            x       y       z     vdW  Elec       q    Type
REMARK                         _______ _______ _______ _____ _____    ______ ____
ROOT
ATOM      1  C   UNL     1       0.254  -6.184  -2.037  0.00  0.00    +0.110 C 
ATOM      2  C   UNL     1       0.492  -7.126  -1.091  0.00  0.00    +0.072 C 
ATOM      3  C   UNL     1       0.611  -8.411  -1.779  0.00  0.00    +0.114 C 
ATOM      4  N   UNL     1       0.847  -9.598  -1.297  0.00  0.00    -0.365 N 
ATOM      5  C   UNL     1       0.956 -10.734  -2.221  0.00  0.00    +0.113 C 
ATOM      6  C   UNL     1       0.048 -10.528  -3.434  0.00  0.00    +0.062 C 
ATOM      7  C   UNL     1       0.420  -9.217  -4.144  0.00  0.00    +0.201 C 
ATOM      8  N   UNL     1       0.411  -8.157  -3.130  0.00  0.00    -0.226 N 
ATOM      9  N   UNL     1       0.207  -6.790  -3.282  0.00  0.00    -0.258 N 
ATOM     10  H   UNL     1       0.059  -6.334  -4.124  0.00  0.00    +0.170 HD
ATOM     11  H   UNL     1       0.950  -9.730  -0.342  0.00  0.00    +0.161 HD
ENDROOT
BRANCH   5  12
ATOM     12  C   UNL     1       0.551 -11.997  -1.506  0.00  0.00    -0.021 A 
ATOM     13  C   UNL     1      -0.526 -11.984  -0.639  0.00  0.00    +0.009 A 
ATOM     14  C   UNL     1      -0.902 -13.140   0.018  0.00  0.00    +0.050 A 
ATOM     15  C   UNL     1      -0.199 -14.316  -0.189  0.00  0.00    +0.166 A 
ATOM     16  C   UNL     1       0.886 -14.329  -1.062  0.00  0.00    +0.167 A 
ATOM     17  C   UNL     1       1.253 -13.168  -1.723  0.00  0.00    +0.055 A 
ATOM     18  O   UNL     1       1.405 -15.591  -1.094  0.00  0.00    -0.453 OA
ATOM     19  C   UNL     1       0.883 -16.251   0.074  0.00  0.00    +0.466 C 
ATOM     20  O   UNL     1      -0.360 -15.569   0.326  0.00  0.00    -0.453 OA
ENDBRANCH   5  12
BRANCH   1  22
ATOM     21  N   UNL     1       0.136  -4.266  -0.520  0.00  0.00    -0.280 N 
ATOM     22  C   UNL     1       0.068  -4.740  -1.779  0.00  0.00    +0.264 C 
ATOM     23  O   UNL     1      -0.147  -3.981  -2.704  0.00  0.00    -0.268 OA
ATOM     24  H   UNL     1       0.241  -4.879   0.225  0.00  0.00    +0.155 HD
BRANCH  21  29
ATOM     25  C   UNL     1      -0.207   1.321   0.422  0.00  0.00    +0.045 C 
ATOM     26  C   UNL     1      -0.115  -0.162   0.173  0.00  0.00    -0.029 A 
ATOM     27  C   UNL     1      -0.860  -0.740  -0.838  0.00  0.00    +0.007 A 
ATOM     28  C   UNL     1      -0.778  -2.099  -1.069  0.00  0.00    +0.024 A 
ATOM     29  C   UNL     1       0.054  -2.890  -0.285  0.00  0.00    +0.035 A 
ATOM     30  C   UNL     1       0.803  -2.313   0.730  0.00  0.00    +0.047 A 
ATOM     31  C   UNL     1       0.723  -0.946   0.956  0.00  0.00    +0.038 A 
BRANCH  31  32
ATOM     32  N   UNL     1       1.481  -0.359   1.975  0.00  0.00    -0.285 N 
ATOM     33  C   UNL     1       1.829  -1.082   3.058  0.00  0.00    +0.214 C 
ATOM     34  O   UNL     1       1.554  -2.262   3.113  0.00  0.00    -0.276 OA
ATOM     35  C   UNL     1       2.561  -0.425   4.199  0.00  0.00    +0.109 C 
ATOM     36  H   UNL     1       1.755   0.569   1.903  0.00  0.00    +0.155 HD
ENDBRANCH  31  32
ENDBRANCH  21  29
ENDBRANCH   1  22
BRANCH   7  37
ATOM     37  C   UNL     1      -0.608  -8.905  -5.234  0.00  0.00    +0.410 C 
ATOM     38  F   UNL     1      -1.875  -8.774  -4.657  0.00  0.00    -0.169 F 
ATOM     39  F   UNL     1      -0.261  -7.711  -5.874  0.00  0.00    -0.169 F 
ATOM     40  F   UNL     1      -0.627  -9.947  -6.169  0.00  0.00    -0.169 F 
ENDBRANCH   7  37
TORSDOF 5
