REMARK  Name = ZINC35854054
REMARK  8 active torsions:
REMARK  status: ('A' for Active; 'I' for Inactive)
REMARK    1  A    between atoms: C_4  and  C_7
REMARK    2  A    between atoms: C_7  and  N_8
REMARK    3  A    between atoms: N_8  and  C_9
REMARK    4  A    between atoms: C_13  and  C_15
REMARK    5  A    between atoms: C_15  and  C_16
REMARK    6  A    between atoms: N_18  and  C_19
REMARK    7  A    between atoms: C_19  and  C_20
REMARK    8  A    between atoms: C_29  and  C_31
REMARK                            x       y       z     vdW  Elec       q    Type
REMARK                         _______ _______ _______ _____ _____    ______ ____
ROOT
ATOM      1  C   UNL     1       3.657  -2.311   1.801  0.00  0.00    +0.037 A 
ATOM      2  C   UNL     1       4.229  -2.472   3.057  0.00  0.00    +0.023 A 
ATOM      3  C   UNL     1       4.056  -3.657   3.745  0.00  0.00    +0.002 A 
ATOM      4  C   UNL     1       3.315  -4.682   3.186  0.00  0.00    +0.004 A 
ATOM      5  C   UNL     1       2.745  -4.524   1.936  0.00  0.00    -0.037 A 
ATOM      6  C   UNL     1       2.908  -3.340   1.245  0.00  0.00    +0.027 A 
ENDROOT
BRANCH   1   7
ATOM      7  N   UNL     1       3.830  -1.112   1.101  0.00  0.00    -0.267 N 
ATOM      8  C   UNL     1       4.428  -0.062   1.699  0.00  0.00    +0.223 C 
ATOM      9  O   UNL     1       4.677  -0.102   2.886  0.00  0.00    -0.275 OA
BRANCH   8  10
ATOM     10  C   UNL     1       4.787   1.160   0.894  0.00  0.00    +0.076 C 
ATOM     11  C   UNL     1       6.274   1.472   0.709  0.00  0.00    +0.013 C 
ATOM     12  C   UNL     1       5.420   2.336   1.640  0.00  0.00    +0.013 C 
ENDBRANCH   8  10
BRANCH   7  13
ATOM     13  C   UNL     1       3.361  -0.997  -0.282  0.00  0.00    +0.148 C 
BRANCH  13  17
ATOM     14  C   UNL     1       6.501  -2.124  -2.950  0.00  0.00    +0.000 A 
ATOM     15  C   UNL     1       5.687  -3.092  -2.392  0.00  0.00    +0.000 A 
ATOM     16  C   UNL     1       4.671  -2.728  -1.529  0.00  0.00    +0.005 A 
ATOM     17  C   UNL     1       4.469  -1.395  -1.223  0.00  0.00    -0.030 A 
ATOM     18  C   UNL     1       5.284  -0.426  -1.780  0.00  0.00    +0.005 A 
ATOM     19  C   UNL     1       6.298  -0.791  -2.644  0.00  0.00    +0.000 A 
ENDBRANCH  13  17
ENDBRANCH   7  13
ENDBRANCH   1   7
BRANCH   5  20
ATOM     20  C   UNL     1       1.939  -5.644   1.330  0.00  0.00    +0.131 C 
BRANCH  20  21
ATOM     21  C   UNL     1       0.493  -5.497   1.730  0.00  0.00    +0.218 C 
ATOM     22  O   UNL     1       0.151  -4.573   2.438  0.00  0.00    -0.275 OA
ATOM     23  N   UNL     1      -0.419  -6.391   1.302  0.00  0.00    -0.311 N 
ATOM     24  H   UNL     1      -0.146  -7.130   0.736  0.00  0.00    +0.149 HD
BRANCH  23  25
ATOM     25  C   UNL     1      -1.824  -6.247   1.691  0.00  0.00    +0.139 C 
BRANCH  25  26
ATOM     26  C   UNL     1      -2.630  -7.367   1.085  0.00  0.00    -0.027 A 
ATOM     27  C   UNL     1      -3.195  -7.211  -0.167  0.00  0.00    +0.009 A 
ATOM     28  C   UNL     1      -3.935  -8.235  -0.728  0.00  0.00    +0.050 A 
ATOM     29  C   UNL     1      -4.113  -9.422  -0.035  0.00  0.00    +0.166 A 
ATOM     30  C   UNL     1      -3.544  -9.579   1.227  0.00  0.00    +0.167 A 
ATOM     31  C   UNL     1      -2.799  -8.550   1.780  0.00  0.00    +0.054 A 
ATOM     32  O   UNL     1      -3.859 -10.822   1.696  0.00  0.00    -0.453 OA
ATOM     33  C   UNL     1      -4.965 -11.268   0.888  0.00  0.00    +0.466 C 
ATOM     34  O   UNL     1      -4.785 -10.566  -0.356  0.00  0.00    -0.453 OA
ENDBRANCH  25  26
ENDBRANCH  23  25
ENDBRANCH  20  21
ENDBRANCH   5  20
TORSDOF 8
