REMARK  Name = ZINC35431989
REMARK  8 active torsions:
REMARK  status: ('A' for Active; 'I' for Inactive)
REMARK    1  A    between atoms: C_1  and  C_2
REMARK    2  A    between atoms: C_2  and  C_3
REMARK    3  A    between atoms: C_8  and  N_9
REMARK    4  A    between atoms: C_10  and  C_12
REMARK    5  A    between atoms: C_12  and  S_13
REMARK    6  A    between atoms: S_13  and  C_14
REMARK    7  A    between atoms: C_25  and  C_27
REMARK    8  A    between atoms: N_30  and  C_31
REMARK                            x       y       z     vdW  Elec       q    Type
REMARK                         _______ _______ _______ _____ _____    ______ ____
ROOT
ATOM      1  C   UNL     1      -5.471  -1.161   4.692  0.00  0.00    +0.178 A 
ATOM      2  N   UNL     1      -5.864  -0.517   3.612  0.00  0.00    -0.215 NA
ATOM      3  C   UNL     1      -7.113  -0.082   3.496  0.00  0.00    +0.117 A 
ATOM      4  C   UNL     1      -8.071  -0.281   4.505  0.00  0.00    +0.076 A 
ATOM      5  C   UNL     1      -9.407   0.257   4.235  0.00  0.00    -0.020 A 
ATOM      6  C   UNL     1      -9.583   0.887   3.056  0.00  0.00    +0.013 A 
ATOM      7  S   UNL     1      -8.011   0.800   2.244  0.00  0.00    -0.072 S 
ATOM      8  C   UNL     1     -10.844   1.524   2.553  0.00  0.00    +0.150 C 
ATOM      9  N   UNL     1     -11.927   1.141   3.479  0.00  0.00    -0.297 N 
ATOM     10  C   UNL     1     -11.626   1.160   4.918  0.00  0.00    +0.113 C 
ATOM     11  C   UNL     1     -10.555   0.114   5.231  0.00  0.00    +0.056 C 
ATOM     12  C   UNL     1     -13.145   0.787   3.023  0.00  0.00    +0.213 C 
ATOM     13  O   UNL     1     -14.041   0.553   3.806  0.00  0.00    -0.276 OA
ATOM     14  C   UNL     1     -13.394   0.682   1.540  0.00  0.00    +0.109 C 
ATOM     15  C   UNL     1      -7.617  -0.983   5.666  0.00  0.00    +0.268 A 
ATOM     16  O   UNL     1      -8.379  -1.202   6.593  0.00  0.00    -0.267 OA
ATOM     17  N   UNL     1      -6.340  -1.402   5.719  0.00  0.00    -0.255 N 
ENDROOT
BRANCH  17  18
ATOM     18  C   UNL     1      -5.890  -2.095   6.851  0.00  0.00    +0.052 A 
ATOM     19  C   UNL     1      -6.401  -3.352   7.146  0.00  0.00    +0.026 A 
ATOM     20  C   UNL     1      -5.956  -4.032   8.262  0.00  0.00    +0.002 A 
ATOM     21  C   UNL     1      -5.003  -3.463   9.086  0.00  0.00    +0.000 A 
ATOM     22  C   UNL     1      -4.492  -2.211   8.796  0.00  0.00    +0.002 A 
ATOM     23  C   UNL     1      -4.929  -1.528   7.677  0.00  0.00    +0.026 A 
ENDBRANCH  17  18
BRANCH   1  24
ATOM     24  S   UNL     1      -3.806  -1.725   4.811  0.00  0.00    -0.078 S 
BRANCH  24  25
ATOM     25  C   UNL     1      -3.049  -1.188   3.252  0.00  0.00    +0.173 C 
BRANCH  25  27
ATOM     26  N   UNL     1      -0.836  -1.321   2.155  0.00  0.00    -0.285 N 
ATOM     27  C   UNL     1      -1.603  -1.613   3.223  0.00  0.00    +0.227 C 
ATOM     28  O   UNL     1      -1.130  -2.218   4.162  0.00  0.00    -0.275 OA
ATOM     29  H   UNL     1      -1.195  -0.782   1.433  0.00  0.00    +0.155 HD
BRANCH  26  35
ATOM     30  C   UNL     1       1.024  -2.159   0.863  0.00  0.00    -0.026 A 
ATOM     31  C   UNL     1       2.325  -2.621   0.799  0.00  0.00    +0.005 A 
ATOM     32  C   UNL     1       3.081  -2.725   1.952  0.00  0.00    +0.000 A 
ATOM     33  C   UNL     1       2.539  -2.367   3.172  0.00  0.00    +0.002 A 
ATOM     34  C   UNL     1       1.240  -1.904   3.244  0.00  0.00    +0.023 A 
ATOM     35  C   UNL     1       0.479  -1.794   2.087  0.00  0.00    +0.037 A 
BRANCH  30  37
ATOM     36  C   UNL     1       0.300  -0.621  -0.942  0.00  0.00    +0.009 C 
ATOM     37  C   UNL     1       0.201  -2.046  -0.394  0.00  0.00    +0.033 C 
ENDBRANCH  30  37
ENDBRANCH  26  35
ENDBRANCH  25  27
ENDBRANCH  24  25
ENDBRANCH   1  24
TORSDOF 6
