REMARK  Name = ZINC59310257
REMARK  10 active torsions:
REMARK  status: ('A' for Active; 'I' for Inactive)
REMARK    1  A    between atoms: C_1  and  O_2
REMARK    2  A    between atoms: O_2  and  C_3
REMARK    3  A    between atoms: C_6  and  C_11
REMARK    4  A    between atoms: C_8  and  O_9
REMARK    5  A    between atoms: O_9  and  C_10
REMARK    6  A    between atoms: C_11  and  C_13
REMARK    7  A    between atoms: C_13  and  S_14
REMARK    8  A    between atoms: S_14  and  C_15
REMARK    9  A    between atoms: N_20  and  N_21
REMARK   10  A    between atoms: C_22  and  C_23
REMARK                            x       y       z     vdW  Elec       q    Type
REMARK                         _______ _______ _______ _____ _____    ______ ____
ROOT
ATOM      1  C   UNL     1       4.442  -1.615  -7.932  0.00  0.00    +0.210 A 
ATOM      2  N   UNL     1       5.086  -1.965  -9.051  0.00  0.00    -0.186 NA
ATOM      3  C   UNL     1       5.467  -0.885  -9.699  0.00  0.00    +0.232 A 
ATOM      4  N   UNL     1       5.064   0.191  -8.990  0.00  0.00    -0.245 N 
ATOM      5  N   UNL     1       4.401  -0.306  -7.856  0.00  0.00    -0.144 NA
ATOM      6  N   UNL     1       6.159  -0.857 -10.897  0.00  0.00    -0.205 N 
ATOM      7  H   UNL     1       6.396  -0.007 -11.300  0.00  0.00    +0.177 HD
ATOM      8  H   UNL     1       5.202   1.123  -9.220  0.00  0.00    +0.192 HD
ENDROOT
BRANCH   6   9
ATOM      9  N   UNL     1       6.516  -2.056 -11.528  0.00  0.00    -0.188 NA
ATOM     10  C   UNL     1       7.156  -2.030 -12.636  0.00  0.00    +0.139 C 
BRANCH  10  11
ATOM     11  C   UNL     1       7.532  -3.291 -13.299  0.00  0.00    +0.002 A 
ATOM     12  C   UNL     1       8.156  -3.265 -14.634  0.00  0.00    +0.010 A 
ATOM     13  C   UNL     1       8.496  -4.387 -15.236  0.00  0.00    +0.009 A 
ATOM     14  C   UNL     1       8.251  -5.677 -14.569  0.00  0.00    -0.017 A 
ATOM     15  C   UNL     1       8.620  -6.947 -15.215  0.00  0.00    +0.009 A 
ATOM     16  C   UNL     1       8.393  -8.092 -14.601  0.00  0.00    +0.009 A 
ATOM     17  C   UNL     1       7.769  -8.104 -13.267  0.00  0.00    -0.017 A 
ATOM     18  C   UNL     1       7.506  -9.370 -12.562  0.00  0.00    +0.008 A 
ATOM     19  C   UNL     1       6.947  -9.350 -11.370  0.00  0.00    +0.001 A 
ATOM     20  C   UNL     1       6.582  -8.071 -10.734  0.00  0.00    +0.008 A 
ATOM     21  C   UNL     1       6.816  -6.939 -11.361  0.00  0.00    -0.017 A 
ATOM     22  C   UNL     1       7.441  -6.969 -12.695  0.00  0.00    -0.002 A 
ATOM     23  C   UNL     1       7.695  -5.691 -13.381  0.00  0.00    -0.002 A 
ATOM     24  C   UNL     1       7.316  -4.441 -12.699  0.00  0.00    -0.008 A 
ATOM     25  C   UNL     1       6.701  -4.505 -11.365  0.00  0.00    +0.010 A 
ATOM     26  C   UNL     1       6.465  -5.644 -10.758  0.00  0.00    +0.009 A 
ENDBRANCH  10  11
ENDBRANCH   6   9
BRANCH   1  27
ATOM     27  S   UNL     1       3.755  -2.730  -6.754  0.00  0.00    -0.076 S 
BRANCH  27  28
ATOM     28  C   UNL     1       3.026  -1.646  -5.496  0.00  0.00    +0.157 C 
BRANCH  28  29
ATOM     29  C   UNL     1       2.395  -2.484  -4.414  0.00  0.00    +0.173 C 
ATOM     30  O   UNL     1       2.434  -3.695  -4.485  0.00  0.00    -0.291 OA
BRANCH  29  34
ATOM     31  C   UNL     1       0.484  -0.606  -1.124  0.00  0.00    +0.162 A 
ATOM     32  C   UNL     1       1.067   0.166  -2.121  0.00  0.00    +0.050 A 
ATOM     33  C   UNL     1       1.688  -0.439  -3.190  0.00  0.00    +0.015 A 
ATOM     34  C   UNL     1       1.734  -1.836  -3.274  0.00  0.00    +0.022 A 
ATOM     35  C   UNL     1       1.147  -2.613  -2.268  0.00  0.00    +0.060 A 
ATOM     36  C   UNL     1       0.531  -1.998  -1.197  0.00  0.00    +0.162 A 
BRANCH  31  38
ATOM     37  C   UNL     1      -0.138   1.425  -0.059  0.00  0.00    +0.277 C 
ATOM     38  O   UNL     1      -0.127  -0.004  -0.072  0.00  0.00    -0.491 OA
ENDBRANCH  31  38
BRANCH  36  39
ATOM     39  O   UNL     1      -0.036  -2.750  -0.215  0.00  0.00    -0.491 OA
ATOM     40  C   UNL     1       0.048  -4.169  -0.355  0.00  0.00    +0.277 C 
ENDBRANCH  36  39
ENDBRANCH  29  34
ENDBRANCH  28  29
ENDBRANCH  27  28
ENDBRANCH   1  27
TORSDOF 8
