REMARK  Name = ZINC23448583
REMARK  10 active torsions:
REMARK  status: ('A' for Active; 'I' for Inactive)
REMARK    1  A    between atoms: C_1  and  C_2
REMARK    2  A    between atoms: C_2  and  C_4
REMARK    3  A    between atoms: C_2  and  N_7
REMARK    4  A    between atoms: N_7  and  C_8
REMARK    5  A    between atoms: C_8  and  C_9
REMARK    6  A    between atoms: C_13  and  C_15
REMARK    7  A    between atoms: C_15  and  N_16
REMARK    8  A    between atoms: C_19  and  C_23
REMARK    9  A    between atoms: C_19  and  C_24
REMARK   10  A    between atoms: C_27  and  C_30
REMARK                            x       y       z     vdW  Elec       q    Type
REMARK                         _______ _______ _______ _____ _____    ______ ____
ROOT
ATOM      1  N   UNL     1       3.989  -2.119   2.029  0.00  0.00    -0.215 N 
ATOM      2  C   UNL     1       4.079  -3.454   1.872  0.00  0.00    +0.251 C 
ATOM      3  O   UNL     1       3.193  -4.270   2.014  0.00  0.00    -0.272 OA
ATOM      4  C   UNL     1       5.519  -3.725   1.482  0.00  0.00    +0.135 C 
ATOM      5  N   UNL     1       6.130  -2.385   1.462  0.00  0.00    -0.281 N 
ATOM      6  C   UNL     1       5.158  -1.514   1.790  0.00  0.00    +0.310 C 
ATOM      7  O   UNL     1       5.324  -0.312   1.863  0.00  0.00    -0.252 OA
ATOM      8  C   UNL     1       6.201  -4.612   2.525  0.00  0.00    +0.047 C 
ATOM      9  H   UNL     1       7.052  -2.171   1.252  0.00  0.00    +0.152 HD
ENDROOT
BRANCH   4  10
ATOM     10  C   UNL     1       5.588  -4.359   0.117  0.00  0.00    -0.015 A 
ATOM     11  C   UNL     1       4.546  -5.155  -0.326  0.00  0.00    +0.007 A 
ATOM     12  C   UNL     1       4.603  -5.739  -1.574  0.00  0.00    +0.019 A 
ATOM     13  C   UNL     1       5.715  -5.525  -2.392  0.00  0.00    +0.052 A 
ATOM     14  C   UNL     1       6.762  -4.721  -1.938  0.00  0.00    +0.019 A 
ATOM     15  C   UNL     1       6.690  -4.139  -0.689  0.00  0.00    +0.007 A 
BRANCH  13  16
ATOM     16  C   UNL     1       5.781  -6.129  -3.689  0.00  0.00    +0.099 C 
ATOM     17  N   UNL     1       5.833  -6.607  -4.718  0.00  0.00    -0.191 NA
ENDBRANCH  13  16
ENDBRANCH   4  10
BRANCH   1  18
ATOM     18  C   UNL     1       2.761  -1.416   2.408  0.00  0.00    +0.213 C 
BRANCH  18  20
ATOM     19  N   UNL     1       0.820  -0.385   1.272  0.00  0.00    -0.289 N 
ATOM     20  C   UNL     1       1.991  -1.044   1.167  0.00  0.00    +0.234 C 
ATOM     21  O   UNL     1       2.426  -1.336   0.073  0.00  0.00    -0.274 OA
BRANCH  19  23
ATOM     22  C   UNL     1       0.005   1.501  -0.055  0.00  0.00    +0.028 C 
ATOM     23  C   UNL     1       0.072  -0.023   0.065  0.00  0.00    +0.076 C 
BRANCH  23  24
ATOM     24  C   UNL     1      -1.345  -0.591   0.154  0.00  0.00    +0.009 C 
ATOM     25  C   UNL     1      -2.505   0.407   0.196  0.00  0.00    +0.005 C 
ATOM     26  C   UNL     1      -2.252  -0.421  -1.066  0.00  0.00    +0.005 C 
ENDBRANCH  23  24
ENDBRANCH  19  23
BRANCH  19  27
ATOM     27  C   UNL     1       0.295  -0.031   2.593  0.00  0.00    +0.221 C 
BRANCH  27  28
ATOM     28  C   UNL     1       0.910   1.294   3.048  0.00  0.00    +0.405 C 
ATOM     29  F   UNL     1       0.458   2.327   2.220  0.00  0.00    -0.169 F 
ATOM     30  F   UNL     1       0.530   1.555   4.369  0.00  0.00    -0.169 F 
ATOM     31  F   UNL     1       2.304   1.211   2.972  0.00  0.00    -0.169 F 
ENDBRANCH  27  28
ENDBRANCH  19  27
ENDBRANCH  18  20
ENDBRANCH   1  18
TORSDOF 8
