REMARK  Name = ZINC10276106
REMARK  11 active torsions:
REMARK  status: ('A' for Active; 'I' for Inactive)
REMARK    1  A    between atoms: C_1  and  C_2
REMARK    2  A    between atoms: C_2  and  C_4
REMARK    3  A    between atoms: C_2  and  N_56
REMARK    4  A    between atoms: C_7  and  S_10
REMARK    5  A    between atoms: S_10  and  N_13
REMARK    6  A    between atoms: C_14  and  N_56
REMARK    7  A    between atoms: C_15  and  C_16
REMARK    8  A    between atoms: C_15  and  N_56
REMARK    9  A    between atoms: N_18  and  C_19
REMARK   10  A    between atoms: C_24  and  S_25
REMARK   11  A    between atoms: S_25  and  C_26
REMARK                            x       y       z     vdW  Elec       q    Type
REMARK                         _______ _______ _______ _____ _____    ______ ____
ROOT
ATOM      1  C   UNL     1       1.041  -2.187   0.058  0.00  0.00    +0.019 C 
ENDROOT
BRANCH   1   2
ATOM      2  C   UNL     1       1.065  -0.681   0.097  0.00  0.00    +0.201 C 
ATOM      3  O   UNL     1       2.125  -0.091   0.094  0.00  0.00    -0.278 OA
ATOM      4  N   UNL     1      -0.091   0.010   0.135  0.00  0.00    -0.286 N 
ATOM      5  H   UNL     1      -0.936  -0.461   0.212  0.00  0.00    +0.155 HD
BRANCH   4   6
ATOM      6  C   UNL     1      -0.074   1.409   0.062  0.00  0.00    +0.047 A 
ATOM      7  C   UNL     1       1.017   2.117   0.544  0.00  0.00    +0.024 A 
ATOM      8  C   UNL     1       1.032   3.498   0.471  0.00  0.00    +0.002 A 
ATOM      9  C   UNL     1      -0.037   4.177  -0.083  0.00  0.00    +0.001 A 
ATOM     10  C   UNL     1      -1.129   3.481  -0.566  0.00  0.00    +0.017 A 
ATOM     11  C   UNL     1      -1.151   2.095  -0.502  0.00  0.00    +0.034 A 
BRANCH  11  12
ATOM     12  S   UNL     1      -2.537   1.203  -1.124  0.00  0.00    -0.088 S 
BRANCH  12  13
ATOM     13  C   UNL     1      -3.609   2.458  -1.740  0.00  0.00    +0.013 A 
ATOM     14  C   UNL     1      -4.639   2.946  -0.945  0.00  0.00    +0.015 A 
ATOM     15  C   UNL     1      -5.474   3.934  -1.430  0.00  0.00    +0.001 A 
ATOM     16  C   UNL     1      -5.293   4.428  -2.709  0.00  0.00    +0.000 A 
ATOM     17  C   UNL     1      -4.273   3.941  -3.505  0.00  0.00    +0.001 A 
ATOM     18  C   UNL     1      -3.431   2.958  -3.025  0.00  0.00    +0.015 A 
ENDBRANCH  12  13
ENDBRANCH  11  12
ENDBRANCH   4   6
ENDBRANCH   1   2
BRANCH   1  20
ATOM     19  C   UNL     1       3.084  -2.326  -1.234  0.00  0.00    -0.095 C 
ATOM     20  N   UNL     1       2.433  -2.686   0.043  0.00  0.00    +0.388 N 
ATOM     21  H   UNL     1       2.951  -2.251   0.816  0.00  0.00    -0.081 HD
BRANCH  20  23
ATOM     22  C   UNL     1       1.832  -4.493   1.581  0.00  0.00    -0.008 C 
ATOM     23  C   UNL     1       2.446  -4.153   0.221  0.00  0.00    -0.041 C 
BRANCH  23  24
ATOM     24  C   UNL     1       3.871  -4.639   0.177  0.00  0.00    -0.061 A 
ATOM     25  C   UNL     1       4.874  -3.895   0.771  0.00  0.00    +0.004 A 
ATOM     26  C   UNL     1       6.181  -4.344   0.735  0.00  0.00    +0.029 A 
ATOM     27  C   UNL     1       6.487  -5.531   0.096  0.00  0.00    +0.105 A 
ATOM     28  C   UNL     1       5.485  -6.272  -0.501  0.00  0.00    +0.029 A 
ATOM     29  C   UNL     1       4.177  -5.827  -0.461  0.00  0.00    +0.004 A 
BRANCH  27  30
ATOM     30  S   UNL     1       8.154  -6.099   0.044  0.00  0.00    +0.056 S 
ATOM     31  O   UNL     1       8.822  -5.501   1.147  0.00  0.00    -0.153 OA
ATOM     32  O   UNL     1       8.098  -7.507  -0.140  0.00  0.00    -0.153 OA
BRANCH  30  33
ATOM     33  N   UNL     1       8.843  -5.470  -1.324  0.00  0.00    -0.204 NA
ATOM     34  H   UNL     1       9.794  -5.279  -1.345  0.00  0.00    +0.144 HD
ATOM     35  H   UNL     1       8.296  -5.294  -2.106  0.00  0.00    +0.144 HD
ENDBRANCH  30  33
ENDBRANCH  27  30
ENDBRANCH  23  24
ENDBRANCH  20  23
ENDBRANCH   1  20
TORSDOF 9
