REMARK  Name = ZINC67480786
REMARK  6 active torsions:
REMARK  status: ('A' for Active; 'I' for Inactive)
REMARK    1  A    between atoms: C_4  and  C_7
REMARK    2  A    between atoms: C_7  and  N_8
REMARK    3  A    between atoms: C_12  and  C_14
REMARK    4  A    between atoms: C_14  and  N_15
REMARK    5  A    between atoms: C_21  and  C_24
REMARK    6  A    between atoms: N_26  and  C_27
REMARK                            x       y       z     vdW  Elec       q    Type
REMARK                         _______ _______ _______ _____ _____    ______ ____
ROOT
ATOM      1  N   UNL     1       5.027  -0.130  -3.600  0.00  0.00    -0.301 N 
ATOM      2  C   UNL     1       5.532   0.968  -4.198  0.00  0.00    +0.302 C 
ATOM      3  O   UNL     1       5.346   1.153  -5.385  0.00  0.00    -0.253 OA
ATOM      4  N   UNL     1       6.243   1.859  -3.480  0.00  0.00    -0.286 N 
ATOM      5  C   UNL     1       6.695   3.118  -4.087  0.00  0.00    +0.110 C 
ATOM      6  C   UNL     1       8.208   3.248  -3.883  0.00  0.00    +0.032 C 
ATOM      7  C   UNL     1       8.532   3.116  -2.393  0.00  0.00    +0.078 C 
ATOM      8  C   UNL     1       8.093   1.738  -1.894  0.00  0.00    +0.032 C 
ATOM      9  C   UNL     1       6.574   1.593  -2.073  0.00  0.00    +0.110 C 
ATOM     10  H   UNL     1       5.110  -0.241  -2.640  0.00  0.00    +0.150 HD
ENDROOT
BRANCH   7  11
ATOM     11  C   UNL     1      10.016   3.277  -2.185  0.00  0.00    +0.216 C 
ATOM     12  O   UNL     1      10.743   3.477  -3.135  0.00  0.00    -0.276 OA
ATOM     13  N   UNL     1      10.535   3.199  -0.944  0.00  0.00    -0.312 N 
ATOM     14  H   UNL     1       9.953   3.038  -0.184  0.00  0.00    +0.149 HD
BRANCH  13  15
ATOM     15  C   UNL     1      11.977   3.355  -0.742  0.00  0.00    +0.073 C 
ATOM     16  C   UNL     1      12.666   2.380   0.215  0.00  0.00    +0.024 C 
ATOM     17  C   UNL     1      12.450   3.837   0.631  0.00  0.00    +0.024 C 
ENDBRANCH  13  15
ENDBRANCH   7  11
BRANCH   1  18
ATOM     18  C   UNL     1       4.352  -1.155  -4.400  0.00  0.00    +0.090 C 
BRANCH  18  23
ATOM     19  N   UNL     1       2.830  -1.897  -2.616  0.00  0.00    +0.383 N 
ATOM     20  C   UNL     1       1.651  -2.740  -2.909  0.00  0.00    -0.078 C 
ATOM     21  C   UNL     1       2.235  -4.041  -3.515  0.00  0.00    -0.020 C 
ATOM     22  C   UNL     1       3.420  -3.491  -4.353  0.00  0.00    -0.016 C 
ATOM     23  C   UNL     1       3.937  -2.317  -3.495  0.00  0.00    -0.051 C 
ATOM     24  H   UNL     1       3.099  -2.016  -1.651  0.00  0.00    -0.081 HD
BRANCH  19  25
ATOM     25  C   UNL     1       2.504  -0.487  -2.870  0.00  0.00    -0.075 C 
BRANCH  25  29
ATOM     26  C   UNL     1      -0.995   1.368  -1.126  0.00  0.00    +0.000 C 
ATOM     27  C   UNL     1       0.368   2.011  -0.864  0.00  0.00    +0.000 C 
ATOM     28  C   UNL     1       1.372   1.523  -1.911  0.00  0.00    +0.002 C 
ATOM     29  C   UNL     1       1.501   0.001  -1.823  0.00  0.00    -0.028 C 
ATOM     30  C   UNL     1       0.137  -0.642  -2.085  0.00  0.00    +0.002 C 
ATOM     31  C   UNL     1      -0.866  -0.154  -1.038  0.00  0.00    +0.000 C 
ENDBRANCH  25  29
ENDBRANCH  19  25
ENDBRANCH  18  23
ENDBRANCH   1  18
TORSDOF 6
