REMARK  Name = ZINC03840702
REMARK  17 active torsions:
REMARK  status: ('A' for Active; 'I' for Inactive)
REMARK    1  A    between atoms: C_1  and  C_2
REMARK    2  A    between atoms: C_2  and  N_3
REMARK    3  A    between atoms: N_3  and  C_4
REMARK    4  A    between atoms: C_4  and  C_5
REMARK    5  A    between atoms: C_6  and  C_8
REMARK    6  A    between atoms: C_8  and  C_10
REMARK    7  A    between atoms: C_8  and  C_11
REMARK    8  A    between atoms: C_15  and  C_38
REMARK    9  A    between atoms: C_20  and  C_22
REMARK   10  A    between atoms: C_22  and  O_23
REMARK   11  A    between atoms: O_23  and  C_24
REMARK   12  A    between atoms: C_24  and  C_26
REMARK   13  A    between atoms: C_26  and  C_27
REMARK   14  A    between atoms: C_26  and  C_28
REMARK   15  A    between atoms: C_26  and  C_29
REMARK   16  A    between atoms: C_30  and  C_37
REMARK   17  A    between atoms: C_34  and  O_36
REMARK                            x       y       z     vdW  Elec       q    Type
REMARK                         _______ _______ _______ _____ _____    ______ ____
ROOT
ATOM      1  C   UNL     1      -0.736   0.715   0.815  0.00  0.00    +0.029 C 
ATOM      2  C   UNL     1      -1.760   0.946  -0.301  0.00  0.00    +0.007 C 
ATOM      3  C   UNL     1      -2.698  -0.258  -0.362  0.00  0.00    +0.008 C 
ATOM      4  C   UNL     1      -3.444  -0.421   0.966  0.00  0.00    -0.022 C 
ATOM      5  C   UNL     1      -4.296  -1.701   0.855  0.00  0.00    +0.051 C 
ATOM      6  C   UNL     1      -4.737  -2.111   2.211  0.00  0.00    +0.014 A 
ATOM      7  C   UNL     1      -4.288  -1.652   3.409  0.00  0.00    +0.055 A 
ATOM      8  N   UNL     1      -4.867  -2.174   4.486  0.00  0.00    -0.245 NA
ATOM      9  C   UNL     1      -5.816  -3.075   4.406  0.00  0.00    +0.116 A 
ATOM     10  S   UNL     1      -5.983  -3.279   2.688  0.00  0.00    -0.073 S 
ATOM     11  C   UNL     1      -3.188  -0.603   3.460  0.00  0.00    +0.042 C 
ATOM     12  C   UNL     1      -2.446  -0.571   2.117  0.00  0.00    +0.033 C 
ATOM     13  C   UNL     1      -1.473   0.601   2.147  0.00  0.00    +0.123 C 
ATOM     14  C   UNL     1      -2.203  -0.952   4.578  0.00  0.00    +0.014 C 
ATOM     15  C   UNL     1      -4.347   0.789   1.210  0.00  0.00    +0.012 C 
ENDROOT
BRANCH   1  16
ATOM     16  C   UNL     1       0.036  -0.577   0.542  0.00  0.00    +0.078 C 
ATOM     17  C   UNL     1       1.151  -0.733   1.578  0.00  0.00    +0.017 C 
BRANCH  16  19
ATOM     18  N   UNL     1       0.936  -1.665  -1.488  0.00  0.00    -0.302 N 
ATOM     19  C   UNL     1       0.636  -0.523  -0.839  0.00  0.00    +0.219 C 
ATOM     20  O   UNL     1       0.849   0.549  -1.365  0.00  0.00    -0.275 OA
BRANCH  18  22
ATOM     21  C   UNL     1       2.956  -1.519  -2.860  0.00  0.00    +0.024 C 
ATOM     22  C   UNL     1       1.429  -1.615  -2.867  0.00  0.00    +0.104 C 
ENDBRANCH  18  22
BRANCH  18  23
ATOM     23  C   UNL     1       0.770  -2.956  -0.816  0.00  0.00    +0.104 C 
ATOM     24  C   UNL     1      -0.604  -3.536  -1.160  0.00  0.00    +0.024 C 
ENDBRANCH  18  23
ENDBRANCH  16  19
ENDBRANCH   1  16
BRANCH  13  25
ATOM     25  O   UNL     1      -0.524   0.412   3.198  0.00  0.00    -0.391 OA
ATOM     26  H   UNL     1       0.115   1.133   3.285  0.00  0.00    +0.210 HD
ENDBRANCH  13  25
BRANCH   9  27
ATOM     27  C   UNL     1      -6.567  -3.760   5.519  0.00  0.00    +0.294 C 
BRANCH  27  28
ATOM     28  O   UNL     1      -7.751  -2.987   5.850  0.00  0.00    -0.457 OA
BRANCH  28  29
ATOM     29  C   UNL     1      -8.536  -3.463   6.830  0.00  0.00    +0.313 C 
ATOM     30  O   UNL     1      -8.243  -4.493   7.391  0.00  0.00    -0.250 OA
BRANCH  29  31
ATOM     31  C   UNL     1      -9.781  -2.715   7.229  0.00  0.00    +0.059 C 
ATOM     32  C   UNL     1     -10.488  -3.467   8.358  0.00  0.00    +0.022 C 
ATOM     33  C   UNL     1      -9.402  -1.313   7.709  0.00  0.00    +0.022 C 
ATOM     34  C   UNL     1     -10.718  -2.605   6.024  0.00  0.00    +0.022 C 
ENDBRANCH  29  31
ENDBRANCH  28  29
ENDBRANCH  27  28
ENDBRANCH   9  27
TORSDOF 9
