REMARK  Name = ZINC04854600
REMARK  5 active torsions:
REMARK  status: ('A' for Active; 'I' for Inactive)
REMARK    1  A    between atoms: C_1  and  C_2
REMARK    2  A    between atoms: C_9  and  N_14
REMARK    3  A    between atoms: C_10  and  C_11
REMARK    4  A    between atoms: C_15  and  C_17
REMARK    5  A    between atoms: C_20  and  N_23
REMARK                            x       y       z     vdW  Elec       q    Type
REMARK                         _______ _______ _______ _____ _____    ______ ____
ROOT
ATOM      1  C   UNL     1       4.801  -2.538   0.039  0.00  0.00    +0.008 C 
ATOM      2  C   UNL     1       3.958  -1.296   0.337  0.00  0.00    -0.009 C 
ATOM      3  C   UNL     1       4.464  -0.117  -0.498  0.00  0.00    +0.008 C 
ATOM      4  C   UNL     1       3.798   1.177  -0.029  0.00  0.00    +0.037 C 
ATOM      5  C   UNL     1       2.288   0.974  -0.015  0.00  0.00    -0.023 A 
ATOM      6  C   UNL     1       1.753  -0.266  -0.016  0.00  0.00    -0.004 A 
ATOM      7  S   UNL     1       0.002  -0.004   0.002  0.00  0.00    -0.077 S 
ATOM      8  C   UNL     1      -0.021   1.728   0.011  0.00  0.00    +0.085 A 
ATOM      9  C   UNL     1       1.326   2.063   0.001  0.00  0.00    +0.068 A 
ATOM     10  C   UNL     1       2.492  -1.569  -0.029  0.00  0.00    +0.046 C 
ENDROOT
BRANCH   9  11
ATOM     11  C   UNL     1       1.762   3.463   0.004  0.00  0.00    +0.244 C 
ATOM     12  O   UNL     1       1.953   4.038   1.059  0.00  0.00    -0.270 OA
ATOM     13  N   UNL     1       1.950   4.112  -1.162  0.00  0.00    -0.325 N 
ATOM     14  H   UNL     1       1.798   3.654  -2.003  0.00  0.00    +0.145 HD
ATOM     15  H   UNL     1       2.239   5.038  -1.160  0.00  0.00    +0.145 HD
ENDBRANCH   9  11
BRANCH   8  16
ATOM     16  N   UNL     1      -1.119   2.574   0.022  0.00  0.00    -0.275 N 
ATOM     17  C   UNL     1      -2.365   2.062   0.026  0.00  0.00    +0.249 C 
ATOM     18  O   UNL     1      -2.526   0.857   0.020  0.00  0.00    -0.270 OA
ATOM     19  H   UNL     1      -0.990   3.536   0.026  0.00  0.00    +0.156 HD
BRANCH  17  20
ATOM     20  C   UNL     1      -3.534   2.963   0.036  0.00  0.00    +0.037 A 
ATOM     21  C   UNL     1      -3.350   4.348   0.048  0.00  0.00    +0.015 A 
ATOM     22  C   UNL     1      -4.443   5.186   0.053  0.00  0.00    +0.028 A 
ATOM     23  C   UNL     1      -5.728   4.655   0.057  0.00  0.00    +0.065 A 
ATOM     24  C   UNL     1      -5.915   3.277   0.051  0.00  0.00    +0.028 A 
ATOM     25  C   UNL     1      -4.827   2.433   0.041  0.00  0.00    +0.015 A 
BRANCH  23  26
ATOM     26  N   UNL     1      -6.835   5.509   0.067  0.00  0.00    -0.240 N 
ATOM     27  C   UNL     1      -6.799   6.867   0.079  0.00  0.00    +0.114 A 
ATOM     28  C   UNL     1      -8.077   7.311   0.083  0.00  0.00    +0.041 A 
ATOM     29  C   UNL     1      -8.921   6.195   0.082  0.00  0.00    +0.135 A 
ATOM     30  N   UNL     1      -8.180   5.117   0.072  0.00  0.00    -0.175 NA
ENDBRANCH  23  26
ENDBRANCH  17  20
ENDBRANCH   8  16
TORSDOF 4
