REMARK  Name = ZINC09891539
REMARK  12 active torsions:
REMARK  status: ('A' for Active; 'I' for Inactive)
REMARK    1  A    between atoms: C_1  and  S_2
REMARK    2  A    between atoms: S_2  and  N_5
REMARK    3  A    between atoms: N_5  and  C_6
REMARK    4  A    between atoms: C_6  and  C_7
REMARK    5  A    between atoms: C_7  and  C_8
REMARK    6  A    between atoms: C_11  and  C_13
REMARK    7  A    between atoms: N_15  and  C_16
REMARK    8  A    between atoms: C_16  and  C_17
REMARK    9  A    between atoms: C_17  and  N_18
REMARK   10  A    between atoms: N_18  and  C_19
REMARK   11  A    between atoms: C_22  and  C_28
REMARK   12  A    between atoms: C_24  and  N_25
REMARK                            x       y       z     vdW  Elec       q    Type
REMARK                         _______ _______ _______ _____ _____    ______ ____
ROOT
ATOM      1  C   UNL     1      -6.107   4.341   7.770  0.00  0.00    +0.251 C 
ATOM      2  O   UNL     1      -5.358   4.587   8.698  0.00  0.00    -0.270 OA
ATOM      3  N   UNL     1      -5.604   3.934   6.588  0.00  0.00    -0.309 N 
ATOM      4  H   UNL     1      -6.201   3.738   5.849  0.00  0.00    +0.149 HD
ENDROOT
BRANCH   1   8
ATOM      5  C   UNL     1     -10.215   4.604   7.761  0.00  0.00    -0.008 A 
ATOM      6  C   UNL     1      -9.635   4.941   8.943  0.00  0.00    +0.012 A 
ATOM      7  C   UNL     1      -8.268   4.890   9.058  0.00  0.00    +0.021 A 
ATOM      8  C   UNL     1      -7.556   4.489   7.939  0.00  0.00    +0.074 A 
ATOM      9  S   UNL     1      -8.860   4.206   6.755  0.00  0.00    -0.089 S 
BRANCH   5  10
ATOM     10  C   UNL     1     -11.680   4.587   7.408  0.00  0.00    +0.059 C 
BRANCH  10  11
ATOM     11  C   UNL     1     -12.087   5.953   6.854  0.00  0.00    +0.110 C 
BRANCH  11  12
ATOM     12  N   UNL     1     -13.511   5.936   6.510  0.00  0.00    -0.194 NA
ATOM     13  H   UNL     1     -13.983   5.092   6.441  0.00  0.00    +0.148 HD
BRANCH  12  15
ATOM     14  C   UNL     1     -13.544   8.056   4.754  0.00  0.00    +0.214 C 
ATOM     15  S   UNL     1     -14.315   7.359   6.241  0.00  0.00    +0.027 S 
ATOM     16  O   UNL     1     -15.654   6.972   5.964  0.00  0.00    -0.158 OA
ATOM     17  O   UNL     1     -14.013   8.165   7.372  0.00  0.00    -0.158 OA
ENDBRANCH  12  15
ENDBRANCH  11  12
ENDBRANCH  10  11
ENDBRANCH   5  10
ENDBRANCH   1   8
BRANCH   3  18
ATOM     18  C   UNL     1      -4.157   3.787   6.419  0.00  0.00    +0.123 C 
BRANCH  18  19
ATOM     19  C   UNL     1      -3.854   3.315   4.995  0.00  0.00    +0.120 C 
BRANCH  19  20
ATOM     20  N   UNL     1      -2.406   3.168   4.827  0.00  0.00    -0.341 N 
ATOM     21  H   UNL     1      -1.810   3.364   5.566  0.00  0.00    +0.146 HD
BRANCH  20  22
ATOM     22  C   UNL     1      -1.885   2.746   3.602  0.00  0.00    +0.058 A 
ATOM     23  C   UNL     1      -2.726   2.580   2.508  0.00  0.00    +0.026 A 
ATOM     24  C   UNL     1      -2.207   2.167   1.296  0.00  0.00    +0.014 A 
ATOM     25  C   UNL     1      -0.854   1.908   1.175  0.00  0.00    +0.057 A 
ATOM     26  C   UNL     1      -0.014   2.072   2.261  0.00  0.00    +0.047 A 
ATOM     27  C   UNL     1      -0.526   2.490   3.474  0.00  0.00    +0.147 A 
BRANCH  25  28
ATOM     28  C   UNL     1      -0.292   1.452  -0.147  0.00  0.00    +0.417 C 
ATOM     29  F   UNL     1      -0.321   0.054  -0.209  0.00  0.00    -0.166 F 
ATOM     30  F   UNL     1       1.029   1.896  -0.271  0.00  0.00    -0.166 F 
ATOM     31  F   UNL     1      -1.061   1.981  -1.189  0.00  0.00    -0.166 F 
ENDBRANCH  25  28
BRANCH  27  32
ATOM     32  N   UNL     1       0.373   2.665   4.637  0.00  0.00    +0.058 N 
ATOM     33  O   UNL     1       1.542   2.336   4.557  0.00  0.00    -0.126 OA
ATOM     34  O   UNL     1      -0.057   3.139   5.673  0.00  0.00    -0.126 OA
ENDBRANCH  27  32
ENDBRANCH  20  22
ENDBRANCH  19  20
ENDBRANCH  18  19
ENDBRANCH   3  18
TORSDOF 11
