REMARK  Name = ZINC13064993
REMARK  14 active torsions:
REMARK  status: ('A' for Active; 'I' for Inactive)
REMARK    1  A    between atoms: C_1  and  C_2
REMARK    2  A    between atoms: C_2  and  C_3
REMARK    3  A    between atoms: C_3  and  C_5
REMARK    4  A    between atoms: C_3  and  N_66
REMARK    5  A    between atoms: N_9  and  C_10
REMARK    6  A    between atoms: C_10  and  C_11
REMARK    7  A    between atoms: C_11  and  O_12
REMARK    8  A    between atoms: O_12  and  C_13
REMARK    9  A    between atoms: C_14  and  C_15
REMARK   10  A    between atoms: C_14  and  N_66
REMARK   11  A    between atoms: C_21  and  C_22
REMARK   12  A    between atoms: C_21  and  N_66
REMARK   13  A    between atoms: C_25  and  C_35
REMARK   14  A    between atoms: C_27  and  C_34
REMARK                            x       y       z     vdW  Elec       q    Type
REMARK                         _______ _______ _______ _____ _____    ______ ____
ROOT
ATOM      1  N   UNL     1       4.197  -1.139  -1.483  0.00  0.00    +0.392 N 
ATOM      2  H   UNL     1       4.372  -0.152  -1.703  0.00  0.00    -0.080 HD
ENDROOT
BRANCH   1   3
ATOM      3  C   UNL     1       3.101  -1.636  -2.341  0.00  0.00    +0.003 C 
BRANCH   3   4
ATOM      4  C   UNL     1       2.943  -3.127  -2.187  0.00  0.00    +0.138 A 
ATOM      5  N   UNL     1       3.906  -4.010  -2.092  0.00  0.00    -0.115 NA
ATOM      6  N   UNL     1       3.368  -5.175  -1.972  0.00  0.00    -0.023 NA
ATOM      7  N   UNL     1       2.086  -5.057  -1.987  0.00  0.00    -0.044 NA
ATOM      8  N   UNL     1       1.785  -3.809  -2.113  0.00  0.00    -0.229 N 
BRANCH   8   9
ATOM      9  C   UNL     1       0.435  -3.241  -2.168  0.00  0.00    +0.175 C 
BRANCH   9  10
ATOM     10  C   UNL     1      -0.071  -3.271  -3.612  0.00  0.00    +0.183 C 
BRANCH  10  11
ATOM     11  O   UNL     1      -1.387  -2.717  -3.666  0.00  0.00    -0.381 OA
ATOM     12  C   UNL     1      -1.956  -2.698  -4.977  0.00  0.00    +0.194 C 
ENDBRANCH  10  11
ENDBRANCH   9  10
ENDBRANCH   8   9
ENDBRANCH   3   4
BRANCH   3  14
ATOM     13  C   UNL     1       3.452   0.212  -3.986  0.00  0.00    +0.002 C 
ATOM     14  C   UNL     1       3.428  -1.307  -3.799  0.00  0.00    -0.011 C 
ENDBRANCH   3  14
ENDBRANCH   1   3
BRANCH   1  15
ATOM     15  C   UNL     1       3.815  -1.254  -0.060  0.00  0.00    -0.042 C 
BRANCH  15  16
ATOM     16  C   UNL     1       2.813  -0.175   0.261  0.00  0.00    -0.064 A 
ATOM     17  C   UNL     1       1.461  -0.461   0.248  0.00  0.00    +0.002 A 
ATOM     18  C   UNL     1       0.542   0.529   0.542  0.00  0.00    +0.000 A 
ATOM     19  C   UNL     1       0.975   1.805   0.849  0.00  0.00    +0.000 A 
ATOM     20  C   UNL     1       2.328   2.091   0.862  0.00  0.00    +0.000 A 
ATOM     21  C   UNL     1       3.247   1.102   0.568  0.00  0.00    +0.002 A 
ENDBRANCH  15  16
ENDBRANCH   1  15
BRANCH   1  22
ATOM     22  C   UNL     1       5.430  -1.914  -1.739  0.00  0.00    -0.036 C 
BRANCH  22  23
ATOM     23  C   UNL     1       6.611  -1.118  -1.245  0.00  0.00    +0.001 A 
ATOM     24  C   UNL     1       7.113  -1.353  -0.008  0.00  0.00    +0.017 A 
ATOM     25  C   UNL     1       8.261  -0.563   0.442  0.00  0.00    +0.002 A 
ATOM     26  C   UNL     1       8.823  -0.760   1.708  0.00  0.00    -0.041 A 
ATOM     27  C   UNL     1       9.894  -0.007   2.098  0.00  0.00    +0.007 A 
ATOM     28  C   UNL     1      10.429   0.953   1.249  0.00  0.00    -0.048 A 
ATOM     29  C   UNL     1       9.891   1.164  -0.002  0.00  0.00    +0.029 A 
ATOM     30  C   UNL     1       8.801   0.409  -0.421  0.00  0.00    +0.050 A 
ATOM     31  N   UNL     1       8.243   0.598  -1.668  0.00  0.00    -0.322 N 
ATOM     32  H   UNL     1       8.617   1.268  -2.261  0.00  0.00    +0.169 HD
ATOM     33  C   UNL     1       7.193  -0.136  -2.074  0.00  0.00    +0.251 A 
ATOM     34  O   UNL     1       6.729   0.056  -3.185  0.00  0.00    -0.268 OA
ATOM     35  C   UNL     1      11.611   1.772   1.701  0.00  0.00    +0.044 C 
ATOM     36  C   UNL     1       8.250  -1.799   2.637  0.00  0.00    +0.044 C 
ENDBRANCH  22  23
ENDBRANCH   1  22
TORSDOF 10
