REMARK  Name = ZINC06309508
REMARK  8 active torsions:
REMARK  status: ('A' for Active; 'I' for Inactive)
REMARK    1  A    between atoms: C_1  and  C_2
REMARK    2  A    between atoms: C_7  and  N_8
REMARK    3  A    between atoms: C_9  and  C_11
REMARK    4  A    between atoms: C_11  and  S_12
REMARK    5  A    between atoms: S_12  and  C_13
REMARK    6  A    between atoms: C_18  and  N_22
REMARK    7  A    between atoms: C_19  and  N_21
REMARK    8  A    between atoms: C_23  and  C_25
REMARK                            x       y       z     vdW  Elec       q    Type
REMARK                         _______ _______ _______ _____ _____    ______ ____
ROOT
ATOM      1  C   UNL     1       0.819   1.843   0.019  0.00  0.00    +0.171 A 
ATOM      2  N   UNL     1      -0.382   1.201   0.065  0.00  0.00    -0.300 N 
ATOM      3  H   UNL     1      -1.229   1.731   0.117  0.00  0.00    +0.171 HD
ATOM      4  C   UNL     1      -0.432  -0.147   0.040  0.00  0.00    +0.275 A 
ATOM      5  O   UNL     1      -1.504  -0.730   0.080  0.00  0.00    -0.266 OA
ATOM      6  C   UNL     1       0.770  -0.867  -0.034  0.00  0.00    +0.139 A 
ATOM      7  C   UNL     1       1.968  -0.161  -0.079  0.00  0.00    +0.146 A 
ATOM      8  N   UNL     1       1.952   1.176  -0.050  0.00  0.00    -0.207 NA
ENDROOT
BRANCH   6   9
ATOM      9  N   UNL     1       0.763  -2.275  -0.063  0.00  0.00    -0.272 N 
ATOM     10  C   UNL     1       0.222  -2.967   0.958  0.00  0.00    +0.284 C 
ATOM     11  O   UNL     1      -0.340  -2.378   1.864  0.00  0.00    -0.266 OA
ATOM     12  H   UNL     1       1.149  -2.746  -0.818  0.00  0.00    +0.155 HD
BRANCH  10  13
ATOM     13  C   UNL     1       0.308  -4.431   0.979  0.00  0.00    +0.189 A 
ATOM     14  C   UNL     1      -0.195  -5.251   1.949  0.00  0.00    +0.054 A 
ATOM     15  C   UNL     1       0.114  -6.566   1.565  0.00  0.00    +0.042 A 
ATOM     16  C   UNL     1       0.784  -6.492   0.394  0.00  0.00    +0.196 A 
ATOM     17  O   UNL     1       0.894  -5.204   0.042  0.00  0.00    -0.458 OA
ENDBRANCH  10  13
ENDBRANCH   6   9
BRANCH   7  18
ATOM     18  N   UNL     1       3.171  -0.840  -0.151  0.00  0.00    -0.341 N 
ATOM     19  H   UNL     1       3.181  -1.810  -0.171  0.00  0.00    +0.144 HD
ATOM     20  H   UNL     1       4.005  -0.346  -0.182  0.00  0.00    +0.144 HD
ENDBRANCH   7  18
BRANCH   1  21
ATOM     21  S   UNL     1       0.856   3.604   0.053  0.00  0.00    -0.078 S 
BRANCH  21  22
ATOM     22  C   UNL     1       2.643   3.882  -0.029  0.00  0.00    +0.173 C 
BRANCH  22  24
ATOM     23  N   UNL     1       4.193   5.810  -0.066  0.00  0.00    -0.285 N 
ATOM     24  C   UNL     1       2.922   5.363  -0.012  0.00  0.00    +0.227 C 
ATOM     25  O   UNL     1       2.004   6.153   0.049  0.00  0.00    -0.275 OA
ATOM     26  H   UNL     1       4.923   5.182  -0.179  0.00  0.00    +0.155 HD
BRANCH  23  33
ATOM     27  C   UNL     1       6.579   6.615   1.258  0.00  0.00    +0.045 C 
ATOM     28  C   UNL     1       5.611   7.616   0.682  0.00  0.00    -0.029 A 
ATOM     29  C   UNL     1       5.870   8.969   0.787  0.00  0.00    +0.005 A 
ATOM     30  C   UNL     1       4.982   9.887   0.258  0.00  0.00    +0.000 A 
ATOM     31  C   UNL     1       3.833   9.456  -0.378  0.00  0.00    +0.002 A 
ATOM     32  C   UNL     1       3.571   8.105  -0.492  0.00  0.00    +0.023 A 
ATOM     33  C   UNL     1       4.458   7.179   0.043  0.00  0.00    +0.036 A 
ENDBRANCH  23  33
ENDBRANCH  22  24
ENDBRANCH  21  22
ENDBRANCH   1  21
TORSDOF 7
