REMARK  Name = ZINC21030713
REMARK  6 active torsions:
REMARK  status: ('A' for Active; 'I' for Inactive)
REMARK    1  A    between atoms: C_10  and  C_12
REMARK    2  A    between atoms: C_12  and  N_13
REMARK    3  A    between atoms: N_13  and  C_14
REMARK    4  A    between atoms: N_13  and  S_20
REMARK    5  A    between atoms: C_14  and  C_15
REMARK    6  A    between atoms: S_20  and  C_23
REMARK                            x       y       z     vdW  Elec       q    Type
REMARK                         _______ _______ _______ _____ _____    ______ ____
ROOT
ATOM      1  N   UNL     1      -0.631   1.511   4.871  0.00  0.00    -0.160 NA
ENDROOT
BRANCH   1   2
ATOM      2  S   UNL     1       0.410   2.533   5.655  0.00  0.00    +0.064 S 
ATOM      3  O   UNL     1       1.213   1.723   6.502  0.00  0.00    -0.153 OA
ATOM      4  O   UNL     1       0.967   3.385   4.663  0.00  0.00    -0.153 OA
BRANCH   2   5
ATOM      5  C   UNL     1      -0.561   3.557   6.710  0.00  0.00    +0.140 A 
ATOM      6  C   UNL     1      -0.420   3.467   8.082  0.00  0.00    +0.031 A 
ATOM      7  C   UNL     1      -1.178   4.274   8.909  0.00  0.00    +0.002 A 
ATOM      8  C   UNL     1      -2.086   5.164   8.367  0.00  0.00    +0.003 A 
ATOM      9  C   UNL     1      -2.233   5.252   6.995  0.00  0.00    +0.040 A 
ATOM     10  C   UNL     1      -1.470   4.448   6.165  0.00  0.00    +0.150 A 
ATOM     11  F   UNL     1      -1.613   4.532   4.824  0.00  0.00    -0.203 F 
ENDBRANCH   2   5
ENDBRANCH   1   2
BRANCH   1  12
ATOM     12  C   UNL     1      -1.217   1.905   3.587  0.00  0.00    +0.206 C 
BRANCH  12  22
ATOM     13  C   UNL     1      -3.926   3.729  -0.423  0.00  0.00    +0.000 A 
ATOM     14  C   UNL     1      -3.838   3.671   0.956  0.00  0.00    +0.002 A 
ATOM     15  C   UNL     1      -2.810   2.976   1.556  0.00  0.00    +0.024 A 
ATOM     16  C   UNL     1      -1.849   2.327   0.777  0.00  0.00    +0.040 A 
ATOM     17  C   UNL     1      -1.947   2.393  -0.603  0.00  0.00    -0.024 A 
ATOM     18  C   UNL     1      -2.979   3.090  -1.201  0.00  0.00    +0.005 A 
ATOM     19  C   UNL     1      -0.797   1.615  -1.204  0.00  0.00    +0.056 C 
ATOM     20  C   UNL     1      -0.013   1.086   0.008  0.00  0.00    +0.118 C 
ATOM     21  N   UNL     1      -0.738   1.578   1.182  0.00  0.00    -0.270 N 
ATOM     22  C   UNL     1      -0.387   1.342   2.462  0.00  0.00    +0.236 C 
ATOM     23  O   UNL     1       0.597   0.677   2.708  0.00  0.00    -0.274 OA
ENDBRANCH  12  22
ENDBRANCH   1  12
BRANCH   1  24
ATOM     24  C   UNL     1      -0.966   0.212   5.461  0.00  0.00    +0.184 C 
BRANCH  24  25
ATOM     25  C   UNL     1      -0.062  -0.848   4.887  0.00  0.00    +0.120 A 
ATOM     26  C   UNL     1       1.128  -1.223   5.388  0.00  0.00    +0.046 A 
ATOM     27  C   UNL     1       1.628  -2.240   4.542  0.00  0.00    +0.041 A 
ATOM     28  C   UNL     1       0.713  -2.425   3.574  0.00  0.00    +0.195 A 
ATOM     29  O   UNL     1      -0.311  -1.583   3.791  0.00  0.00    -0.466 OA
ENDBRANCH  24  25
ENDBRANCH   1  24
TORSDOF 6
