REMARK  Name = ZINC15274986
REMARK  5 active torsions:
REMARK  status: ('A' for Active; 'I' for Inactive)
REMARK    1  A    between atoms: C_3  and  C_7
REMARK    2  A    between atoms: C_10  and  S_20
REMARK    3  A    between atoms: N_11  and  C_12
REMARK    4  A    between atoms: S_20  and  C_21
REMARK    5  A    between atoms: C_21  and  C_22
REMARK                            x       y       z     vdW  Elec       q    Type
REMARK                         _______ _______ _______ _____ _____    ______ ____
ROOT
ATOM      1  C   UNL     1      -3.433   1.093  -0.923  0.00  0.00    +0.171 A 
ATOM      2  N   UNL     1      -4.392   0.297  -0.510  0.00  0.00    -0.128 NA
ATOM      3  N   UNL     1      -4.049  -0.271   0.591  0.00  0.00    -0.122 NA
ATOM      4  C   UNL     1      -2.847   0.123   0.948  0.00  0.00    +0.197 A 
ATOM      5  N   UNL     1      -2.410   1.003  -0.004  0.00  0.00    -0.270 N 
ENDROOT
BRANCH   5   6
ATOM      6  C   UNL     1      -1.181   1.676  -0.036  0.00  0.00    +0.052 A 
ATOM      7  C   UNL     1      -0.004   0.968  -0.241  0.00  0.00    +0.028 A 
ATOM      8  C   UNL     1       1.205   1.633  -0.277  0.00  0.00    +0.023 A 
ATOM      9  C   UNL     1       1.246   3.006  -0.103  0.00  0.00    +0.059 A 
ATOM     10  C   UNL     1       0.076   3.714   0.107  0.00  0.00    +0.061 A 
ATOM     11  C   UNL     1      -1.137   3.052   0.143  0.00  0.00    +0.047 A 
ATOM     12 CL   UNL     1       0.131   5.436   0.326  0.00  0.00    -0.082 Cl
ATOM     13 CL   UNL     1       2.768   3.839  -0.149  0.00  0.00    -0.082 Cl
ENDBRANCH   5   6
BRANCH   1  16
ATOM     14  C   UNL     1      -2.323   3.211  -3.816  0.00  0.00    +0.020 A 
ATOM     15  C   UNL     1      -2.256   2.437  -2.670  0.00  0.00    +0.014 A 
ATOM     16  C   UNL     1      -3.447   1.926  -2.144  0.00  0.00    +0.038 A 
ATOM     17  C   UNL     1      -4.649   2.211  -2.794  0.00  0.00    +0.122 A 
ATOM     18  N   UNL     1      -4.662   2.957  -3.879  0.00  0.00    -0.263 NA
ATOM     19  C   UNL     1      -3.554   3.452  -4.398  0.00  0.00    +0.111 A 
ENDBRANCH   1  16
BRANCH   4  20
ATOM     20  S   UNL     1      -1.963  -0.387   2.384  0.00  0.00    -0.076 S 
BRANCH  20  21
ATOM     21  C   UNL     1      -3.171  -1.522   3.110  0.00  0.00    +0.173 C 
BRANCH  21  22
ATOM     22  C   UNL     1      -2.616  -2.098   4.387  0.00  0.00    +0.231 C 
ATOM     23  O   UNL     1      -1.512  -1.773   4.769  0.00  0.00    -0.274 OA
ATOM     24  N   UNL     1      -3.346  -2.974   5.106  0.00  0.00    -0.240 N 
ATOM     25  C   UNL     1      -2.849  -3.489   6.248  0.00  0.00    +0.303 C 
ATOM     26  O   UNL     1      -1.742  -3.163   6.630  0.00  0.00    -0.253 OA
ATOM     27  N   UNL     1      -3.579  -4.364   6.966  0.00  0.00    -0.313 N 
ATOM     28  H   UNL     1      -4.229  -3.233   4.801  0.00  0.00    +0.159 HD
ATOM     29  H   UNL     1      -4.463  -4.624   6.661  0.00  0.00    +0.146 HD
ATOM     30  H   UNL     1      -3.222  -4.735   7.788  0.00  0.00    +0.146 HD
ENDBRANCH  21  22
ENDBRANCH  20  21
ENDBRANCH   4  20
TORSDOF 5
