REMARK  Name = ZINC01819584
REMARK  7 active torsions:
REMARK  status: ('A' for Active; 'I' for Inactive)
REMARK    1  A    between atoms: C_5  and  C_7
REMARK    2  A    between atoms: C_9  and  O_21
REMARK    3  A    between atoms: O_21  and  C_22
REMARK    4  A    between atoms: C_22  and  C_24
REMARK    5  A    between atoms: C_24  and  C_25
REMARK    6  A    between atoms: C_25  and  C_26
REMARK    7  A    between atoms: C_26  and  N_27
REMARK                            x       y       z     vdW  Elec       q    Type
REMARK                         _______ _______ _______ _____ _____    ______ ____
ROOT
ATOM      1  C   UNL     1       1.248  -2.163  -0.022  0.00  0.00    +0.080 C 
ATOM      2  N   UNL     1       2.394  -2.737  -0.131  0.00  0.00    -0.232 NA
ATOM      3  C   UNL     1       2.529  -4.193  -0.157  0.00  0.00    +0.381 C 
ATOM      4  C   UNL     1       1.834  -4.725  -1.379  0.00  0.00    +0.281 C 
ATOM      5  O   UNL     1       2.485  -5.295  -2.229  0.00  0.00    -0.269 OA
ATOM      6  N   UNL     1       0.521  -4.588  -1.553  0.00  0.00    -0.280 N 
ATOM      7  C   UNL     1      -0.348  -4.010  -0.640  0.00  0.00    +0.043 A 
ATOM      8  C   UNL     1      -0.038  -2.868   0.101  0.00  0.00    +0.023 A 
ATOM      9  C   UNL     1      -0.979  -2.351   1.003  0.00  0.00    +0.027 A 
ATOM     10  C   UNL     1      -2.201  -2.965   1.168  0.00  0.00    +0.019 A 
ATOM     11  C   UNL     1      -2.508  -4.103   0.440  0.00  0.00    +0.017 A 
ATOM     12  C   UNL     1      -1.592  -4.620  -0.465  0.00  0.00    +0.025 A 
ATOM     13 BR   UNL     1      -3.459  -2.255   2.388  0.00  0.00    -0.050 Br
ATOM     14  H   UNL     1       0.143  -4.918  -2.383  0.00  0.00    +0.155 HD
ENDROOT
BRANCH   1  19
ATOM     15  C   UNL     1       1.778   1.402   1.041  0.00  0.00    +0.001 A 
ATOM     16  C   UNL     1       1.170   2.087   0.004  0.00  0.00    +0.001 A 
ATOM     17  C   UNL     1       0.587   1.395  -1.042  0.00  0.00    +0.020 A 
ATOM     18  C   UNL     1       0.608   0.014  -1.057  0.00  0.00    +0.050 A 
ATOM     19  C   UNL     1       1.221  -0.682  -0.013  0.00  0.00    +0.019 A 
ATOM     20  C   UNL     1       1.807   0.023   1.038  0.00  0.00    +0.011 A 
ATOM     21 CL   UNL     1      -0.125  -0.854  -2.369  0.00  0.00    -0.083 Cl
ENDBRANCH   1  19
BRANCH   3  22
ATOM     22  O   UNL     1       1.933  -4.749   1.017  0.00  0.00    -0.430 OA
BRANCH  22  23
ATOM     23  C   UNL     1       2.561  -4.529   2.182  0.00  0.00    +0.309 C 
ATOM     24  O   UNL     1       3.583  -3.885   2.206  0.00  0.00    -0.251 OA
BRANCH  23  25
ATOM     25  C   UNL     1       1.992  -5.085   3.462  0.00  0.00    +0.119 C 
BRANCH  25  26
ATOM     26  C   UNL     1       2.893  -4.693   4.634  0.00  0.00    -0.008 C 
BRANCH  26  27
ATOM     27  C   UNL     1       2.315  -5.258   5.934  0.00  0.00    -0.086 C 
BRANCH  27  28
ATOM     28  N   UNL     1       3.180  -4.881   7.059  0.00  0.00    +0.378 N 
ATOM     29  H   UNL     1       4.105  -5.255   6.912  0.00  0.00    -0.090 HD
ATOM     30  H   UNL     1       3.231  -3.875   7.123  0.00  0.00    -0.090 HD
ATOM     31  H   UNL     1       2.799  -5.253   7.916  0.00  0.00    -0.090 HD
ENDBRANCH  27  28
ENDBRANCH  26  27
ENDBRANCH  25  26
ENDBRANCH  23  25
ENDBRANCH  22  23
ENDBRANCH   3  22
TORSDOF 7
