REMARK  Name = ZINC08817599
REMARK  10 active torsions:
REMARK  status: ('A' for Active; 'I' for Inactive)
REMARK    1  A    between atoms: C_1  and  C_2
REMARK    2  A    between atoms: C_2  and  C_37
REMARK    3  A    between atoms: C_5  and  C_35
REMARK    4  A    between atoms: C_6  and  N_12
REMARK    5  A    between atoms: C_9  and  C_10
REMARK    6  A    between atoms: C_9  and  C_11
REMARK    7  A    between atoms: C_13  and  C_15
REMARK    8  A    between atoms: C_15  and  C_17
REMARK    9  A    between atoms: C_15  and  N_24
REMARK   10  A    between atoms: C_17  and  C_18
REMARK                            x       y       z     vdW  Elec       q    Type
REMARK                         _______ _______ _______ _____ _____    ______ ____
ROOT
ATOM      1  N   UNL     1       0.002  -0.004   0.002  0.00  0.00    -0.277 N 
ATOM      2  C   UNL     1      -0.016   1.344   0.009  0.00  0.00    +0.239 C 
ATOM      3  O   UNL     1      -1.075   1.936   0.018  0.00  0.00    -0.273 OA
ATOM      4  H   UNL     1       0.849  -0.478  -0.009  0.00  0.00    +0.155 HD
ENDROOT
BRANCH   1  10
ATOM      5  C   UNL     1      -4.340  -3.898   2.193  0.00  0.00    -0.010 C 
ATOM      6  C   UNL     1      -4.510  -4.163   0.694  0.00  0.00    -0.069 C 
ATOM      7  C   UNL     1      -3.148  -4.048   0.002  0.00  0.00    +0.024 C 
ATOM      8  C   UNL     1      -2.735  -2.583   0.009  0.00  0.00    -0.021 A 
ATOM      9  C   UNL     1      -1.373  -2.091   0.004  0.00  0.00    +0.084 A 
ATOM     10  C   UNL     1      -1.190  -0.714   0.010  0.00  0.00    +0.090 A 
ATOM     11  S   UNL     1      -2.811  -0.100   0.029  0.00  0.00    -0.078 S 
ATOM     12  C   UNL     1      -3.697  -1.631   0.020  0.00  0.00    -0.015 A 
ATOM     13  C   UNL     1      -5.175  -1.855   0.015  0.00  0.00    -0.041 C 
ATOM     14  C   UNL     1      -5.814  -1.074   1.171  0.00  0.00    -0.005 C 
ATOM     15  C   UNL     1      -5.744  -1.300  -1.304  0.00  0.00    -0.005 C 
ATOM     16  C   UNL     1      -5.001  -5.614   0.527  0.00  0.00    -0.010 C 
ATOM     17  N   UNL     1      -5.553  -3.295   0.092  0.00  0.00    +0.389 N 
ATOM     18  H   UNL     1      -6.406  -3.374   0.659  0.00  0.00    -0.084 HD
ATOM     19  H   UNL     1      -5.742  -3.630  -0.860  0.00  0.00    -0.084 HD
BRANCH   9  20
ATOM     20  C   UNL     1      -0.251  -2.981  -0.008  0.00  0.00    +0.102 C 
ATOM     21  N   UNL     1       0.639  -3.687  -0.018  0.00  0.00    -0.191 NA
ENDBRANCH   9  20
ENDBRANCH   1  10
BRANCH   2  22
ATOM     22  C   UNL     1       1.278   2.115   0.001  0.00  0.00    +0.175 C 
BRANCH  22  23
ATOM     23  N   UNL     1       0.991   3.551   0.012  0.00  0.00    -0.222 N 
ATOM     24  C   UNL     1       0.302   4.183   0.979  0.00  0.00    +0.255 C 
ATOM     25  O   UNL     1      -0.172   3.660   1.968  0.00  0.00    -0.270 OA
ATOM     26  C   UNL     1       0.223   5.619   0.640  0.00  0.00    +0.049 A 
ATOM     27  C   UNL     1      -0.346   6.727   1.248  0.00  0.00    +0.014 A 
ATOM     28  C   UNL     1      -0.242   7.971   0.644  0.00  0.00    +0.001 A 
ATOM     29  C   UNL     1       0.425   8.113  -0.558  0.00  0.00    +0.001 A 
ATOM     30  C   UNL     1       0.999   7.014  -1.177  0.00  0.00    +0.014 A 
ATOM     31  C   UNL     1       0.902   5.764  -0.586  0.00  0.00    +0.049 A 
ATOM     32  C   UNL     1       1.377   4.412  -0.948  0.00  0.00    +0.255 C 
ATOM     33  O   UNL     1       2.008   4.125  -1.945  0.00  0.00    -0.270 OA
ENDBRANCH  22  23
BRANCH  22  34
ATOM     34  C   UNL     1       2.098   1.749   1.241  0.00  0.00    +0.067 C 
BRANCH  34  35
ATOM     35  C   UNL     1       3.443   2.425   1.171  0.00  0.00    -0.045 A 
ATOM     36  C   UNL     1       4.508   1.784   0.569  0.00  0.00    +0.004 A 
ATOM     37  C   UNL     1       5.741   2.406   0.501  0.00  0.00    +0.000 A 
ATOM     38  C   UNL     1       5.911   3.665   1.044  0.00  0.00    +0.000 A 
ATOM     39  C   UNL     1       4.846   4.305   1.651  0.00  0.00    +0.000 A 
ATOM     40  C   UNL     1       3.612   3.685   1.715  0.00  0.00    +0.004 A 
ENDBRANCH  34  35
ENDBRANCH  22  34
ENDBRANCH   2  22
TORSDOF 6
