REMARK  Name = ZINC36610306
REMARK  12 active torsions:
REMARK  status: ('A' for Active; 'I' for Inactive)
REMARK    1  A    between atoms: C_1  and  C_2
REMARK    2  A    between atoms: C_2  and  C_3
REMARK    3  A    between atoms: C_2  and  C_4
REMARK    4  A    between atoms: C_2  and  N_5
REMARK    5  A    between atoms: C_6  and  C_8
REMARK    6  A    between atoms: C_8  and  C_10
REMARK    7  A    between atoms: C_8  and  N_20
REMARK    8  A    between atoms: C_13  and  C_16
REMARK    9  A    between atoms: N_20  and  C_21
REMARK   10  A    between atoms: C_27  and  C_29
REMARK   11  A    between atoms: C_33  and  O_36
REMARK   12  A    between atoms: C_34  and  O_35
REMARK                            x       y       z     vdW  Elec       q    Type
REMARK                         _______ _______ _______ _____ _____    ______ ____
ROOT
ATOM      1  C   UNL     1       2.982   0.120  -2.206  0.00  0.00    +0.197 C 
ENDROOT
BRANCH   1   2
ATOM      2  C   UNL     1       2.780   1.414  -2.951  0.00  0.00    -0.018 A 
ATOM      3  C   UNL     1       3.659   2.464  -2.765  0.00  0.00    +0.006 A 
ATOM      4  C   UNL     1       3.474   3.651  -3.449  0.00  0.00    +0.013 A 
ATOM      5  C   UNL     1       2.408   3.788  -4.319  0.00  0.00    +0.055 A 
ATOM      6  C   UNL     1       1.529   2.738  -4.506  0.00  0.00    +0.013 A 
ATOM      7  C   UNL     1       1.717   1.550  -3.825  0.00  0.00    +0.006 A 
BRANCH   5   8
ATOM      8  C   UNL     1       2.205   5.083  -5.064  0.00  0.00    +0.417 C 
ATOM      9  F   UNL     1       2.891   5.032  -6.282  0.00  0.00    -0.166 F 
ATOM     10  F   UNL     1       0.840   5.273  -5.304  0.00  0.00    -0.166 F 
ATOM     11  F   UNL     1       2.696   6.144  -4.296  0.00  0.00    -0.166 F 
ENDBRANCH   5   8
ENDBRANCH   1   2
BRANCH   1  13
ATOM     12  N   UNL     1       2.154   1.022  -0.057  0.00  0.00    -0.309 N 
ATOM     13  C   UNL     1       3.143   0.407  -0.736  0.00  0.00    +0.239 C 
ATOM     14  O   UNL     1       4.162   0.085  -0.163  0.00  0.00    -0.273 OA
ATOM     15  H   UNL     1       1.339   1.280  -0.515  0.00  0.00    +0.149 HD
BRANCH  12  17
ATOM     16  C   UNL     1       3.524   2.208   1.586  0.00  0.00    +0.031 C 
ATOM     17  C   UNL     1       2.310   1.302   1.373  0.00  0.00    +0.026 C 
ATOM     18  C   UNL     1       2.516  -0.012   2.129  0.00  0.00    +0.031 C 
ATOM     19  C   UNL     1       1.054   2.000   1.896  0.00  0.00    +0.031 C 
ENDBRANCH  12  17
ENDBRANCH   1  13
BRANCH   1  20
ATOM     20  N   UNL     1       4.185  -0.549  -2.707  0.00  0.00    -0.251 N 
ATOM     21  C   UNL     1       4.617  -1.685  -2.124  0.00  0.00    +0.255 C 
ATOM     22  O   UNL     1       5.513  -2.328  -2.636  0.00  0.00    -0.269 OA
BRANCH  20  23
ATOM     23  C   UNL     1       4.886  -0.009  -3.791  0.00  0.00    +0.038 A 
ATOM     24  C   UNL     1       6.113   0.610  -3.587  0.00  0.00    +0.023 A 
ATOM     25  C   UNL     1       6.802   1.142  -4.659  0.00  0.00    +0.002 A 
ATOM     26  C   UNL     1       6.272   1.060  -5.934  0.00  0.00    +0.000 A 
ATOM     27  C   UNL     1       5.050   0.445  -6.139  0.00  0.00    +0.002 A 
ATOM     28  C   UNL     1       4.359  -0.095  -5.073  0.00  0.00    +0.023 A 
ENDBRANCH  20  23
BRANCH  21  29
ATOM     29  C   UNL     1       4.002  -2.148  -0.866  0.00  0.00    +0.082 A 
ATOM     30  C   UNL     1       2.713  -1.732  -0.519  0.00  0.00    +0.017 A 
ATOM     31  C   UNL     1       2.142  -2.166   0.657  0.00  0.00    +0.005 A 
ATOM     32  C   UNL     1       2.839  -3.016   1.501  0.00  0.00    +0.049 A 
ATOM     33  C   UNL     1       4.115  -3.437   1.171  0.00  0.00    +0.159 A 
ATOM     34  C   UNL     1       4.704  -3.011  -0.016  0.00  0.00    +0.171 A 
BRANCH  34  35
ATOM     35  O   UNL     1       5.953  -3.426  -0.346  0.00  0.00    -0.503 OA
ATOM     36  H   UNL     1       6.658  -2.851  -0.018  0.00  0.00    +0.292 HD
ENDBRANCH  34  35
BRANCH  33  37
ATOM     37  O   UNL     1       4.793  -4.270   2.005  0.00  0.00    -0.503 OA
ATOM     38  H   UNL     1       4.650  -5.209   1.824  0.00  0.00    +0.292 HD
ENDBRANCH  33  37
ENDBRANCH  21  29
ENDBRANCH   1  20
TORSDOF 9
