REMARK  Name = ZINC49428503
REMARK  3 active torsions:
REMARK  status: ('A' for Active; 'I' for Inactive)
REMARK    1  A    between atoms: C_5  and  N_7
REMARK    2  A    between atoms: C_13  and  C_15
REMARK    3  A    between atoms: N_24  and  C_25
REMARK                            x       y       z     vdW  Elec       q    Type
REMARK                         _______ _______ _______ _____ _____    ______ ____
ROOT
ATOM      1  N   UNL     1      -1.650  -2.321   0.133  0.00  0.00    -0.325 N 
ATOM      2  C   UNL     1      -1.629  -3.044  -1.146  0.00  0.00    +0.124 C 
ATOM      3  C   UNL     1      -0.307  -3.815  -1.251  0.00  0.00    +0.126 C 
ATOM      4  N   UNL     1      -0.103  -4.570  -0.007  0.00  0.00    -0.298 N 
ATOM      5  C   UNL     1      -0.124  -3.847   1.272  0.00  0.00    +0.126 C 
ATOM      6  C   UNL     1      -1.441  -3.075   1.377  0.00  0.00    +0.124 C 
ATOM      7  C   UNL     1       0.099  -5.902  -0.038  0.00  0.00    +0.220 C 
ATOM      8  O   UNL     1       0.367  -6.499   0.983  0.00  0.00    -0.275 OA
ENDROOT
BRANCH   7   9
ATOM      9  C   UNL     1      -0.009  -6.650  -1.342  0.00  0.00    +0.093 C 
ATOM     10  C   UNL     1      -0.085  -8.153  -1.064  0.00  0.00    +0.016 C 
ATOM     11  C   UNL     1      -0.227  -8.912  -2.386  0.00  0.00    +0.020 C 
ATOM     12  C   UNL     1       1.002  -8.643  -3.260  0.00  0.00    +0.109 C 
ATOM     13  N   UNL     1       1.165  -7.190  -3.412  0.00  0.00    -0.285 N 
ATOM     14  C   UNL     1       1.222  -6.355  -2.205  0.00  0.00    +0.122 C 
ATOM     15  C   UNL     1       1.261  -6.635  -4.636  0.00  0.00    +0.307 C 
ATOM     16  O   UNL     1       1.487  -5.445  -4.748  0.00  0.00    -0.252 OA
ATOM     17  N   UNL     1       1.106  -7.397  -5.736  0.00  0.00    -0.264 N 
ATOM     18  H   UNL     1       0.999  -8.358  -5.650  0.00  0.00    +0.157 HD
BRANCH  17  19
ATOM     19  C   UNL     1       1.100  -6.805  -7.003  0.00  0.00    +0.073 A 
ATOM     20  C   UNL     1       0.953  -7.391  -8.223  0.00  0.00    +0.031 A 
ATOM     21  C   UNL     1       0.980  -6.593  -9.353  0.00  0.00    +0.009 A 
ATOM     22  C   UNL     1       1.152  -5.257  -9.211  0.00  0.00    +0.047 A 
ATOM     23  S   UNL     1       1.275  -5.083  -7.439  0.00  0.00    -0.082 S 
ENDBRANCH  17  19
ENDBRANCH   7   9
BRANCH   1  28
ATOM     24  C   UNL     1      -0.990   1.296   0.126  0.00  0.00    +0.002 A 
ATOM     25  C   UNL     1      -2.274   1.798   0.231  0.00  0.00    +0.003 A 
ATOM     26  C   UNL     1      -3.353   0.936   0.303  0.00  0.00    +0.040 A 
ATOM     27  C   UNL     1      -3.150  -0.431   0.271  0.00  0.00    +0.144 A 
ATOM     28  C   UNL     1      -1.859  -0.938   0.166  0.00  0.00    +0.065 A 
ATOM     29  C   UNL     1      -0.779  -0.069   0.094  0.00  0.00    +0.026 A 
ATOM     30  F   UNL     1      -4.204  -1.273   0.342  0.00  0.00    -0.204 F 
ENDBRANCH   1  28
TORSDOF 3
