REMARK  Name = ZINC36019460
REMARK  5 active torsions:
REMARK  status: ('A' for Active; 'I' for Inactive)
REMARK    1  A    between atoms: C_6  and  C_7
REMARK    2  A    between atoms: N_9  and  C_10
REMARK    3  A    between atoms: C_13  and  N_24
REMARK    4  A    between atoms: C_14  and  C_16
REMARK    5  A    between atoms: C_31  and  C_33
REMARK                            x       y       z     vdW  Elec       q    Type
REMARK                         _______ _______ _______ _____ _____    ______ ____
ROOT
ATOM      1  C   UNL     1      -3.497  -0.838  -0.161  0.00  0.00    +0.035 A 
ATOM      2  C   UNL     1      -3.648  -2.197   0.099  0.00  0.00    +0.025 A 
ATOM      3  C   UNL     1      -4.906  -2.755   0.183  0.00  0.00    +0.026 A 
ATOM      4  C   UNL     1      -6.034  -1.962   0.009  0.00  0.00    +0.042 A 
ATOM      5  C   UNL     1      -5.888  -0.591  -0.253  0.00  0.00    +0.060 A 
ATOM      6  C   UNL     1      -4.610  -0.034  -0.332  0.00  0.00    +0.038 A 
ENDROOT
BRANCH   4   7
ATOM      7  N   UNL     1      -7.302  -2.525   0.094  0.00  0.00    -0.328 N 
ATOM      8  C   UNL     1      -7.913  -3.059  -1.133  0.00  0.00    +0.107 C 
ATOM      9  C   UNL     1      -8.603  -4.407  -0.908  0.00  0.00    +0.038 C 
ATOM     10  C   UNL     1      -7.761  -5.285  -0.004  0.00  0.00    +0.109 C 
ATOM     11  N   UNL     1      -8.104  -4.969   1.382  0.00  0.00    -0.300 N 
ATOM     12  C   UNL     1      -7.568  -3.875   2.115  0.00  0.00    +0.126 C 
ATOM     13  C   UNL     1      -7.955  -2.563   1.391  0.00  0.00    +0.124 C 
ATOM     14  C   UNL     1      -8.991  -5.768   2.007  0.00  0.00    +0.219 C 
ATOM     15  O   UNL     1      -9.381  -5.488   3.120  0.00  0.00    -0.275 OA
BRANCH  14  16
ATOM     16  C   UNL     1      -9.498  -7.011   1.322  0.00  0.00    +0.075 C 
ATOM     17  C   UNL     1     -10.938  -6.996   0.805  0.00  0.00    +0.013 C 
ATOM     18  C   UNL     1     -10.578  -7.823   2.041  0.00  0.00    +0.013 C 
ENDBRANCH  14  16
ENDBRANCH   4   7
BRANCH   5  19
ATOM     19  C   UNL     1      -7.080   0.258  -0.439  0.00  0.00    +0.248 C 
ATOM     20  O   UNL     1      -7.957   0.267   0.403  0.00  0.00    -0.270 OA
ATOM     21  N   UNL     1      -7.195   1.024  -1.542  0.00  0.00    -0.297 N 
ATOM     22  C   UNL     1      -6.109   1.084  -2.529  0.00  0.00    +0.108 C 
ATOM     23  C   UNL     1      -6.681   0.752  -3.912  0.00  0.00    +0.019 C 
ATOM     24  C   UNL     1      -7.855   1.687  -4.211  0.00  0.00    +0.003 C 
ATOM     25  C   UNL     1      -8.956   1.475  -3.170  0.00  0.00    +0.019 C 
ATOM     26  C   UNL     1      -8.413   1.810  -1.782  0.00  0.00    +0.108 C 
ENDBRANCH   5  19
BRANCH   1  29
ATOM     27  C   UNL     1      -1.205  -0.991  -0.789  0.00  0.00    +0.248 C 
ATOM     28  O   UNL     1      -1.391  -2.140  -1.141  0.00  0.00    -0.270 OA
ATOM     29  N   UNL     1      -2.214  -0.281  -0.245  0.00  0.00    -0.281 N 
ATOM     30  H   UNL     1      -2.051   0.615   0.089  0.00  0.00    +0.155 HD
BRANCH  27  36
ATOM     31  C   UNL     1       0.340   0.946  -0.556  0.00  0.00    +0.017 A 
ATOM     32  C   UNL     1       1.582   1.522  -0.716  0.00  0.00    +0.050 A 
ATOM     33  C   UNL     1       2.622   0.793  -1.276  0.00  0.00    +0.166 A 
ATOM     34  C   UNL     1       2.413  -0.526  -1.681  0.00  0.00    +0.167 A 
ATOM     35  C   UNL     1       1.171  -1.108  -1.524  0.00  0.00    +0.062 A 
ATOM     36  C   UNL     1       0.124  -0.373  -0.959  0.00  0.00    +0.041 A 
ATOM     37  O   UNL     1       3.581  -1.014  -2.194  0.00  0.00    -0.453 OA
ATOM     38  C   UNL     1       4.389   0.144  -2.475  0.00  0.00    +0.466 C 
ATOM     39  O   UNL     1       3.918   1.128  -1.536  0.00  0.00    -0.453 OA
ENDBRANCH  27  36
ENDBRANCH   1  29
TORSDOF 5
