REMARK  Name = ZINC15040493
REMARK  6 active torsions:
REMARK  status: ('A' for Active; 'I' for Inactive)
REMARK    1  A    between atoms: C_1  and  C_2
REMARK    2  A    between atoms: C_2  and  C_4
REMARK    3  A    between atoms: C_2  and  N_13
REMARK    4  A    between atoms: C_14  and  C_16
REMARK    5  A    between atoms: C_16  and  C_17
REMARK    6  A    between atoms: C_17  and  C_18
REMARK                            x       y       z     vdW  Elec       q    Type
REMARK                         _______ _______ _______ _____ _____    ______ ____
ROOT
ATOM      1  C   UNL     1       5.699   3.062   2.325  0.00  0.00    +0.103 C 
ENDROOT
BRANCH   1   3
ATOM      2  N   UNL     1       4.034   1.964   0.862  0.00  0.00    -0.306 N 
ATOM      3  C   UNL     1       5.266   1.946   1.410  0.00  0.00    +0.214 C 
ATOM      4  O   UNL     1       6.025   1.033   1.166  0.00  0.00    -0.276 OA
ATOM      5  H   UNL     1       3.427   2.695   1.057  0.00  0.00    +0.149 HD
BRANCH   2   7
ATOM      6  C   UNL     1       4.091   1.172  -1.451  0.00  0.00    +0.036 C 
ATOM      7  C   UNL     1       3.613   0.879  -0.028  0.00  0.00    +0.136 C 
BRANCH   7   8
ATOM      8  C   UNL     1       2.110   0.773  -0.014  0.00  0.00    +0.126 A 
ATOM      9  C   UNL     1       1.422  -0.377  -0.013  0.00  0.00    +0.055 A 
ATOM     10  C   UNL     1       0.002  -0.004   0.002  0.00  0.00    +0.020 A 
ATOM     11  C   UNL     1      -1.194  -0.720   0.010  0.00  0.00    +0.011 A 
ATOM     12  C   UNL     1      -2.385  -0.050   0.025  0.00  0.00    +0.001 A 
ATOM     13  C   UNL     1      -2.411   1.337   0.034  0.00  0.00    +0.004 A 
ATOM     14  C   UNL     1      -1.238   2.062   0.030  0.00  0.00    +0.047 A 
ATOM     15  C   UNL     1      -0.017   1.401   0.010  0.00  0.00    +0.135 A 
ATOM     16  O   UNL     1       1.265   1.819  -0.000  0.00  0.00    -0.458 OA
ENDBRANCH   7   8
ENDBRANCH   2   7
ENDBRANCH   1   3
BRANCH   1  17
ATOM     17  C   UNL     1       7.128   2.802   2.806  0.00  0.00    +0.083 C 
BRANCH  17  18
ATOM     18  C   UNL     1       7.561   3.918   3.721  0.00  0.00    +0.111 A 
ATOM     19  N   UNL     1       8.804   3.888   4.266  0.00  0.00    -0.310 N 
ATOM     20  H   UNL     1       9.397   3.149   4.059  0.00  0.00    +0.170 HD
ATOM     21  C   UNL     1       9.232   4.864   5.089  0.00  0.00    +0.260 A 
ATOM     22  O   UNL     1      10.351   4.823   5.571  0.00  0.00    -0.267 OA
ATOM     23  C   UNL     1       8.349   5.953   5.389  0.00  0.00    +0.075 A 
ATOM     24  C   UNL     1       8.594   7.112   6.247  0.00  0.00    -0.023 A 
ATOM     25  C   UNL     1       7.592   8.007   6.368  0.00  0.00    -0.004 A 
ATOM     26  S   UNL     1       6.281   7.368   5.360  0.00  0.00    -0.073 S 
ATOM     27  C   UNL     1       7.086   5.897   4.778  0.00  0.00    +0.116 A 
ATOM     28  N   UNL     1       6.736   4.899   3.971  0.00  0.00    -0.227 NA
ATOM     29  C   UNL     1       7.593   9.267   7.180  0.00  0.00    +0.043 C 
ATOM     30  C   UNL     1       8.775   9.211   8.158  0.00  0.00    +0.005 C 
ATOM     31  C   UNL     1      10.030   8.787   7.389  0.00  0.00    +0.005 C 
ATOM     32  C   UNL     1       9.917   7.318   6.980  0.00  0.00    +0.037 C 
ENDBRANCH  17  18
ENDBRANCH   1  17
TORSDOF 5
