REMARK  Name = ZINC29489683
REMARK  5 active torsions:
REMARK  status: ('A' for Active; 'I' for Inactive)
REMARK    1  A    between atoms: C_4  and  N_7
REMARK    2  A    between atoms: C_8  and  C_19
REMARK    3  A    between atoms: C_10  and  C_12
REMARK    4  A    between atoms: N_21  and  N_22
REMARK    5  A    between atoms: C_23  and  C_25
REMARK                            x       y       z     vdW  Elec       q    Type
REMARK                         _______ _______ _______ _____ _____    ______ ____
ROOT
ATOM      1  N   UNL     1       2.576   1.308  -0.169  0.00  0.00    -0.227 N 
ATOM      2  C   UNL     1       1.413   2.021  -0.290  0.00  0.00    +0.131 A 
ATOM      3  C   UNL     1       1.737   3.342  -0.044  0.00  0.00    +0.063 A 
ATOM      4  C   UNL     1       3.121   3.343   0.213  0.00  0.00    +0.094 A 
ATOM      5  N   UNL     1       3.546   2.100   0.117  0.00  0.00    -0.166 NA
ENDROOT
BRANCH   4   6
ATOM      6  C   UNL     1       3.951   4.531   0.534  0.00  0.00    +0.002 A 
ATOM      7  C   UNL     1       3.368   5.795   0.597  0.00  0.00    +0.011 A 
ATOM      8  C   UNL     1       4.144   6.895   0.900  0.00  0.00    +0.020 A 
ATOM      9  C   UNL     1       5.500   6.747   1.132  0.00  0.00    +0.041 A 
ATOM     10  C   UNL     1       6.085   5.494   1.065  0.00  0.00    +0.020 A 
ATOM     11  C   UNL     1       5.317   4.386   0.767  0.00  0.00    +0.011 A 
ATOM     12 CL   UNL     1       6.472   8.136   1.506  0.00  0.00    -0.084 Cl
ENDBRANCH   4   6
BRANCH   1  16
ATOM     13  C   UNL     1       2.921  -2.815  -0.664  0.00  0.00    +0.000 A 
ATOM     14  C   UNL     1       3.849  -1.970  -1.245  0.00  0.00    +0.002 A 
ATOM     15  C   UNL     1       3.738  -0.603  -1.083  0.00  0.00    +0.028 A 
ATOM     16  C   UNL     1       2.692  -0.077  -0.335  0.00  0.00    +0.066 A 
ATOM     17  C   UNL     1       1.764  -0.928   0.251  0.00  0.00    +0.028 A 
ATOM     18  C   UNL     1       1.878  -2.294   0.081  0.00  0.00    +0.002 A 
ENDBRANCH   1  16
BRANCH   2  19
ATOM     19  C   UNL     1       0.082   1.486  -0.613  0.00  0.00    +0.279 C 
ATOM     20  O   UNL     1      -0.046   0.315  -0.918  0.00  0.00    -0.267 OA
ATOM     21  N   UNL     1      -0.998   2.291  -0.565  0.00  0.00    -0.229 N 
ATOM     22  H   UNL     1      -0.896   3.326  -0.208  0.00  0.00    +0.173 HD
BRANCH  21  23
ATOM     23  N   UNL     1      -2.250   1.809  -0.969  0.00  0.00    -0.230 N 
ATOM     24  C   UNL     1      -3.329   2.615  -0.921  0.00  0.00    +0.262 C 
ATOM     25  O   UNL     1      -3.217   3.759  -0.527  0.00  0.00    -0.269 OA
ATOM     26  H   UNL     1      -2.352   0.774  -1.326  0.00  0.00    +0.173 HD
BRANCH  24  27
ATOM     27  C   UNL     1      -4.650   2.106  -1.348  0.00  0.00    +0.056 A 
ATOM     28  C   UNL     1      -5.781   2.931  -1.297  0.00  0.00    +0.016 A 
ATOM     29  C   UNL     1      -6.993   2.409  -1.712  0.00  0.00    +0.020 A 
ATOM     30  C   UNL     1      -7.050   1.098  -2.151  0.00  0.00    +0.111 A 
ATOM     31  N   UNL     1      -5.969   0.342  -2.183  0.00  0.00    -0.263 NA
ATOM     32  C   UNL     1      -4.793   0.795  -1.803  0.00  0.00    +0.123 A 
ENDBRANCH  24  27
ENDBRANCH  21  23
ENDBRANCH   2  19
TORSDOF 5
