REMARK  Name = ZINC51113683
REMARK  11 active torsions:
REMARK  status: ('A' for Active; 'I' for Inactive)
REMARK    1  A    between atoms: C_1  and  C_2
REMARK    2  A    between atoms: C_2  and  C_3
REMARK    3  A    between atoms: C_3  and  C_4
REMARK    4  A    between atoms: C_4  and  C_5
REMARK    5  A    between atoms: C_5  and  C_6
REMARK    6  A    between atoms: C_6  and  C_7
REMARK    7  A    between atoms: C_7  and  C_9
REMARK    8  A    between atoms: C_7  and  N_10
REMARK    9  A    between atoms: C_11  and  C_13
REMARK   10  A    between atoms: C_18  and  N_19
REMARK   11  A    between atoms: N_19  and  N_20
REMARK                            x       y       z     vdW  Elec       q    Type
REMARK                         _______ _______ _______ _____ _____    ______ ____
ROOT
ATOM      1  N   UNL     1       1.425  -4.110  -4.964  0.00  0.00    -0.309 N 
ATOM      2  C   UNL     1       2.037  -3.997  -6.160  0.00  0.00    +0.248 C 
ATOM      3  O   UNL     1       3.232  -4.204  -6.253  0.00  0.00    -0.270 OA
ATOM      4  H   UNL     1       0.472  -3.945  -4.889  0.00  0.00    +0.149 HD
ENDROOT
BRANCH   2   5
ATOM      5  C   UNL     1       1.258  -3.622  -7.354  0.00  0.00    +0.079 A 
ATOM      6  C   UNL     1      -0.135  -3.501  -7.287  0.00  0.00    +0.033 A 
ATOM      7  C   UNL     1      -0.820  -3.146  -8.436  0.00  0.00    +0.037 A 
ATOM      8  C   UNL     1      -0.117  -2.923  -9.607  0.00  0.00    +0.128 A 
ATOM      9  N   UNL     1       1.196  -3.042  -9.649  0.00  0.00    -0.237 NA
ATOM     10  C   UNL     1       1.901  -3.374  -8.578  0.00  0.00    +0.144 A 
ATOM     11 BR   UNL     1      -2.703  -2.968  -8.406  0.00  0.00    -0.049 Br
BRANCH  10  12
ATOM     12  N   UNL     1       3.276  -3.482  -8.667  0.00  0.00    -0.267 N 
ATOM     13  H   UNL     1       3.787  -3.805  -7.909  0.00  0.00    +0.167 HD
BRANCH  12  14
ATOM     14  N   UNL     1       3.916  -3.133  -9.823  0.00  0.00    -0.255 NA
ATOM     15  H   UNL     1       3.697  -2.183 -10.084  0.00  0.00    +0.140 HD
ATOM     16  H   UNL     1       4.913  -3.264  -9.738  0.00  0.00    +0.140 HD
ENDBRANCH  12  14
ENDBRANCH  10  12
ENDBRANCH   2   5
BRANCH   1  17
ATOM     17  C   UNL     1       2.199  -4.483  -3.778  0.00  0.00    +0.070 C 
ATOM     18  C   UNL     1       2.312  -6.007  -3.700  0.00  0.00    +0.028 C 
BRANCH  17  19
ATOM     19  C   UNL     1       1.496  -3.959  -2.524  0.00  0.00    +0.022 C 
BRANCH  19  20
ATOM     20  C   UNL     1       1.494  -2.429  -2.542  0.00  0.00    +0.002 C 
BRANCH  20  21
ATOM     21  C   UNL     1       0.790  -1.905  -1.289  0.00  0.00    +0.000 C 
BRANCH  21  22
ATOM     22  C   UNL     1       0.789  -0.375  -1.307  0.00  0.00    -0.000 C 
BRANCH  22  24
ATOM     23  C   UNL     1       0.083   1.679  -0.072  0.00  0.00    +0.004 C 
ATOM     24  C   UNL     1       0.085   0.150  -0.054  0.00  0.00    -0.003 C 
ENDBRANCH  22  24
ENDBRANCH  21  22
ENDBRANCH  20  21
ENDBRANCH  19  20
ENDBRANCH  17  19
ENDBRANCH   1  17
TORSDOF 9
