REMARK  Name = ZINC03050968
REMARK  5 active torsions:
REMARK  status: ('A' for Active; 'I' for Inactive)
REMARK    1  A    between atoms: C_1  and  C_2
REMARK    2  A    between atoms: C_7  and  C_8
REMARK    3  A    between atoms: N_9  and  C_20
REMARK    4  A    between atoms: C_10  and  C_12
REMARK    5  A    between atoms: C_20  and  C_21
REMARK                            x       y       z     vdW  Elec       q    Type
REMARK                         _______ _______ _______ _____ _____    ______ ____
ROOT
ATOM      1  C   UNL     1       0.801   1.515  -1.281  0.00  0.00    +0.044 C 
ATOM      2  C   UNL     1       0.583   0.068  -0.920  0.00  0.00    -0.045 A 
ATOM      3  C   UNL     1       0.457  -0.873  -1.916  0.00  0.00    +0.033 A 
ATOM      4  C   UNL     1       0.254  -2.216  -1.582  0.00  0.00    +0.090 A 
ATOM      5  C   UNL     1       0.182  -2.588  -0.228  0.00  0.00    +0.070 A 
ATOM      6  C   UNL     1       0.312  -1.625   0.762  0.00  0.00    +0.031 A 
ATOM      7  C   UNL     1       0.516  -0.306   0.415  0.00  0.00    -0.045 A 
ATOM      8  C   UNL     1       0.662   0.738   1.492  0.00  0.00    +0.044 C 
ATOM      9  N   UNL     1      -0.019  -3.955  -0.214  0.00  0.00    -0.319 N 
ATOM     10  C   UNL     1      -0.064  -4.371  -1.517  0.00  0.00    +0.144 A 
ATOM     11  N   UNL     1       0.097  -3.344  -2.317  0.00  0.00    -0.227 NA
ENDROOT
BRANCH  10  12
ATOM     12  C   UNL     1      -0.264  -5.768  -1.958  0.00  0.00    +0.034 A 
ATOM     13  C   UNL     1       0.647  -6.776  -1.563  0.00  0.00    +0.018 A 
ATOM     14  C   UNL     1       0.440  -8.054  -1.982  0.00  0.00    +0.071 A 
ATOM     15  C   UNL     1      -0.671  -8.345  -2.795  0.00  0.00    +0.249 A 
ATOM     16  O   UNL     1      -0.861  -9.489  -3.173  0.00  0.00    -0.268 OA
ATOM     17  N   UNL     1      -1.525  -7.370  -3.158  0.00  0.00    -0.328 N 
ATOM     18  H   UNL     1      -2.286  -7.587  -3.719  0.00  0.00    +0.168 HD
ATOM     19  C   UNL     1      -1.341  -6.098  -2.750  0.00  0.00    +0.097 A 
ENDBRANCH  10  12
BRANCH   9  20
ATOM     20  C   UNL     1      -0.159  -4.801   0.974  0.00  0.00    +0.159 C 
BRANCH  20  21
ATOM     21  C   UNL     1      -1.611  -4.877   1.369  0.00  0.00    -0.028 A 
ATOM     22  C   UNL     1      -2.152  -3.917   2.203  0.00  0.00    +0.007 A 
ATOM     23  C   UNL     1      -3.484  -3.986   2.565  0.00  0.00    +0.020 A 
ATOM     24  C   UNL     1      -4.276  -5.017   2.093  0.00  0.00    +0.041 A 
ATOM     25  C   UNL     1      -3.734  -5.979   1.259  0.00  0.00    +0.020 A 
ATOM     26  C   UNL     1      -2.404  -5.905   0.892  0.00  0.00    +0.007 A 
ATOM     27 CL   UNL     1      -5.949  -5.105   2.549  0.00  0.00    -0.084 Cl
ENDBRANCH  20  21
ENDBRANCH   9  20
TORSDOF 3
