REMARK  Name = ZINC40799027
REMARK  6 active torsions:
REMARK  status: ('A' for Active; 'I' for Inactive)
REMARK    1  A    between atoms: C_1  and  C_2
REMARK    2  A    between atoms: C_2  and  C_3
REMARK    3  A    between atoms: C_2  and  N_4
REMARK    4  A    between atoms: C_11  and  C_12
REMARK    5  A    between atoms: N_14  and  C_15
REMARK    6  A    between atoms: C_16  and  C_24
REMARK                            x       y       z     vdW  Elec       q    Type
REMARK                         _______ _______ _______ _____ _____    ______ ____
ROOT
ATOM      1  C   UNL     1      -1.960   0.297   2.155  0.00  0.00    +0.265 C 
ATOM      2  O   UNL     1      -2.839   0.603   2.939  0.00  0.00    -0.268 OA
ATOM      3  N   UNL     1      -0.687   0.673   2.389  0.00  0.00    -0.274 N 
ATOM      4  H   UNL     1       0.001   0.495   1.729  0.00  0.00    +0.156 HD
ENDROOT
BRANCH   3   5
ATOM      5  C   UNL     1      -0.360   1.315   3.574  0.00  0.00    +0.090 A 
ATOM      6  C   UNL     1       0.882   1.774   3.980  0.00  0.00    +0.084 A 
ATOM      7  C   UNL     1       0.961   2.418   5.279  0.00  0.00    -0.018 A 
ATOM      8  C   UNL     1      -0.218   2.485   5.935  0.00  0.00    -0.004 A 
ATOM      9  S   UNL     1      -1.382   1.720   4.844  0.00  0.00    -0.077 S 
ATOM     10  C   UNL     1      -0.464   3.083   7.285  0.00  0.00    +0.043 C 
ATOM     11  C   UNL     1       0.891   3.276   7.981  0.00  0.00    +0.005 C 
ATOM     12  C   UNL     1       1.857   3.955   7.006  0.00  0.00    +0.005 C 
ATOM     13  C   UNL     1       2.236   2.983   5.886  0.00  0.00    +0.037 C 
BRANCH   6  14
ATOM     14  C   UNL     1       2.041   1.620   3.152  0.00  0.00    +0.102 C 
ATOM     15  N   UNL     1       2.960   1.497   2.496  0.00  0.00    -0.191 NA
ENDBRANCH   6  14
ENDBRANCH   3   5
BRANCH   1  23
ATOM     16  N   UNL     1      -3.519  -1.015   0.653  0.00  0.00    -0.333 N 
ATOM     17  C   UNL     1      -3.441  -1.682  -0.568  0.00  0.00    +0.057 A 
ATOM     18  C   UNL     1      -4.283  -2.407  -1.421  0.00  0.00    +0.034 A 
ATOM     19  C   UNL     1      -3.800  -2.919  -2.574  0.00  0.00    +0.048 A 
ATOM     20  S   UNL     1      -2.091  -2.407  -2.542  0.00  0.00    -0.095 S 
ATOM     21  C   UNL     1      -2.115  -1.540  -0.994  0.00  0.00    +0.038 A 
ATOM     22  C   UNL     1      -1.408  -0.806  -0.055  0.00  0.00    +0.048 A 
ATOM     23  C   UNL     1      -2.285  -0.481   0.958  0.00  0.00    +0.106 A 
BRANCH  16  25
ATOM     24  C   UNL     1      -5.856  -0.296   0.645  0.00  0.00    +0.030 C 
ATOM     25  C   UNL     1      -4.723  -0.895   1.480  0.00  0.00    +0.082 C 
ATOM     26  C   UNL     1      -5.136  -2.280   1.982  0.00  0.00    +0.030 C 
ENDBRANCH  16  25
ENDBRANCH   1  23
TORSDOF 4
