REMARK  Name = ZINC20208405
REMARK  11 active torsions:
REMARK  status: ('A' for Active; 'I' for Inactive)
REMARK    1  A    between atoms: C_1  and  C_2
REMARK    2  A    between atoms: C_2  and  O_3
REMARK    3  A    between atoms: O_3  and  C_4
REMARK    4  A    between atoms: C_6  and  C_19
REMARK    5  A    between atoms: C_9  and  O_10
REMARK    6  A    between atoms: O_10  and  C_11
REMARK    7  A    between atoms: C_11  and  C_12
REMARK    8  A    between atoms: C_17  and  C_18
REMARK    9  A    between atoms: C_29  and  S_31
REMARK   10  A    between atoms: S_31  and  C_34
REMARK   11  A    between atoms: C_34  and  C_35
REMARK                            x       y       z     vdW  Elec       q    Type
REMARK                         _______ _______ _______ _____ _____    ______ ____
ROOT
ATOM      1  C   UNL     1       0.908  -1.779  -1.022  0.00  0.00    +0.162 A 
ATOM      2  C   UNL     1       0.453  -2.664  -0.065  0.00  0.00    +0.057 A 
ATOM      3  C   UNL     1       0.352  -4.029  -0.370  0.00  0.00    -0.021 A 
ATOM      4  C   UNL     1       0.713  -4.486  -1.645  0.00  0.00    +0.012 A 
ATOM      5  C   UNL     1       1.165  -3.595  -2.592  0.00  0.00    +0.050 A 
ATOM      6  C   UNL     1       1.260  -2.242  -2.290  0.00  0.00    +0.162 A 
ENDROOT
BRANCH   3   7
ATOM      7  C   UNL     1      -0.129  -4.973   0.640  0.00  0.00    +0.024 C 
ATOM      8  C   UNL     1       0.360  -6.260   0.668  0.00  0.00    +0.081 C 
ATOM      9  C   UNL     1       1.506  -6.683  -0.186  0.00  0.00    +0.153 C 
ATOM     10  N   UNL     1       2.490  -5.888  -0.512  0.00  0.00    -0.283 NA
ATOM     11  N   UNL     1       1.424  -8.027  -0.608  0.00  0.00    -0.150 N 
ATOM     12  C   UNL     1       0.662  -8.888   0.153  0.00  0.00    +0.182 C 
ATOM     13  N   UNL     1      -0.086  -8.591   1.186  0.00  0.00    -0.152 NA
ATOM     14  C   UNL     1      -0.221  -7.299   1.554  0.00  0.00    +0.273 C 
ATOM     15  O   UNL     1      -0.806  -6.993   2.581  0.00  0.00    -0.268 OA
ATOM     16  S   UNL     1       0.951 -10.445  -0.644  0.00  0.00    -0.015 S 
ATOM     17  C   UNL     1       1.972  -9.837  -1.980  0.00  0.00    +0.235 C 
ATOM     18  N   UNL     1       2.050  -8.566  -1.712  0.00  0.00    -0.145 NA
ATOM     19  H   UNL     1       3.212  -6.214  -1.071  0.00  0.00    +0.188 HD
BRANCH  17  20
ATOM     20  S   UNL     1       2.689 -10.731  -3.318  0.00  0.00    +0.022 S 
ATOM     21  O   UNL     1       1.780 -11.793  -3.574  0.00  0.00    -0.167 OA
ATOM     22  O   UNL     1       2.954  -9.749  -4.310  0.00  0.00    -0.167 OA
BRANCH  20  23
ATOM     23  C   UNL     1       4.246 -11.388  -2.659  0.00  0.00    +0.171 C 
ATOM     24  C   UNL     1       4.963 -12.191  -3.746  0.00  0.00    +0.028 C 
ENDBRANCH  20  23
ENDBRANCH  17  20
ENDBRANCH   3   7
BRANCH   1  25
ATOM     25  O   UNL     1       1.007  -0.455  -0.730  0.00  0.00    -0.489 OA
BRANCH  25  27
ATOM     26  C   UNL     1       0.808   1.463   0.728  0.00  0.00    +0.048 C 
ATOM     27  C   UNL     1       0.630  -0.051   0.588  0.00  0.00    +0.226 C 
ENDBRANCH  25  27
ENDBRANCH   1  25
BRANCH   6  28
ATOM     28  O   UNL     1       1.701  -1.368  -3.231  0.00  0.00    -0.484 OA
BRANCH  28  29
ATOM     29  C   UNL     1       2.045  -1.908  -4.508  0.00  0.00    +0.265 C 
BRANCH  29  30
ATOM     30  C   UNL     1       2.510  -0.798  -5.415  0.00  0.00    -0.007 A 
ATOM     31  C   UNL     1       2.554   0.503  -4.948  0.00  0.00    +0.007 A 
ATOM     32  C   UNL     1       2.981   1.521  -5.779  0.00  0.00    +0.000 A 
ATOM     33  C   UNL     1       3.364   1.239  -7.078  0.00  0.00    +0.000 A 
ATOM     34  C   UNL     1       3.320  -0.062  -7.544  0.00  0.00    +0.004 A 
ATOM     35  C   UNL     1       2.898  -1.081  -6.711  0.00  0.00    -0.044 A 
ATOM     36  C   UNL     1       2.856  -2.500  -7.217  0.00  0.00    +0.044 C 
ENDBRANCH  29  30
ENDBRANCH  28  29
ENDBRANCH   6  28
TORSDOF 8
