REMARK  Name = ZINC08799073
REMARK  9 active torsions:
REMARK  status: ('A' for Active; 'I' for Inactive)
REMARK    1  A    between atoms: C_1  and  C_2
REMARK    2  A    between atoms: C_5  and  S_9
REMARK    3  A    between atoms: C_6  and  C_8
REMARK    4  A    between atoms: S_9  and  N_12
REMARK    5  A    between atoms: N_12  and  C_13
REMARK    6  A    between atoms: C_13  and  C_14
REMARK    7  A    between atoms: C_14  and  C_16
REMARK    8  A    between atoms: C_14  and  N_63
REMARK    9  A    between atoms: N_25  and  C_26
REMARK                            x       y       z     vdW  Elec       q    Type
REMARK                         _______ _______ _______ _____ _____    ______ ____
ROOT
ATOM      1  C   UNL     1       5.527   1.843  -3.802  0.00  0.00    -0.022 C 
ENDROOT
BRANCH   1   2
ATOM      2  C   UNL     1       5.773   3.141  -4.528  0.00  0.00    -0.059 A 
ATOM      3  C   UNL     1       4.730   3.786  -5.167  0.00  0.00    +0.004 A 
ATOM      4  C   UNL     1       4.959   4.971  -5.832  0.00  0.00    +0.023 A 
ATOM      5  C   UNL     1       6.239   5.527  -5.865  0.00  0.00    +0.033 A 
ATOM      6  C   UNL     1       7.278   4.880  -5.220  0.00  0.00    -0.026 A 
ATOM      7  C   UNL     1       7.040   3.690  -4.550  0.00  0.00    +0.007 A 
ATOM      8  C   UNL     1       8.680   5.434  -5.208  0.00  0.00    +0.038 C 
ATOM      9  C   UNL     1       8.819   6.507  -6.291  0.00  0.00    +0.024 C 
ATOM     10  C   UNL     1       7.615   7.451  -6.177  0.00  0.00    +0.105 C 
ATOM     11  N   UNL     1       6.408   6.720  -6.567  0.00  0.00    -0.333 N 
ATOM     12  C   UNL     1       5.217   7.572  -6.452  0.00  0.00    +0.129 C 
ENDBRANCH   1   2
BRANCH   1  17
ATOM     13  C   UNL     1       5.293   0.874  -6.024  0.00  0.00    -0.078 C 
ATOM     14  C   UNL     1       4.693  -0.441  -6.581  0.00  0.00    -0.020 C 
ATOM     15  C   UNL     1       4.702  -1.375  -5.349  0.00  0.00    -0.020 C 
ATOM     16  C   UNL     1       4.743  -0.433  -4.131  0.00  0.00    -0.078 C 
ATOM     17  N   UNL     1       4.723   0.928  -4.668  0.00  0.00    +0.385 N 
ATOM     18  H   UNL     1       3.756   1.270  -4.712  0.00  0.00    -0.081 HD
ENDBRANCH   1  17
BRANCH   1  19
ATOM     19  C   UNL     1       4.770   2.122  -2.502  0.00  0.00    +0.095 C 
BRANCH  19  20
ATOM     20  N   UNL     1       4.654   0.882  -1.729  0.00  0.00    -0.191 NA
ATOM     21  H   UNL     1       4.838   0.029  -2.152  0.00  0.00    +0.148 HD
BRANCH  20  22
ATOM     22  S   UNL     1       4.207   0.939  -0.136  0.00  0.00    +0.059 S 
ATOM     23  O   UNL     1       5.058   1.889   0.491  0.00  0.00    -0.153 OA
ATOM     24  O   UNL     1       4.113  -0.408   0.307  0.00  0.00    -0.153 OA
BRANCH  22  29
ATOM     25  C   UNL     1      -1.375   3.219   0.076  0.00  0.00    +0.044 C 
ATOM     26  C   UNL     1       0.019   2.649   0.023  0.00  0.00    -0.050 A 
ATOM     27  C   UNL     1       1.074   3.352   0.575  0.00  0.00    +0.005 A 
ATOM     28  C   UNL     1       2.354   2.832   0.522  0.00  0.00    +0.029 A 
ATOM     29  C   UNL     1       2.577   1.605  -0.074  0.00  0.00    +0.108 A 
ATOM     30  C   UNL     1       1.522   0.900  -0.622  0.00  0.00    -0.024 A 
ATOM     31  C   UNL     1       0.243   1.423  -0.574  0.00  0.00    +0.008 A 
ATOM     32  C   UNL     1       1.766  -0.438  -1.272  0.00  0.00    +0.046 C 
ENDBRANCH  22  29
ENDBRANCH  20  22
ENDBRANCH  19  20
ENDBRANCH   1  19
TORSDOF 6
