REMARK  Name = ZINC24640142
REMARK  12 active torsions:
REMARK  status: ('A' for Active; 'I' for Inactive)
REMARK    1  A    between atoms: C_1  and  C_2
REMARK    2  A    between atoms: C_2  and  O_3
REMARK    3  A    between atoms: O_3  and  C_4
REMARK    4  A    between atoms: C_4  and  C_6
REMARK    5  A    between atoms: C_7  and  C_14
REMARK    6  A    between atoms: C_8  and  C_12
REMARK    7  A    between atoms: C_9  and  N_11
REMARK    8  A    between atoms: C_14  and  S_15
REMARK    9  A    between atoms: S_15  and  C_16
REMARK   10  A    between atoms: C_20  and  C_24
REMARK   11  A    between atoms: C_21  and  C_23
REMARK   12  A    between atoms: N_27  and  C_28
REMARK                            x       y       z     vdW  Elec       q    Type
REMARK                         _______ _______ _______ _____ _____    ______ ____
ROOT
ATOM      1  C   UNL     1      -1.143   3.505   0.032  0.00  0.00    +0.103 A 
ATOM      2  C   UNL     1      -1.213   2.126   0.019  0.00  0.00    +0.003 A 
ATOM      3  C   UNL     1      -0.017   1.428   0.010  0.00  0.00    +0.084 A 
ATOM      4  C   UNL     1       1.171   2.166   0.003  0.00  0.00    +0.082 A 
ATOM      5  S   UNL     1       0.614   3.807   0.017  0.00  0.00    -0.066 S 
ENDROOT
BRANCH   4   6
ATOM      6  N   UNL     1       2.467   1.703  -0.012  0.00  0.00    -0.352 N 
ATOM      7  H   UNL     1       3.306   2.414  -0.016  0.00  0.00    +0.143 HD
ATOM      8  H   UNL     1       2.664   0.620  -0.019  0.00  0.00    +0.143 HD
ENDBRANCH   4   6
BRANCH   1   9
ATOM      9  C   UNL     1      -2.204   4.446   0.047  0.00  0.00    +0.346 C 
ATOM     10  O   UNL     1      -3.358   4.061   0.055  0.00  0.00    -0.244 OA
BRANCH   9  11
ATOM     11  O   UNL     1      -1.933   5.768   0.051  0.00  0.00    -0.461 OA
BRANCH  11  13
ATOM     12  C   UNL     1      -2.550   8.105   0.070  0.00  0.00    +0.048 C 
ATOM     13  C   UNL     1      -3.050   6.659   0.066  0.00  0.00    +0.229 C 
ENDBRANCH  11  13
ENDBRANCH   9  11
ENDBRANCH   1   9
BRANCH   3  14
ATOM     14  C   UNL     1       0.002  -0.004   0.002  0.00  0.00    +0.102 C 
ATOM     15  N   UNL     1       0.018  -1.140  -0.004  0.00  0.00    -0.191 NA
ENDBRANCH   3  14
BRANCH   2  16
ATOM     16  C   UNL     1      -2.539   1.409   0.021  0.00  0.00    +0.115 C 
BRANCH  16  17
ATOM     17  S   UNL     1      -3.062   1.113   1.728  0.00  0.00    -0.083 S 
BRANCH  17  18
ATOM     18  C   UNL     1      -4.592   0.288   1.440  0.00  0.00    +0.173 A 
ATOM     19  N   UNL     1      -4.998   0.084   0.203  0.00  0.00    -0.216 NA
ATOM     20  C   UNL     1      -6.144  -0.539  -0.044  0.00  0.00    +0.117 A 
ATOM     21  C   UNL     1      -6.982  -0.999   0.989  0.00  0.00    +0.075 A 
ATOM     22  C   UNL     1      -8.200  -1.654   0.544  0.00  0.00    -0.026 A 
ATOM     23  C   UNL     1      -8.437  -1.772  -0.771  0.00  0.00    -0.008 A 
ATOM     24  S   UNL     1      -7.016  -0.999  -1.519  0.00  0.00    -0.073 S 
ATOM     25  C   UNL     1      -9.622  -2.407  -1.452  0.00  0.00    +0.052 C 
ATOM     26  C   UNL     1      -9.186  -2.194   1.548  0.00  0.00    +0.045 C 
ATOM     27  C   UNL     1      -6.518  -0.759   2.321  0.00  0.00    +0.263 A 
ATOM     28  O   UNL     1      -7.177  -1.122   3.280  0.00  0.00    -0.267 OA
ATOM     29  N   UNL     1      -5.344  -0.127   2.501  0.00  0.00    -0.290 N 
ATOM     30  C   UNL     1      -4.863   0.122   3.863  0.00  0.00    +0.154 C 
ENDBRANCH  17  18
ENDBRANCH  16  17
ENDBRANCH   2  16
TORSDOF 8
