REMARK  Name = ZINC62846473
REMARK  5 active torsions:
REMARK  status: ('A' for Active; 'I' for Inactive)
REMARK    1  A    between atoms: C_1  and  C_2
REMARK    2  A    between atoms: C_2  and  C_3
REMARK    3  A    between atoms: C_3  and  C_21
REMARK    4  A    between atoms: N_11  and  C_12
REMARK    5  A    between atoms: C_18  and  C_20
REMARK                            x       y       z     vdW  Elec       q    Type
REMARK                         _______ _______ _______ _____ _____    ______ ____
ROOT
ATOM      1  C   UNL     1       0.742  -0.508   1.245  0.00  0.00    +0.075 C 
ATOM      2  C   UNL     1       0.021  -0.012   2.501  0.00  0.00    +0.037 C 
ATOM      3  C   UNL     1      -1.424  -0.519   2.489  0.00  0.00    +0.110 C 
ATOM      4  N   UNL     1      -1.412  -1.980   2.338  0.00  0.00    -0.286 N 
ATOM      5  C   UNL     1      -0.671  -2.567   1.213  0.00  0.00    +0.110 C 
ATOM      6  C   UNL     1       0.766  -2.038   1.239  0.00  0.00    +0.037 C 
ATOM      7  C   UNL     1      -2.067  -2.767   3.214  0.00  0.00    +0.302 C 
ATOM      8  O   UNL     1      -2.596  -2.277   4.193  0.00  0.00    -0.253 OA
ATOM      9  N   UNL     1      -2.136  -4.096   3.005  0.00  0.00    -0.296 N 
ATOM     10  H   UNL     1      -1.655  -4.497   2.265  0.00  0.00    +0.151 HD
ENDROOT
BRANCH   9  11
ATOM     11  C   UNL     1      -2.940  -4.937   3.896  0.00  0.00    +0.077 C 
ATOM     12  C   UNL     1      -2.108  -5.321   5.122  0.00  0.00    +0.022 C 
ATOM     13  C   UNL     1      -2.946  -6.199   6.053  0.00  0.00    +0.002 C 
ATOM     14  C   UNL     1      -3.375  -7.466   5.310  0.00  0.00    +0.000 C 
ATOM     15  C   UNL     1      -4.207  -7.082   4.084  0.00  0.00    +0.005 C 
ATOM     16  C   UNL     1      -3.368  -6.204   3.154  0.00  0.00    +0.006 C 
ATOM     17  C   UNL     1      -4.200  -5.820   1.928  0.00  0.00    +0.009 C 
ENDBRANCH   9  11
BRANCH   1  18
ATOM     18  C   UNL     1       2.154   0.017   1.236  0.00  0.00    +0.362 C 
ATOM     19  O   UNL     1       2.358   1.219   1.239  0.00  0.00    -0.246 OA
ATOM     20  O   UNL     1       3.094  -0.760   1.227  0.00  0.00    -0.246 OA
ENDBRANCH   1  18
BRANCH   1  22
ATOM     21  C   UNL     1      -0.021   1.525   0.008  0.00  0.00    +0.005 C 
ATOM     22  C   UNL     1       0.004  -0.005   0.002  0.00  0.00    +0.015 C 
ENDBRANCH   1  22
TORSDOF 3
