REMARK  Name = ZINC13581816
REMARK  3 active torsions:
REMARK  status: ('A' for Active; 'I' for Inactive)
REMARK    1  A    between atoms: C_3  and  C_6
REMARK    2  A    between atoms: N_19  and  C_22
REMARK    3  A    between atoms: C_22  and  C_23
REMARK                            x       y       z     vdW  Elec       q    Type
REMARK                         _______ _______ _______ _____ _____    ______ ____
ROOT
ATOM      1  C   UNL     1       5.195  -2.156   0.224  0.00  0.00    +0.219 A 
ATOM      2  N   UNL     1       6.520  -1.980   0.309  0.00  0.00    -0.186 NA
ATOM      3  C   UNL     1       6.809  -0.700   0.141  0.00  0.00    +0.259 A 
ATOM      4  N   UNL     1       7.959  -0.010   0.135  0.00  0.00    -0.179 NA
ATOM      5  C   UNL     1       7.946   1.298  -0.063  0.00  0.00    +0.201 A 
ATOM      6  N   UNL     1       6.801   1.958  -0.258  0.00  0.00    -0.300 N 
ATOM      7  C   UNL     1       5.646   1.317  -0.260  0.00  0.00    +0.197 A 
ATOM      8  N   UNL     1       5.629  -0.033  -0.059  0.00  0.00    -0.166 N 
ATOM      9  N   UNL     1       4.614  -0.994  -0.006  0.00  0.00    -0.138 NA
ATOM     10  N   UNL     1       4.476   2.001  -0.461  0.00  0.00    -0.329 N 
ATOM     11  N   UNL     1       9.138   1.994  -0.067  0.00  0.00    -0.299 N 
ATOM     12  C   UNL     1      10.425   1.287   0.018  0.00  0.00    +0.123 C 
ATOM     13  C   UNL     1      11.254   1.918   1.141  0.00  0.00    +0.103 C 
ATOM     14  N   UNL     1      11.354   3.366   0.917  0.00  0.00    -0.295 NA
ATOM     15  C   UNL     1      10.034   4.007   0.975  0.00  0.00    +0.103 C 
ATOM     16  C   UNL     1       9.155   3.461  -0.161  0.00  0.00    +0.123 C 
ATOM     17  H   UNL     1       4.494   2.960  -0.603  0.00  0.00    +0.145 HD
ATOM     18  H   UNL     1       3.631   1.526  -0.461  0.00  0.00    +0.145 HD
ATOM     19  H   UNL     1       6.818   2.917  -0.401  0.00  0.00    +0.171 HD
ENDROOT
BRANCH   1  22
ATOM     20  C   UNL     1       4.045  -5.607   0.649  0.00  0.00    +0.042 A 
ATOM     21  C   UNL     1       5.081  -4.654   0.596  0.00  0.00    +0.053 A 
ATOM     22  C   UNL     1       4.495  -3.451   0.359  0.00  0.00    +0.173 A 
ATOM     23  O   UNL     1       3.164  -3.643   0.270  0.00  0.00    -0.460 OA
ATOM     24  C   UNL     1       2.889  -4.945   0.444  0.00  0.00    +0.196 A 
ENDBRANCH   1  22
BRANCH  14  25
ATOM     25  C   UNL     1      12.282   3.984   1.873  0.00  0.00    +0.122 C 
BRANCH  25  26
ATOM     26  C   UNL     1      12.549   5.410   1.465  0.00  0.00    +0.006 A 
ATOM     27  C   UNL     1      13.594   5.720   0.607  0.00  0.00    +0.065 A 
ATOM     28  C   UNL     1      13.808   7.040   0.254  0.00  0.00    +0.131 A 
ATOM     29  N   UNL     1      13.033   7.998   0.723  0.00  0.00    -0.260 NA
ATOM     30  C   UNL     1      12.031   7.741   1.541  0.00  0.00    +0.131 A 
ATOM     31  C   UNL     1      11.752   6.444   1.934  0.00  0.00    +0.065 A 
ATOM     32 CL   UNL     1      10.426   6.116   3.005  0.00  0.00    -0.082 Cl
ATOM     33 CL   UNL     1      14.621   4.466  -0.016  0.00  0.00    -0.082 Cl
ENDBRANCH  25  26
ENDBRANCH  14  25
TORSDOF 3
