REMARK  Name = ZINC20205620
REMARK  9 active torsions:
REMARK  status: ('A' for Active; 'I' for Inactive)
REMARK    1  A    between atoms: C_1  and  C_2
REMARK    2  A    between atoms: C_5  and  O_8
REMARK    3  A    between atoms: O_8  and  C_9
REMARK    4  A    between atoms: C_9  and  C_10
REMARK    5  A    between atoms: C_10  and  O_11
REMARK    6  A    between atoms: O_11  and  C_12
REMARK    7  A    between atoms: C_15  and  C_18
REMARK    8  A    between atoms: C_29  and  S_30
REMARK    9  A    between atoms: S_30  and  C_33
REMARK                            x       y       z     vdW  Elec       q    Type
REMARK                         _______ _______ _______ _____ _____    ______ ____
ROOT
ATOM      1  C   UNL     1       1.980 -12.140  -0.391  0.00  0.00    +0.024 C 
ATOM      2  C   UNL     1       2.726 -12.551  -1.473  0.00  0.00    +0.078 C 
ATOM      3  C   UNL     1       2.904 -13.994  -1.805  0.00  0.00    +0.117 C 
ATOM      4  N   UNL     1       1.993 -14.901  -1.579  0.00  0.00    -0.386 N 
ATOM      5  N   UNL     1       4.155 -14.278  -2.389  0.00  0.00    -0.203 N 
ATOM      6  C   UNL     1       4.830 -13.257  -3.022  0.00  0.00    +0.183 C 
ATOM      7  N   UNL     1       4.480 -11.991  -3.062  0.00  0.00    -0.152 NA
ATOM      8  C   UNL     1       3.392 -11.582  -2.378  0.00  0.00    +0.273 C 
ATOM      9  O   UNL     1       2.969 -10.443  -2.496  0.00  0.00    -0.268 OA
ATOM     10  S   UNL     1       6.159 -14.026  -3.674  0.00  0.00    +0.049 S 
ATOM     11  N   UNL     1       5.908 -15.566  -3.062  0.00  0.00    -0.174 NA
ATOM     12  C   UNL     1       4.790 -15.474  -2.412  0.00  0.00    +0.257 C 
ATOM     13  H   UNL     1       1.189 -14.670  -1.087  0.00  0.00    +0.157 HD
ATOM     14  H   UNL     1       2.120 -15.807  -1.902  0.00  0.00    +0.157 HD
ENDROOT
BRANCH   1  18
ATOM     15  C   UNL     1       1.995  -8.070   0.769  0.00  0.00    +0.121 A 
ATOM     16  C   UNL     1       0.811  -8.798   0.812  0.00  0.00    +0.046 A 
ATOM     17  C   UNL     1       0.799 -10.117   0.437  0.00  0.00    +0.011 A 
ATOM     18  C   UNL     1       1.985 -10.732   0.010  0.00  0.00    -0.024 A 
ATOM     19  C   UNL     1       3.176  -9.992  -0.031  0.00  0.00    +0.011 A 
ATOM     20  C   UNL     1       3.174  -8.673   0.341  0.00  0.00    +0.046 A 
BRANCH  15  21
ATOM     21  O   UNL     1       2.000  -6.765   1.140  0.00  0.00    -0.489 OA
BRANCH  21  22
ATOM     22  C   UNL     1       0.756  -6.208   1.569  0.00  0.00    +0.270 C 
BRANCH  22  23
ATOM     23  C   UNL     1       0.958  -4.739   1.945  0.00  0.00    +0.270 C 
BRANCH  23  24
ATOM     24  O   UNL     1       1.323  -3.995   0.781  0.00  0.00    -0.489 OA
BRANCH  24  29
ATOM     25  C   UNL     1       2.222   1.525   1.450  0.00  0.00    +0.044 C 
ATOM     26  C   UNL     1       1.982   0.048   1.271  0.00  0.00    -0.050 A 
ATOM     27  C   UNL     1       2.119  -0.527   0.021  0.00  0.00    +0.007 A 
ATOM     28  C   UNL     1       1.899  -1.881  -0.146  0.00  0.00    +0.046 A 
ATOM     29  C   UNL     1       1.541  -2.663   0.942  0.00  0.00    +0.121 A 
ATOM     30  C   UNL     1       1.405  -2.084   2.195  0.00  0.00    +0.046 A 
ATOM     31  C   UNL     1       1.631  -0.731   2.358  0.00  0.00    +0.007 A 
ENDBRANCH  24  29
ENDBRANCH  23  24
ENDBRANCH  22  23
ENDBRANCH  21  22
ENDBRANCH  15  21
ENDBRANCH   1  18
BRANCH  12  32
ATOM     32  S   UNL     1       4.114 -16.870  -1.577  0.00  0.00    +0.026 S 
ATOM     33  O   UNL     1       5.220 -17.737  -1.366  0.00  0.00    -0.167 OA
ATOM     34  O   UNL     1       3.401 -16.325  -0.476  0.00  0.00    -0.167 OA
ATOM     35  C   UNL     1       2.959 -17.609  -2.766  0.00  0.00    +0.203 C 
ENDBRANCH  12  32
TORSDOF 7
