REMARK  Name = ZINC11024009
REMARK  4 active torsions:
REMARK  status: ('A' for Active; 'I' for Inactive)
REMARK    1  A    between atoms: C_1  and  C_2
REMARK    2  A    between atoms: C_7  and  C_8
REMARK    3  A    between atoms: C_10  and  C_13
REMARK    4  A    between atoms: C_15  and  C_19
REMARK                            x       y       z     vdW  Elec       q    Type
REMARK                         _______ _______ _______ _____ _____    ______ ____
ROOT
ATOM      1  C   UNL     1       2.426   3.938  -0.001  0.00  0.00    +0.203 A 
ATOM      2  N   UNL     1       3.670   3.416  -0.016  0.00  0.00    -0.186 NA
ATOM      3  C   UNL     1       4.488   4.454  -0.019  0.00  0.00    +0.277 A 
ATOM      4  O   UNL     1       3.719   5.555  -0.006  0.00  0.00    -0.331 OA
ATOM      5  N   UNL     1       2.548   5.240  -0.000  0.00  0.00    -0.056 NA
ENDROOT
BRANCH   1  12
ATOM      6  C   UNL     1      -0.096   5.354   0.032  0.00  0.00    +0.044 C 
ATOM      7  C   UNL     1      -0.066   3.848   0.023  0.00  0.00    -0.040 A 
ATOM      8  C   UNL     1      -1.246   3.133   0.031  0.00  0.00    +0.004 A 
ATOM      9  C   UNL     1      -1.221   1.750   0.017  0.00  0.00    +0.000 A 
ATOM     10  C   UNL     1      -0.013   1.076   0.008  0.00  0.00    +0.001 A 
ATOM     11  C   UNL     1       1.174   1.781   0.000  0.00  0.00    +0.012 A 
ATOM     12  C   UNL     1       1.153   3.174   0.008  0.00  0.00    +0.025 A 
ENDBRANCH   1  12
BRANCH   3  13
ATOM     13  C   UNL     1       5.960   4.412  -0.035  0.00  0.00    +0.123 A 
ATOM     14  C   UNL     1       6.808   5.497  -0.044  0.00  0.00    +0.062 A 
ATOM     15  C   UNL     1       8.124   5.008  -0.055  0.00  0.00    +0.093 A 
ATOM     16  N   UNL     1       8.079   3.692  -0.062  0.00  0.00    -0.173 NA
ATOM     17  N   UNL     1       6.738   3.288  -0.049  0.00  0.00    -0.272 N 
ATOM     18  H   UNL     1       6.408   2.344  -0.051  0.00  0.00    +0.189 HD
BRANCH  15  19
ATOM     19  C   UNL     1       9.357   5.835  -0.064  0.00  0.00    +0.002 A 
ATOM     20  C   UNL     1       9.266   7.225  -0.061  0.00  0.00    +0.010 A 
ATOM     21  C   UNL     1      10.416   7.989  -0.062  0.00  0.00    +0.001 A 
ATOM     22  C   UNL     1      11.656   7.376  -0.079  0.00  0.00    +0.000 A 
ATOM     23  C   UNL     1      11.751   5.996  -0.088  0.00  0.00    +0.001 A 
ATOM     24  C   UNL     1      10.608   5.223  -0.081  0.00  0.00    +0.010 A 
ENDBRANCH  15  19
ENDBRANCH   3  13
TORSDOF 3
