REMARK  Name = ZINC09968793
REMARK  7 active torsions:
REMARK  status: ('A' for Active; 'I' for Inactive)
REMARK    1  A    between atoms: C_1  and  C_2
REMARK    2  A    between atoms: C_3  and  N_15
REMARK    3  A    between atoms: N_6  and  C_9
REMARK    4  A    between atoms: N_7  and  C_8
REMARK    5  A    between atoms: N_15  and  S_16
REMARK    6  A    between atoms: S_16  and  C_19
REMARK    7  A    between atoms: C_22  and  C_25
REMARK                            x       y       z     vdW  Elec       q    Type
REMARK                         _______ _______ _______ _____ _____    ______ ____
ROOT
ATOM      1  S   UNL     1      -3.909   2.829   0.447  0.00  0.00    +0.073 S 
ATOM      2  O   UNL     1      -5.228   2.592   0.920  0.00  0.00    -0.150 OA
ATOM      3  O   UNL     1      -2.898   3.404   1.264  0.00  0.00    -0.150 OA
ENDROOT
BRANCH   1   4
ATOM      4  C   UNL     1      -4.061   3.866  -0.970  0.00  0.00    +0.109 A 
ATOM      5  C   UNL     1      -3.122   4.855  -1.203  0.00  0.00    +0.029 A 
ATOM      6  C   UNL     1      -3.233   5.667  -2.312  0.00  0.00    +0.015 A 
ATOM      7  C   UNL     1      -4.300   5.496  -3.195  0.00  0.00    +0.037 A 
ATOM      8  C   UNL     1      -5.247   4.500  -2.951  0.00  0.00    +0.015 A 
ATOM      9  C   UNL     1      -5.122   3.691  -1.840  0.00  0.00    +0.029 A 
BRANCH   7  10
ATOM     10  C   UNL     1      -4.428   6.366  -4.383  0.00  0.00    +0.251 C 
ATOM     11  O   UNL     1      -5.276   6.129  -5.222  0.00  0.00    -0.270 OA
ATOM     12  N   UNL     1      -3.606   7.423  -4.537  0.00  0.00    -0.267 N 
ATOM     13  C   UNL     1      -2.478   7.744  -3.657  0.00  0.00    +0.118 C 
ATOM     14  C   UNL     1      -1.861   9.024  -4.244  0.00  0.00    +0.056 C 
ATOM     15  C   UNL     1      -2.716   9.340  -5.451  0.00  0.00    -0.024 A 
ATOM     16  C   UNL     1      -3.699   8.369  -5.561  0.00  0.00    +0.040 A 
ATOM     17  C   UNL     1      -4.621   8.454  -6.606  0.00  0.00    +0.024 A 
ATOM     18  C   UNL     1      -4.543   9.483  -7.520  0.00  0.00    +0.002 A 
ATOM     19  C   UNL     1      -3.555  10.443  -7.405  0.00  0.00    +0.000 A 
ATOM     20  C   UNL     1      -2.642  10.369  -6.369  0.00  0.00    +0.005 A 
ENDBRANCH   7  10
ENDBRANCH   1   4
BRANCH   1  21
ATOM     21  N   UNL     1      -3.323   1.371  -0.075  0.00  0.00    -0.209 N 
ATOM     22  H   UNL     1      -3.875   0.576  -0.011  0.00  0.00    +0.174 HD
BRANCH  21  25
ATOM     23  C   UNL     1      -2.143  -1.143  -1.365  0.00  0.00    +0.067 C 
ATOM     24  C   UNL     1      -1.471   0.194  -1.186  0.00  0.00    +0.061 A 
ATOM     25  C   UNL     1      -2.021   1.284  -0.611  0.00  0.00    +0.135 A 
ATOM     26  C   UNL     1      -1.062   2.329  -0.645  0.00  0.00    +0.295 A 
ATOM     27  O   UNL     1      -1.216   3.459  -0.216  0.00  0.00    -0.264 OA
ATOM     28  N   UNL     1       0.052   1.846  -1.230  0.00  0.00    -0.216 N 
ATOM     29  N   UNL     1      -0.191   0.509  -1.574  0.00  0.00    -0.282 N 
ATOM     30  C   UNL     1       0.755  -0.394  -2.232  0.00  0.00    +0.171 C 
BRANCH  28  31
ATOM     31  C   UNL     1       1.238   2.552  -1.454  0.00  0.00    +0.067 A 
ATOM     32  C   UNL     1       2.465   1.933  -1.253  0.00  0.00    +0.028 A 
ATOM     33  C   UNL     1       3.634   2.632  -1.480  0.00  0.00    +0.002 A 
ATOM     34  C   UNL     1       3.584   3.949  -1.897  0.00  0.00    +0.000 A 
ATOM     35  C   UNL     1       2.365   4.570  -2.093  0.00  0.00    +0.002 A 
ATOM     36  C   UNL     1       1.191   3.875  -1.873  0.00  0.00    +0.028 A 
ENDBRANCH  28  31
ENDBRANCH  21  25
ENDBRANCH   1  21
TORSDOF 5
