REMARK  Name = ZINC40146150
REMARK  9 active torsions:
REMARK  status: ('A' for Active; 'I' for Inactive)
REMARK    1  A    between atoms: C_1  and  C_2
REMARK    2  A    between atoms: C_2  and  C_3
REMARK    3  A    between atoms: C_3  and  C_5
REMARK    4  A    between atoms: C_3  and  C_6
REMARK    5  A    between atoms: C_6  and  C_8
REMARK    6  A    between atoms: C_6  and  N_18
REMARK    7  A    between atoms: C_19  and  C_21
REMARK    8  A    between atoms: C_21  and  C_22
REMARK    9  A    between atoms: C_22  and  N_23
REMARK                            x       y       z     vdW  Elec       q    Type
REMARK                         _______ _______ _______ _____ _____    ______ ____
ROOT
ATOM      1  N   UNL     1      -0.455  -2.630   0.999  0.00  0.00    -0.305 N 
ATOM      2  C   UNL     1      -1.229  -2.875   2.075  0.00  0.00    +0.215 C 
ATOM      3  O   UNL     1      -0.826  -2.602   3.186  0.00  0.00    -0.276 OA
ATOM      4  H   UNL     1      -0.777  -2.848   0.110  0.00  0.00    +0.149 HD
ENDROOT
BRANCH   1   5
ATOM      5  C   UNL     1       0.872  -2.034   1.171  0.00  0.00    +0.142 C 
BRANCH   5   6
ATOM      6  C   UNL     1       1.747  -2.410   0.003  0.00  0.00    +0.129 A 
ATOM      7  N   UNL     1       2.859  -3.189   0.081  0.00  0.00    -0.340 N 
ATOM      8  H   UNL     1       3.221  -3.595   0.884  0.00  0.00    +0.167 HD
ATOM      9  C   UNL     1       3.375  -3.298  -1.195  0.00  0.00    +0.066 A 
ATOM     10  C   UNL     1       4.473  -3.947  -1.741  0.00  0.00    +0.028 A 
ATOM     11  C   UNL     1       4.718  -3.854  -3.095  0.00  0.00    +0.002 A 
ATOM     12  C   UNL     1       3.875  -3.115  -3.913  0.00  0.00    +0.002 A 
ATOM     13  C   UNL     1       2.789  -2.470  -3.392  0.00  0.00    +0.030 A 
ATOM     14  C   UNL     1       2.521  -2.550  -2.023  0.00  0.00    +0.089 A 
ATOM     15  N   UNL     1       1.546  -2.040  -1.228  0.00  0.00    -0.231 NA
ENDBRANCH   5   6
BRANCH   5  16
ATOM     16  C   UNL     1       0.742  -0.511   1.242  0.00  0.00    +0.013 C 
ATOM     17  C   UNL     1      -0.042  -0.124   2.497  0.00  0.00    +0.010 C 
BRANCH  16  19
ATOM     18  C   UNL     1      -0.019   1.526   0.010  0.00  0.00    +0.004 C 
ATOM     19  C   UNL     1       0.002  -0.004   0.002  0.00  0.00    +0.002 C 
ENDBRANCH  16  19
ENDBRANCH   5  16
ENDBRANCH   1   5
BRANCH   2  20
ATOM     20  C   UNL     1      -2.594  -3.488   1.897  0.00  0.00    +0.115 C 
BRANCH  20  21
ATOM     21  C   UNL     1      -3.257  -3.659   3.265  0.00  0.00    +0.127 C 
BRANCH  21  22
ATOM     22  N   UNL     1      -4.585  -4.255   3.093  0.00  0.00    -0.224 N 
ATOM     23  C   UNL     1      -5.717  -3.545   2.910  0.00  0.00    +0.247 C 
ATOM     24  O   UNL     1      -5.826  -2.338   2.860  0.00  0.00    -0.273 OA
ATOM     25  C   UNL     1      -6.820  -4.570   2.782  0.00  0.00    +0.113 C 
ATOM     26  C   UNL     1      -7.488  -4.464   1.415  0.00  0.00    +0.035 C 
ATOM     27  C   UNL     1      -8.581  -5.529   1.295  0.00  0.00    +0.003 C 
ATOM     28  C   UNL     1      -9.615  -5.325   2.404  0.00  0.00    +0.000 C 
ATOM     29  C   UNL     1      -8.935  -5.457   3.768  0.00  0.00    +0.003 C 
ATOM     30  C   UNL     1      -7.844  -4.392   3.898  0.00  0.00    +0.035 C 
ATOM     31  N   UNL     1      -6.128  -5.858   2.918  0.00  0.00    -0.285 N 
ATOM     32  C   UNL     1      -4.824  -5.572   3.092  0.00  0.00    +0.309 C 
ATOM     33  O   UNL     1      -3.961  -6.416   3.234  0.00  0.00    -0.252 OA
ATOM     34  H   UNL     1      -6.531  -6.740   2.886  0.00  0.00    +0.151 HD
ENDBRANCH  21  22
ENDBRANCH  20  21
ENDBRANCH   2  20
TORSDOF 7
