REMARK  Name = ZINC40811415
REMARK  10 active torsions:
REMARK  status: ('A' for Active; 'I' for Inactive)
REMARK    1  A    between atoms: C_1  and  C_2
REMARK    2  A    between atoms: C_6  and  C_8
REMARK    3  A    between atoms: N_10  and  N_11
REMARK    4  A    between atoms: C_18  and  C_34
REMARK    5  A    between atoms: C_19  and  C_21
REMARK    6  A    between atoms: N_23  and  C_24
REMARK    7  A    between atoms: C_26  and  C_32
REMARK    8  A    between atoms: C_26  and  C_33
REMARK    9  A    between atoms: C_28  and  C_30
REMARK   10  A    between atoms: C_28  and  C_31
REMARK                            x       y       z     vdW  Elec       q    Type
REMARK                         _______ _______ _______ _____ _____    ______ ____
ROOT
ATOM      1  N   UNL     1       0.475  -4.801   3.679  0.00  0.00    -0.184 NA
ATOM      2  C   UNL     1       0.410  -6.096   3.679  0.00  0.00    +0.070 C 
ATOM      3  C   UNL     1       0.328  -6.910   2.395  0.00  0.00    +0.058 C 
ATOM      4  C   UNL     1      -0.702  -8.026   2.599  0.00  0.00    +0.014 C 
ATOM      5  C   UNL     1      -0.233  -9.002   3.681  0.00  0.00    +0.075 C 
ATOM      6  C   UNL     1       0.114  -8.234   4.931  0.00  0.00    +0.115 A 
ATOM      7  C   UNL     1       0.414  -6.892   4.927  0.00  0.00    +0.042 A 
ATOM      8  C   UNL     1       0.687  -6.516   6.248  0.00  0.00    +0.009 A 
ATOM      9  C   UNL     1       0.550  -7.647   7.003  0.00  0.00    +0.193 A 
ATOM     10  O   UNL     1       0.197  -8.670   6.186  0.00  0.00    -0.454 OA
ATOM     11  C   UNL     1       1.059  -5.141   6.739  0.00  0.00    +0.048 C 
ENDROOT
BRANCH   1  14
ATOM     12  C   UNL     1       0.535  -2.752   2.467  0.00  0.00    +0.263 C 
ATOM     13  O   UNL     1       0.605  -2.147   3.519  0.00  0.00    -0.268 OA
ATOM     14  N   UNL     1       0.467  -4.098   2.467  0.00  0.00    -0.203 N 
ATOM     15  H   UNL     1       0.412  -4.581   1.627  0.00  0.00    +0.178 HD
BRANCH  12  21
ATOM     16  C   UNL     1       0.662   1.573  -0.018  0.00  0.00    +0.044 C 
ATOM     17  C   UNL     1       0.587   0.067  -0.013  0.00  0.00    -0.050 A 
ATOM     18  C   UNL     1       0.509  -0.624  -1.209  0.00  0.00    +0.003 A 
ATOM     19  C   UNL     1       0.440  -2.006  -1.213  0.00  0.00    +0.001 A 
ATOM     20  C   UNL     1       0.448  -2.704  -0.022  0.00  0.00    +0.013 A 
ATOM     21  C   UNL     1       0.527  -2.012   1.188  0.00  0.00    +0.039 A 
ATOM     22  C   UNL     1       0.602  -0.618   1.184  0.00  0.00    +0.016 A 
ENDBRANCH  12  21
ENDBRANCH   1  14
BRANCH   9  23
ATOM     23  C   UNL     1       0.740  -7.737   8.455  0.00  0.00    +0.280 C 
ATOM     24  O   UNL     1       1.048  -6.745   9.091  0.00  0.00    -0.267 OA
ATOM     25  N   UNL     1       0.574  -8.916   9.085  0.00  0.00    -0.306 N 
ATOM     26  H   UNL     1       0.328  -9.706   8.579  0.00  0.00    +0.149 HD
BRANCH  25  27
ATOM     27  C   UNL     1       0.764  -9.006  10.539  0.00  0.00    +0.071 C 
ATOM     28  C   UNL     1       2.243  -9.261  10.837  0.00  0.00    +0.009 C 
ATOM     29  C   UNL     1       2.455  -9.368  12.347  0.00  0.00    -0.072 C 
ATOM     30  N   UNL     1       1.584 -10.364  12.953  0.00  0.00    +0.386 N 
ATOM     31  C   UNL     1       0.178 -10.348  12.581  0.00  0.00    -0.072 C 
ATOM     32  C   UNL     1      -0.045 -10.183  11.081  0.00  0.00    +0.009 C 
ATOM     33  C   UNL     1      -0.598  -9.273  13.345  0.00  0.00    -0.010 C 
ATOM     34  C   UNL     1      -0.425 -11.714  12.987  0.00  0.00    -0.010 C 
ATOM     35  C   UNL     1       2.304  -7.996  13.001  0.00  0.00    -0.010 C 
ATOM     36  C   UNL     1       3.915  -9.826  12.572  0.00  0.00    -0.010 C 
ATOM     37  H   UNL     1       1.962 -11.291  12.743  0.00  0.00    -0.084 HD
ATOM     38  H   UNL     1       1.649 -10.271  13.970  0.00  0.00    -0.084 HD
ENDBRANCH  25  27
ENDBRANCH   9  23
TORSDOF 4
