REMARK  Name = ZINC51089821
REMARK  7 active torsions:
REMARK  status: ('A' for Active; 'I' for Inactive)
REMARK    1  A    between atoms: C_1  and  C_2
REMARK    2  A    between atoms: C_2  and  C_3
REMARK    3  A    between atoms: C_2  and  N_4
REMARK    4  A    between atoms: C_5  and  N_9
REMARK    5  A    between atoms: C_10  and  C_12
REMARK    6  A    between atoms: C_16  and  N_18
REMARK    7  A    between atoms: N_18  and  N_19
REMARK                            x       y       z     vdW  Elec       q    Type
REMARK                         _______ _______ _______ _____ _____    ______ ____
ROOT
ATOM      1  N   UNL     1      -1.102  -1.799   2.202  0.00  0.00    -0.265 N 
ATOM      2  C   UNL     1      -1.482  -2.586   3.228  0.00  0.00    +0.269 C 
ATOM      3  O   UNL     1      -0.694  -2.852   4.114  0.00  0.00    -0.268 OA
ATOM      4  H   UNL     1      -1.731  -1.586   1.495  0.00  0.00    +0.157 HD
ENDROOT
BRANCH   2   5
ATOM      5  C   UNL     1      -2.859  -3.126   3.275  0.00  0.00    +0.146 A 
ATOM      6  C   UNL     1      -3.247  -3.934   4.342  0.00  0.00    +0.072 A 
ATOM      7  C   UNL     1      -4.542  -4.436   4.376  0.00  0.00    +0.026 A 
ATOM      8  C   UNL     1      -5.404  -4.112   3.344  0.00  0.00    +0.046 A 
ATOM      9  C   UNL     1      -4.951  -3.297   2.306  0.00  0.00    +0.133 A 
ATOM     10  N   UNL     1      -3.716  -2.831   2.303  0.00  0.00    -0.225 NA
ATOM     11 CL   UNL     1      -2.125  -4.311   5.612  0.00  0.00    -0.081 Cl
BRANCH   9  12
ATOM     12  N   UNL     1      -5.813  -2.968   1.266  0.00  0.00    -0.268 N 
ATOM     13  H   UNL     1      -6.723  -3.304   1.264  0.00  0.00    +0.167 HD
BRANCH  12  14
ATOM     14  N   UNL     1      -5.378  -2.171   0.245  0.00  0.00    -0.255 NA
ATOM     15  H   UNL     1      -6.110  -2.020  -0.432  0.00  0.00    +0.140 HD
ATOM     16  H   UNL     1      -5.024  -1.294   0.597  0.00  0.00    +0.140 HD
ENDBRANCH  12  14
ENDBRANCH   9  12
ENDBRANCH   2   5
BRANCH   1  18
ATOM     17  N   UNL     1       0.711  -0.489   1.189  0.00  0.00    -0.248 N 
ATOM     18  C   UNL     1       0.195  -1.290   2.157  0.00  0.00    +0.124 A 
ATOM     19  C   UNL     1       1.177  -1.505   3.075  0.00  0.00    +0.065 A 
ATOM     20  C   UNL     1       2.317  -0.817   2.653  0.00  0.00    +0.136 A 
ATOM     21  N   UNL     1       2.043  -0.215   1.524  0.00  0.00    -0.178 NA
BRANCH  17  23
ATOM     22  C   UNL     1      -0.019   1.526   0.010  0.00  0.00    +0.032 C 
ATOM     23  C   UNL     1       0.002  -0.004   0.002  0.00  0.00    +0.103 C 
ATOM     24  C   UNL     1       0.718  -0.497  -1.257  0.00  0.00    +0.032 C 
ENDBRANCH  17  23
ENDBRANCH   1  18
TORSDOF 5
