REMARK  Name = ZINC17305422
REMARK  5 active torsions:
REMARK  status: ('A' for Active; 'I' for Inactive)
REMARK    1  A    between atoms: C_1  and  C_2
REMARK    2  A    between atoms: C_7  and  C_16
REMARK    3  A    between atoms: N_11  and  S_12
REMARK    4  A    between atoms: S_12  and  C_15
REMARK    5  A    between atoms: N_18  and  C_19
REMARK                            x       y       z     vdW  Elec       q    Type
REMARK                         _______ _______ _______ _____ _____    ______ ____
ROOT
ATOM      1  C   UNL     1       5.529   0.598  -1.305  0.00  0.00    +0.030 C 
ATOM      2  C   UNL     1       4.669   0.645  -0.040  0.00  0.00    +0.099 C 
ATOM      3  C   UNL     1       3.812   1.921  -0.025  0.00  0.00    +0.061 C 
ATOM      4  C   UNL     1       2.386   1.417  -0.014  0.00  0.00    -0.022 A 
ATOM      5  C   UNL     1       1.190   2.099   0.002  0.00  0.00    +0.018 A 
ATOM      6  C   UNL     1      -0.017   1.394   0.010  0.00  0.00    +0.037 A 
ATOM      7  C   UNL     1       0.002  -0.004   0.002  0.00  0.00    +0.015 A 
ATOM      8  C   UNL     1       1.199  -0.676  -0.013  0.00  0.00    +0.026 A 
ATOM      9  C   UNL     1       2.409   0.028  -0.021  0.00  0.00    +0.054 A 
ATOM     10  N   UNL     1       3.710  -0.462  -0.037  0.00  0.00    -0.204 N 
ENDROOT
BRANCH  10  11
ATOM     11  S   UNL     1       4.116  -2.068  -0.050  0.00  0.00    +0.043 S 
ATOM     12  O   UNL     1       5.408  -2.119   0.541  0.00  0.00    -0.155 OA
ATOM     13  O   UNL     1       3.014  -2.725   0.560  0.00  0.00    -0.155 OA
ATOM     14  C   UNL     1       4.214  -2.510  -1.806  0.00  0.00    +0.218 C 
ENDBRANCH  10  11
BRANCH   6  15
ATOM     15  C   UNL     1      -1.301   2.119   0.020  0.00  0.00    +0.244 C 
ATOM     16  O   UNL     1      -1.313   3.335   0.026  0.00  0.00    -0.270 OA
ATOM     17  N   UNL     1      -2.462   1.435   0.021  0.00  0.00    -0.306 N 
ATOM     18  H   UNL     1      -2.453   0.465   0.016  0.00  0.00    +0.150 HD
BRANCH  17  19
ATOM     19  C   UNL     1      -3.738   2.155   0.032  0.00  0.00    +0.036 C 
ATOM     20  C   UNL     1      -3.821   3.027   1.286  0.00  0.00    +0.029 C 
ATOM     21  C   UNL     1      -5.153   3.780   1.296  0.00  0.00    -0.008 C 
ATOM     22  C   UNL     1      -6.307   2.774   1.296  0.00  0.00    +0.007 C 
ATOM     23  C   UNL     1      -6.223   1.902   0.042  0.00  0.00    -0.008 C 
ATOM     24  C   UNL     1      -4.891   1.150   0.032  0.00  0.00    +0.029 C 
ATOM     25  C   UNL     1      -6.319   2.788  -1.202  0.00  0.00    +0.007 C 
ATOM     26  C   UNL     1      -5.165   3.793  -1.202  0.00  0.00    -0.008 C 
ATOM     27  C   UNL     1      -5.248   4.665   0.052  0.00  0.00    +0.007 C 
ATOM     28  C   UNL     1      -3.833   3.041  -1.212  0.00  0.00    +0.029 C 
ENDBRANCH  17  19
ENDBRANCH   6  15
TORSDOF 3
