REMARK  Name = ZINC12500733
REMARK  10 active torsions:
REMARK  status: ('A' for Active; 'I' for Inactive)
REMARK    1  A    between atoms: C_1  and  C_2
REMARK    2  A    between atoms: C_2  and  N_3
REMARK    3  A    between atoms: N_3  and  C_4
REMARK    4  A    between atoms: N_3  and  C_6
REMARK    5  A    between atoms: C_4  and  C_5
REMARK    6  A    between atoms: C_9  and  C_12
REMARK    7  A    between atoms: C_16  and  C_24
REMARK    8  A    between atoms: C_17  and  N_18
REMARK    9  A    between atoms: N_25  and  N_26
REMARK   10  A    between atoms: N_29  and  C_30
REMARK                            x       y       z     vdW  Elec       q    Type
REMARK                         _______ _______ _______ _____ _____    ______ ____
ROOT
ATOM      1  C   UNL     1      -2.724   3.194   1.379  0.00  0.00    +0.013 C 
ATOM      2  C   UNL     1      -1.783   2.573   0.636  0.00  0.00    -0.025 C 
ATOM      3  C   UNL     1      -0.438   2.082   1.128  0.00  0.00    +0.042 C 
ATOM      4  C   UNL     1       0.225   1.462  -0.113  0.00  0.00    +0.043 C 
ATOM      5  C   UNL     1      -0.766   1.631  -1.237  0.00  0.00    -0.006 C 
ATOM      6  C   UNL     1      -1.880   2.258  -0.784  0.00  0.00    +0.038 C 
ENDROOT
BRANCH   1  10
ATOM      7  C   UNL     1      -2.192   3.598   5.569  0.00  0.00    +0.030 A 
ATOM      8  C   UNL     1      -2.702   4.660   4.829  0.00  0.00    +0.024 A 
ATOM      9  C   UNL     1      -2.876   4.533   3.469  0.00  0.00    +0.010 A 
ATOM     10  C   UNL     1      -2.539   3.334   2.832  0.00  0.00    -0.025 A 
ATOM     11  C   UNL     1      -2.032   2.266   3.581  0.00  0.00    +0.010 A 
ATOM     12  C   UNL     1      -1.857   2.403   4.939  0.00  0.00    +0.024 A 
BRANCH   7  13
ATOM     13  N   UNL     1      -2.018   3.730   6.946  0.00  0.00    -0.330 N 
BRANCH  13  15
ATOM     14  C   UNL     1       0.044   2.715   7.783  0.00  0.00    +0.024 C 
ATOM     15  C   UNL     1      -1.482   2.613   7.727  0.00  0.00    +0.102 C 
ENDBRANCH  13  15
BRANCH  13  16
ATOM     16  C   UNL     1      -2.371   4.986   7.612  0.00  0.00    +0.102 C 
ATOM     17  C   UNL     1      -3.833   4.933   8.060  0.00  0.00    +0.024 C 
ENDBRANCH  13  16
ENDBRANCH   7  13
ENDBRANCH   1  10
BRANCH   6  18
ATOM     18  N   UNL     1      -2.981   2.562  -1.577  0.00  0.00    -0.325 N 
ATOM     19  C   UNL     1      -3.733   1.503  -2.268  0.00  0.00    +0.133 C 
ATOM     20  C   UNL     1      -5.226   1.690  -1.952  0.00  0.00    +0.178 C 
ATOM     21  O   UNL     1      -5.604   3.036  -2.252  0.00  0.00    -0.377 OA
ATOM     22  C   UNL     1      -4.929   4.022  -1.468  0.00  0.00    +0.178 C 
ATOM     23  C   UNL     1      -3.425   3.954  -1.755  0.00  0.00    +0.133 C 
ENDBRANCH   6  18
BRANCH   5  24
ATOM     24  C   UNL     1      -0.563   1.202  -2.565  0.00  0.00    +0.136 C 
ATOM     25  N   UNL     1       0.584   0.688  -2.917  0.00  0.00    -0.187 NA
BRANCH  25  26
ATOM     26  N   UNL     1       0.785   0.262  -4.237  0.00  0.00    -0.191 N 
ATOM     27  C   UNL     1       1.970  -0.269  -4.600  0.00  0.00    +0.319 C 
ATOM     28  O   UNL     1       2.144  -0.639  -5.745  0.00  0.00    -0.251 OA
ATOM     29  N   UNL     1       2.961  -0.389  -3.695  0.00  0.00    -0.295 N 
ATOM     30  H   UNL     1       0.072   0.348  -4.888  0.00  0.00    +0.179 HD
ATOM     31  H   UNL     1       2.821  -0.093  -2.781  0.00  0.00    +0.151 HD
BRANCH  29  32
ATOM     32  C   UNL     1       4.248  -0.965  -4.090  0.00  0.00    +0.074 C 
ATOM     33  C   UNL     1       4.175  -2.490  -3.994  0.00  0.00    +0.022 C 
ATOM     34  C   UNL     1       5.519  -3.092  -4.407  0.00  0.00    +0.002 C 
ATOM     35  C   UNL     1       6.617  -2.575  -3.475  0.00  0.00    +0.000 C 
ATOM     36  C   UNL     1       6.691  -1.050  -3.571  0.00  0.00    +0.002 C 
ATOM     37  C   UNL     1       5.346  -0.448  -3.158  0.00  0.00    +0.022 C 
ENDBRANCH  29  32
ENDBRANCH  25  26
ENDBRANCH   5  24
TORSDOF 8
