REMARK  Name = ZINC02691192
REMARK  6 active torsions:
REMARK  status: ('A' for Active; 'I' for Inactive)
REMARK    1  A    between atoms: C_1  and  C_2
REMARK    2  A    between atoms: C_2  and  C_3
REMARK    3  A    between atoms: C_2  and  C_4
REMARK    4  A    between atoms: C_7  and  S_10
REMARK    5  A    between atoms: S_10  and  C_13
REMARK    6  A    between atoms: N_26  and  C_27
REMARK                            x       y       z     vdW  Elec       q    Type
REMARK                         _______ _______ _______ _____ _____    ______ ____
ROOT
ATOM      1  C   UNL     1      -1.616   3.214   6.229  0.00  0.00    +0.249 A 
ATOM      2  C   UNL     1      -0.886   4.361   6.486  0.00  0.00    +0.204 A 
ATOM      3  N   UNL     1      -0.882   5.577   5.910  0.00  0.00    -0.209 NA
ATOM      4  C   UNL     1      -0.087   6.540   6.324  0.00  0.00    +0.131 A 
ATOM      5  C   UNL     1       0.823   6.281   7.449  0.00  0.00    +0.040 A 
ATOM      6  C   UNL     1       1.688   7.262   7.933  0.00  0.00    +0.013 A 
ATOM      7  C   UNL     1       2.523   6.970   8.989  0.00  0.00    +0.001 A 
ATOM      8  C   UNL     1       2.505   5.711   9.572  0.00  0.00    +0.002 A 
ATOM      9  C   UNL     1       1.655   4.731   9.104  0.00  0.00    +0.028 A 
ATOM     10  C   UNL     1       0.807   5.005   8.041  0.00  0.00    +0.080 A 
ATOM     11  N   UNL     1      -0.063   4.055   7.538  0.00  0.00    -0.192 N 
ATOM     12  N   UNL     1      -0.330   2.724   7.878  0.00  0.00    -0.057 NA
ATOM     13  N   UNL     1      -1.246   2.276   7.093  0.00  0.00    -0.108 NA
ATOM     14  N   UNL     1      -0.108   7.776   5.710  0.00  0.00    -0.326 N 
ATOM     15  H   UNL     1       0.480   8.482   6.021  0.00  0.00    +0.148 HD
ENDROOT
BRANCH  14  16
ATOM     16  C   UNL     1      -1.019   8.023   4.590  0.00  0.00    +0.072 C 
ATOM     17  C   UNL     1      -0.353   7.601   3.264  0.00  0.00    +0.022 C 
ATOM     18  C   UNL     1      -0.829   8.666   2.245  0.00  0.00    +0.002 C 
ATOM     19  C   UNL     1      -0.820   9.969   3.082  0.00  0.00    +0.002 C 
ATOM     20  C   UNL     1      -1.317   9.528   4.474  0.00  0.00    +0.022 C 
ENDBRANCH  14  16
BRANCH   1  21
ATOM     21  S   UNL     1      -2.837   3.032   4.972  0.00  0.00    +0.047 S 
ATOM     22  O   UNL     1      -3.318   4.337   4.680  0.00  0.00    -0.163 OA
ATOM     23  O   UNL     1      -3.696   1.979   5.390  0.00  0.00    -0.163 OA
BRANCH  21  27
ATOM     24  C   UNL     1      -0.718   1.572   1.248  0.00  0.00    -0.045 A 
ATOM     25  C   UNL     1      -0.856   2.928   1.478  0.00  0.00    +0.006 A 
ATOM     26  C   UNL     1      -1.506   3.374   2.614  0.00  0.00    +0.028 A 
ATOM     27  C   UNL     1      -2.012   2.463   3.523  0.00  0.00    +0.095 A 
ATOM     28  C   UNL     1      -1.870   1.107   3.295  0.00  0.00    +0.028 A 
ATOM     29  C   UNL     1      -1.222   0.662   2.158  0.00  0.00    +0.006 A 
BRANCH  24  31
ATOM     30  C   UNL     1       1.423   1.615  -0.003  0.00  0.00    +0.012 C 
ATOM     31  C   UNL     1      -0.013   1.086   0.008  0.00  0.00    +0.013 C 
ATOM     32  C   UNL     1      -0.753   1.593  -1.232  0.00  0.00    +0.012 C 
ENDBRANCH  24  31
ENDBRANCH  21  27
ENDBRANCH   1  21
TORSDOF 4
