REMARK  Name = ZINC14995556
REMARK  12 active torsions:
REMARK  status: ('A' for Active; 'I' for Inactive)
REMARK    1  A    between atoms: C_1  and  O_2
REMARK    2  A    between atoms: O_2  and  C_3
REMARK    3  A    between atoms: C_3  and  C_5
REMARK    4  A    between atoms: C_8  and  C_11
REMARK    5  A    between atoms: C_11  and  N_12
REMARK    6  A    between atoms: N_12  and  C_13
REMARK    7  A    between atoms: C_13  and  C_14
REMARK    8  A    between atoms: C_14  and  C_15
REMARK    9  A    between atoms: N_21  and  C_22
REMARK   10  A    between atoms: C_22  and  C_23
REMARK   11  A    between atoms: C_23  and  C_25
REMARK   12  A    between atoms: C_23  and  N_31
REMARK                            x       y       z     vdW  Elec       q    Type
REMARK                         _______ _______ _______ _____ _____    ______ ____
ROOT
ATOM      1  C   UNL     1       6.641   3.202   0.780  0.00  0.00    +0.075 C 
ATOM      2  C   UNL     1       7.517   4.193  -0.021  0.00  0.00    +0.031 C 
ATOM      3  C   UNL     1       6.619   5.452  -0.050  0.00  0.00    +0.098 C 
ATOM      4  C   UNL     1       5.216   4.910   0.112  0.00  0.00    +0.216 C 
ATOM      5  O   UNL     1       4.201   5.526  -0.135  0.00  0.00    -0.276 OA
ATOM      6  N   UNL     1       5.258   3.647   0.569  0.00  0.00    -0.297 N 
ENDROOT
BRANCH   1   7
ATOM      7  C   UNL     1       6.827   1.781   0.244  0.00  0.00    +0.003 C 
BRANCH   7   8
ATOM      8  C   UNL     1       8.251   1.307   0.540  0.00  0.00    -0.080 C 
BRANCH   8   9
ATOM      9  N   UNL     1       8.467  -0.011  -0.074  0.00  0.00    +0.382 N 
ATOM     10  H   UNL     1       8.403   0.095  -1.167  0.00  0.00    -0.085 HD
ATOM     11  H   UNL     1       7.679  -0.695   0.275  0.00  0.00    -0.085 HD
BRANCH   9  12
ATOM     12  C   UNL     1       9.783  -0.552   0.290  0.00  0.00    -0.047 C 
BRANCH  12  16
ATOM     13  C   UNL     1      10.444  -4.222  -1.804  0.00  0.00    +0.059 A 
ATOM     14  C   UNL     1      10.839  -3.009  -2.372  0.00  0.00    +0.015 A 
ATOM     15  C   UNL     1      10.622  -1.829  -1.691  0.00  0.00    +0.002 A 
ATOM     16  C   UNL     1      10.015  -1.845  -0.448  0.00  0.00    -0.064 A 
ATOM     17  C   UNL     1       9.626  -3.044   0.124  0.00  0.00    +0.002 A 
ATOM     18  C   UNL     1       9.832  -4.231  -0.549  0.00  0.00    +0.015 A 
BRANCH  13  19
ATOM     19  C   UNL     1      10.672  -5.489  -2.527  0.00  0.00    +0.339 C 
ATOM     20  O   UNL     1      11.204  -5.478  -3.619  0.00  0.00    -0.245 OA
BRANCH  19  22
ATOM     21  C   UNL     1      10.545  -7.864  -2.744  0.00  0.00    +0.280 C 
ATOM     22  O   UNL     1      10.289  -6.658  -1.976  0.00  0.00    -0.464 OA
ENDBRANCH  19  22
ENDBRANCH  13  19
ENDBRANCH  12  16
ENDBRANCH   9  12
ENDBRANCH   8   9
ENDBRANCH   7   8
ENDBRANCH   1   7
BRANCH   6  23
ATOM     23  C   UNL     1       4.076   2.822   0.830  0.00  0.00    +0.131 C 
BRANCH  23  24
ATOM     24  C   UNL     1       3.805   1.922  -0.378  0.00  0.00    +0.104 C 
BRANCH  24  25
ATOM     25  C   UNL     1       2.537   1.140  -0.148  0.00  0.00    -0.026 A 
ATOM     26  C   UNL     1       1.308   1.780  -0.099  0.00  0.00    +0.025 A 
ATOM     27  C   UNL     1       0.167   1.030   0.113  0.00  0.00    +0.111 A 
ATOM     28  N   UNL     1       0.238  -0.277   0.268  0.00  0.00    -0.263 NA
ATOM     29  C   UNL     1       1.389  -0.919   0.228  0.00  0.00    +0.111 A 
ATOM     30  C   UNL     1       2.572  -0.236   0.019  0.00  0.00    +0.025 A 
ENDBRANCH  24  25
BRANCH  24  31
ATOM     31  N   UNL     1       3.659   2.750  -1.582  0.00  0.00    -0.290 NA
ATOM     32  C   UNL     1       2.774   2.102  -2.562  0.00  0.00    +0.113 C 
ATOM     33  C   UNL     1       2.602   3.023  -3.772  0.00  0.00    +0.175 C 
ATOM     34  O   UNL     1       3.887   3.327  -4.321  0.00  0.00    -0.377 OA
ATOM     35  C   UNL     1       4.774   3.958  -3.394  0.00  0.00    +0.175 C 
ATOM     36  C   UNL     1       4.969   3.047  -2.180  0.00  0.00    +0.113 C 
ENDBRANCH  24  31
ENDBRANCH  23  24
ENDBRANCH   6  23
TORSDOF 11
