REMARK  Name = ZINC44862194
REMARK  6 active torsions:
REMARK  status: ('A' for Active; 'I' for Inactive)
REMARK    1  A    between atoms: C_1  and  C_2
REMARK    2  A    between atoms: C_2  and  C_3
REMARK    3  A    between atoms: C_3  and  C_4
REMARK    4  A    between atoms: C_4  and  C_6
REMARK    5  A    between atoms: C_4  and  C_10
REMARK    6  A    between atoms: N_7  and  O_8
REMARK                            x       y       z     vdW  Elec       q    Type
REMARK                         _______ _______ _______ _____ _____    ______ ____
ROOT
ATOM      1  C   UNL     1      -1.413  -2.063   0.004  0.00  0.00    +0.141 C 
ENDROOT
BRANCH   1   2
ATOM      2  C   UNL     1      -2.822  -2.584  -0.109  0.00  0.00    +0.226 C 
ATOM      3  O   UNL     1      -3.752  -1.808  -0.176  0.00  0.00    -0.275 OA
ATOM      4  N   UNL     1      -3.050  -3.913  -0.135  0.00  0.00    -0.296 N 
ATOM      5  C   UNL     1      -4.420  -4.432  -0.251  0.00  0.00    +0.113 C 
ATOM      6  C   UNL     1      -4.543  -5.176  -1.590  0.00  0.00    +0.061 C 
ATOM      7  C   UNL     1      -3.319  -6.011  -1.787  0.00  0.00    -0.004 A 
ATOM      8  C   UNL     1      -2.128  -5.915  -1.137  0.00  0.00    -0.020 A 
ATOM      9  C   UNL     1      -1.134  -6.816  -1.516  0.00  0.00    +0.013 A 
ATOM     10  C   UNL     1      -1.381  -7.730  -2.482  0.00  0.00    +0.046 A 
ATOM     11  S   UNL     1      -3.073  -7.356  -2.917  0.00  0.00    -0.101 S 
ATOM     12  C   UNL     1      -1.931  -4.862  -0.054  0.00  0.00    +0.143 C 
ENDBRANCH   1   2
BRANCH   1  13
ATOM     13  C   UNL     1      -0.793  -2.564   1.284  0.00  0.00    +0.144 C 
ATOM     14  N   UNL     1      -1.546  -2.888   2.283  0.00  0.00    -0.076 NA
ATOM     15  N   UNL     1       0.576  -2.678   1.388  0.00  0.00    -0.343 N 
ATOM     16  H   UNL     1       1.141  -2.436   0.637  0.00  0.00    +0.144 HD
ATOM     17  H   UNL     1       0.974  -3.001   2.211  0.00  0.00    +0.144 HD
BRANCH  14  18
ATOM     18  O   UNL     1      -0.964  -3.358   3.485  0.00  0.00    -0.408 OA
ATOM     19  H   UNL     1      -1.606  -3.575   4.174  0.00  0.00    +0.328 HD
ENDBRANCH  14  18
ENDBRANCH   1  13
BRANCH   1  20
ATOM     20  C   UNL     1      -1.433  -0.534   0.013  0.00  0.00    +0.020 C 
BRANCH  20  22
ATOM     21  C   UNL     1      -0.019   1.526   0.010  0.00  0.00    +0.004 C 
ATOM     22  C   UNL     1       0.002  -0.004   0.002  0.00  0.00    -0.002 C 
ENDBRANCH  20  22
ENDBRANCH   1  20
TORSDOF 5
