REMARK  Name = ZINC13959839
REMARK  7 active torsions:
REMARK  status: ('A' for Active; 'I' for Inactive)
REMARK    1  A    between atoms: C_1  and  C_2
REMARK    2  A    between atoms: C_2  and  C_3
REMARK    3  A    between atoms: C_3  and  C_5
REMARK    4  A    between atoms: C_3  and  N_15
REMARK    5  A    between atoms: C_16  and  C_18
REMARK    6  A    between atoms: C_23  and  O_24
REMARK    7  A    between atoms: O_24  and  C_25
REMARK                            x       y       z     vdW  Elec       q    Type
REMARK                         _______ _______ _______ _____ _____    ______ ____
ROOT
ATOM      1  N   UNL     1      -0.698   1.558   1.213  0.00  0.00    -0.308 N 
ATOM      2  C   UNL     1      -0.575   0.877   2.369  0.00  0.00    +0.248 C 
ATOM      3  O   UNL     1       0.105  -0.130   2.412  0.00  0.00    -0.270 OA
ATOM      4  H   UNL     1      -1.241   2.362   1.179  0.00  0.00    +0.149 HD
ENDROOT
BRANCH   2   5
ATOM      5  C   UNL     1      -1.266   1.353   3.583  0.00  0.00    +0.080 A 
ATOM      6  C   UNL     1      -2.048   2.509   3.539  0.00  0.00    +0.032 A 
ATOM      7  C   UNL     1      -2.692   2.948   4.676  0.00  0.00    +0.019 A 
ATOM      8  C   UNL     1      -2.566   2.246   5.865  0.00  0.00    +0.019 A 
ATOM      9  C   UNL     1      -1.795   1.102   5.923  0.00  0.00    +0.048 A 
ATOM     10  C   UNL     1      -1.145   0.644   4.786  0.00  0.00    +0.139 A 
ATOM     11 BR   UNL     1      -3.750   4.514   4.615  0.00  0.00    -0.050 Br
BRANCH  10  12
ATOM     12  O   UNL     1      -0.393  -0.484   4.840  0.00  0.00    -0.433 OA
BRANCH  12  13
ATOM     13  C   UNL     1      -0.317  -1.153   6.100  0.00  0.00    +0.541 C 
ATOM     14  F   UNL     1       0.232  -0.290   7.055  0.00  0.00    -0.166 F 
ATOM     15  F   UNL     1      -1.600  -1.539   6.502  0.00  0.00    -0.166 F 
ENDBRANCH  12  13
ENDBRANCH  10  12
ENDBRANCH   2   5
BRANCH   1  16
ATOM     16  C   UNL     1      -0.013   1.086   0.008  0.00  0.00    +0.079 C 
BRANCH  16  17
ATOM     17  C   UNL     1      -0.753   1.593  -1.232  0.00  0.00    -0.010 C 
ATOM     18  C   UNL     1      -0.037   1.099  -2.490  0.00  0.00    +0.012 C 
ATOM     19  C   UNL     1      -0.777   1.606  -3.730  0.00  0.00    -0.010 C 
ATOM     20  C   UNL     1      -2.212   1.077  -3.719  0.00  0.00    +0.007 C 
ATOM     21  C   UNL     1      -2.928   1.570  -2.460  0.00  0.00    -0.010 C 
ATOM     22  C   UNL     1      -2.188   1.063  -1.221  0.00  0.00    +0.012 C 
ATOM     23  C   UNL     1      -2.949   3.100  -2.452  0.00  0.00    +0.007 C 
ATOM     24  C   UNL     1      -1.513   3.629  -2.463  0.00  0.00    -0.010 C 
ATOM     25  C   UNL     1      -0.797   3.136  -3.721  0.00  0.00    +0.007 C 
ATOM     26  C   UNL     1      -0.773   3.123  -1.223  0.00  0.00    +0.012 C 
ENDBRANCH  16  17
BRANCH  16  28
ATOM     27  C   UNL     1       2.199   1.009   1.168  0.00  0.00    +0.006 C 
ATOM     28  C   UNL     1       1.423   1.615  -0.003  0.00  0.00    +0.019 C 
ENDBRANCH  16  28
ENDBRANCH   1  16
TORSDOF 6
