REMARK  Name = ZINC29781938
REMARK  5 active torsions:
REMARK  status: ('A' for Active; 'I' for Inactive)
REMARK    1  A    between atoms: C_1  and  C_2
REMARK    2  A    between atoms: C_2  and  C_3
REMARK    3  A    between atoms: C_2  and  C_4
REMARK    4  A    between atoms: C_4  and  N_5
REMARK    5  A    between atoms: C_7  and  C_12
REMARK                            x       y       z     vdW  Elec       q    Type
REMARK                         _______ _______ _______ _____ _____    ______ ____
ROOT
ATOM      1  C   UNL     1       0.114   2.023  -2.323  0.00  0.00    +0.224 C 
ATOM      2  O   UNL     1       0.140   3.174  -2.706  0.00  0.00    -0.275 OA
ATOM      3  N   UNL     1       0.911   1.102  -2.900  0.00  0.00    -0.264 N 
ATOM      4  C   UNL     1       1.764   1.472  -3.934  0.00  0.00    +0.165 A 
ATOM      5  N   UNL     1       2.610   0.727  -4.617  0.00  0.00    -0.229 NA
ATOM      6  C   UNL     1       3.378   1.230  -5.587  0.00  0.00    +0.054 A 
ATOM      7  C   UNL     1       3.209   2.540  -5.844  0.00  0.00    +0.014 A 
ATOM      8  S   UNL     1       1.985   3.034  -4.665  0.00  0.00    -0.057 S 
ATOM      9  C   UNL     1       3.897   3.357  -6.907  0.00  0.00    +0.044 C 
ATOM     10  C   UNL     1       5.380   3.466  -6.501  0.00  0.00    +0.005 C 
ATOM     11  C   UNL     1       6.107   2.188  -6.845  0.00  0.00    +0.001 C 
ATOM     12  C   UNL     1       5.797   0.983  -5.996  0.00  0.00    +0.006 C 
ATOM     13  C   UNL     1       4.424   0.389  -6.323  0.00  0.00    +0.056 C 
ATOM     14  H   UNL     1       0.887   0.059  -2.553  0.00  0.00    +0.157 HD
ENDROOT
BRANCH   1  17
ATOM     15  N   UNL     1      -1.608   2.586   0.844  0.00  0.00    -0.300 N 
ATOM     16  C   UNL     1      -1.511   2.859  -0.595  0.00  0.00    +0.121 C 
ATOM     17  C   UNL     1      -0.811   1.623  -1.203  0.00  0.00    +0.101 C 
ATOM     18  C   UNL     1      -0.013   1.086   0.008  0.00  0.00    +0.110 C 
ATOM     19  C   UNL     1      -0.771   1.598   1.213  0.00  0.00    +0.216 C 
ATOM     20  O   UNL     1      -0.643   1.179   2.344  0.00  0.00    -0.276 OA
BRANCH  15  21
ATOM     21  C   UNL     1      -2.500   3.299   1.761  0.00  0.00    +0.110 C 
BRANCH  21  23
ATOM     22  C   UNL     1      -3.654   1.190   2.445  0.00  0.00    +0.009 C 
ATOM     23  C   UNL     1      -3.848   2.576   1.827  0.00  0.00    +0.000 C 
ATOM     24  C   UNL     1      -4.820   3.387   2.686  0.00  0.00    +0.009 C 
ENDBRANCH  21  23
ENDBRANCH  15  21
ENDBRANCH   1  17
TORSDOF 3
