REMARK  Name = ZINC12009443
REMARK  6 active torsions:
REMARK  status: ('A' for Active; 'I' for Inactive)
REMARK    1  A    between atoms: C_1  and  S_2
REMARK    2  A    between atoms: S_2  and  C_3
REMARK    3  A    between atoms: C_8  and  C_9
REMARK    4  A    between atoms: N_11  and  C_12
REMARK    5  A    between atoms: C_14  and  C_31
REMARK    6  A    between atoms: C_23  and  C_25
REMARK                            x       y       z     vdW  Elec       q    Type
REMARK                         _______ _______ _______ _____ _____    ______ ____
ROOT
ATOM      1  C   UNL     1      -1.174   1.670   0.146  0.00  0.00    +0.133 A 
ATOM      2  C   UNL     1      -0.027   0.951   0.239  0.00  0.00    +0.077 A 
ATOM      3  C   UNL     1       1.043   1.860   0.377  0.00  0.00    +0.130 A 
ATOM      4  N   UNL     1       0.548   3.082   0.373  0.00  0.00    -0.159 NA
ATOM      5  N   UNL     1      -0.843   2.992   0.233  0.00  0.00    -0.184 N 
ATOM      6  C   UNL     1      -1.724   4.056   0.184  0.00  0.00    +0.234 A 
ATOM      7  N   UNL     1      -1.949   4.679  -1.003  0.00  0.00    -0.291 N 
ATOM      8  H   UNL     1      -1.493   4.375  -1.803  0.00  0.00    +0.172 HD
ATOM      9  C   UNL     1      -2.810   5.716  -1.072  0.00  0.00    +0.253 A 
ATOM     10  O   UNL     1      -3.022   6.278  -2.134  0.00  0.00    -0.268 OA
ATOM     11  C   UNL     1      -3.454   6.140   0.102  0.00  0.00    +0.098 A 
ATOM     12  C   UNL     1      -3.183   5.472   1.286  0.00  0.00    +0.080 A 
ATOM     13  N   UNL     1      -2.321   4.445   1.287  0.00  0.00    -0.212 NA
ENDROOT
BRANCH  12  14
ATOM     14  C   UNL     1      -3.844   5.891   2.545  0.00  0.00    +0.001 A 
ATOM     15  C   UNL     1      -4.816   6.890   2.526  0.00  0.00    +0.010 A 
ATOM     16  C   UNL     1      -5.431   7.272   3.701  0.00  0.00    +0.001 A 
ATOM     17  C   UNL     1      -5.076   6.675   4.897  0.00  0.00    +0.000 A 
ATOM     18  C   UNL     1      -4.108   5.686   4.923  0.00  0.00    +0.001 A 
ATOM     19  C   UNL     1      -3.490   5.292   3.754  0.00  0.00    +0.010 A 
ENDBRANCH  12  14
BRANCH   3  20
ATOM     20  C   UNL     1       2.472   1.505   0.506  0.00  0.00    +0.155 A 
ATOM     21  C   UNL     1       3.503   2.381   0.634  0.00  0.00    +0.051 A 
ATOM     22  C   UNL     1       4.680   1.611   0.728  0.00  0.00    +0.042 A 
ATOM     23  C   UNL     1       4.313   0.318   0.645  0.00  0.00    +0.196 A 
ATOM     24  O   UNL     1       2.978   0.257   0.510  0.00  0.00    -0.461 OA
ENDBRANCH   3  20
BRANCH   1  27
ATOM     25  C   UNL     1      -2.657  -0.179   0.038  0.00  0.00    +0.250 C 
ATOM     26  O   UNL     1      -1.707  -0.934   0.114  0.00  0.00    -0.270 OA
ATOM     27  N   UNL     1      -2.458   1.153  -0.006  0.00  0.00    -0.266 N 
ATOM     28  H   UNL     1      -3.208   1.751  -0.144  0.00  0.00    +0.157 HD
BRANCH  25  34
ATOM     29  C   UNL     1      -4.248  -2.099   0.158  0.00  0.00    +0.020 A 
ATOM     30  C   UNL     1      -5.545  -2.596   0.115  0.00  0.00    +0.015 A 
ATOM     31  C   UNL     1      -6.607  -1.740  -0.086  0.00  0.00    +0.001 A 
ATOM     32  C   UNL     1      -6.393  -0.380  -0.247  0.00  0.00    +0.001 A 
ATOM     33  C   UNL     1      -5.115   0.133  -0.203  0.00  0.00    +0.014 A 
ATOM     34  C   UNL     1      -4.027  -0.721  -0.005  0.00  0.00    +0.050 A 
BRANCH  29  36
ATOM     35  C   UNL     1      -3.659  -4.824   0.565  0.00  0.00    +0.090 C 
ATOM     36  S   UNL     1      -2.888  -3.189   0.415  0.00  0.00    -0.128 S 
ENDBRANCH  29  36
ENDBRANCH  25  34
ENDBRANCH   1  27
TORSDOF 5
