REMARK  Name = ZINC11527205
REMARK  8 active torsions:
REMARK  status: ('A' for Active; 'I' for Inactive)
REMARK    1  A    between atoms: C_1  and  C_2
REMARK    2  A    between atoms: C_2  and  C_3
REMARK    3  A    between atoms: C_2  and  C_4
REMARK    4  A    between atoms: C_4  and  C_6
REMARK    5  A    between atoms: C_4  and  N_17
REMARK    6  A    between atoms: N_8  and  C_9
REMARK    7  A    between atoms: C_14  and  N_54
REMARK    8  A    between atoms: C_18  and  C_20
REMARK                            x       y       z     vdW  Elec       q    Type
REMARK                         _______ _______ _______ _____ _____    ______ ____
ROOT
ATOM      1  C   UNL     1       1.091   3.647  -0.115  0.00  0.00    +0.162 C 
ENDROOT
BRANCH   1   2
ATOM      2  C   UNL     1       1.206   2.152   0.041  0.00  0.00    +0.234 C 
ATOM      3  O   UNL     1       2.263   1.657   0.370  0.00  0.00    -0.274 OA
ATOM      4  N   UNL     1       0.135   1.367  -0.186  0.00  0.00    -0.311 N 
ATOM      5  H   UNL     1      -0.727   1.767  -0.382  0.00  0.00    +0.149 HD
BRANCH   4   6
ATOM      6  C   UNL     1       0.273  -0.091  -0.142  0.00  0.00    +0.069 C 
ATOM      7  C   UNL     1       0.743  -0.602  -1.507  0.00  0.00    +0.003 C 
ATOM      8  C   UNL     1       0.827  -2.129  -1.473  0.00  0.00    -0.077 C 
ATOM      9  C   UNL     1      -0.944  -2.248   0.177  0.00  0.00    -0.077 C 
ATOM     10  C   UNL     1      -1.081  -0.724   0.193  0.00  0.00    +0.003 C 
ATOM     11  N   UNL     1      -0.512  -2.677  -1.171  0.00  0.00    +0.382 N 
ATOM     12  H   UNL     1      -1.182  -2.322  -1.863  0.00  0.00    -0.081 HD
BRANCH  11  13
ATOM     13  C   UNL     1      -0.483  -4.152  -1.245  0.00  0.00    -0.069 C 
ATOM     14  C   UNL     1       0.868  -4.837  -1.460  0.00  0.00    -0.017 C 
ATOM     15  C   UNL     1      -0.147  -4.770  -2.604  0.00  0.00    -0.017 C 
ENDBRANCH  11  13
ENDBRANCH   4   6
ENDBRANCH   1   2
BRANCH   1  16
ATOM     16  N   UNL     1       2.424   4.221  -0.312  0.00  0.00    -0.300 N 
ATOM     17  C   UNL     1       2.563   5.397  -0.957  0.00  0.00    +0.246 C 
ATOM     18  O   UNL     1       1.582   5.981  -1.374  0.00  0.00    -0.270 OA
ATOM     19  H   UNL     1       3.207   3.756   0.021  0.00  0.00    +0.150 HD
BRANCH  17  20
ATOM     20  C   UNL     1       3.907   5.976  -1.155  0.00  0.00    +0.055 A 
ATOM     21  C   UNL     1       5.037   5.308  -0.677  0.00  0.00    +0.016 A 
ATOM     22  C   UNL     1       6.288   5.854  -0.865  0.00  0.00    +0.021 A 
ATOM     23  C   UNL     1       6.429   7.063  -1.528  0.00  0.00    +0.042 A 
ATOM     24  C   UNL     1       5.314   7.731  -2.005  0.00  0.00    +0.040 A 
ATOM     25  C   UNL     1       4.055   7.192  -1.828  0.00  0.00    +0.054 A 
ATOM     26 CL   UNL     1       2.659   8.027  -2.433  0.00  0.00    -0.083 Cl
ATOM     27 CL   UNL     1       8.009   7.742  -1.760  0.00  0.00    -0.083 Cl
ENDBRANCH  17  20
ENDBRANCH   1  16
BRANCH   1  29
ATOM     28  C   UNL     1       1.404   4.046   2.331  0.00  0.00    +0.009 C 
ATOM     29  C   UNL     1       0.460   4.244   1.144  0.00  0.00    +0.012 C 
ATOM     30  C   UNL     1       0.214   5.739   0.932  0.00  0.00    +0.009 C 
ENDBRANCH   1  29
TORSDOF 6
