REMARK  Name = ZINC06193899
REMARK  16 active torsions:
REMARK  status: ('A' for Active; 'I' for Inactive)
REMARK    1  A    between atoms: C_1  and  C_2
REMARK    2  A    between atoms: C_4  and  C_38
REMARK    3  A    between atoms: C_6  and  N_8
REMARK    4  A    between atoms: N_8  and  C_9
REMARK    5  A    between atoms: C_9  and  C_11
REMARK    6  A    between atoms: C_9  and  C_20
REMARK    7  A    between atoms: C_14  and  N_17
REMARK    8  A    between atoms: N_17  and  C_18
REMARK    9  A    between atoms: N_17  and  C_19
REMARK   10  A    between atoms: N_22  and  C_23
REMARK   11  A    between atoms: C_23  and  C_24
REMARK   12  A    between atoms: C_24  and  O_25
REMARK   13  A    between atoms: O_25  and  C_26
REMARK   14  A    between atoms: C_27  and  C_29
REMARK   15  A    between atoms: C_30  and  N_37
REMARK   16  A    between atoms: C_31  and  C_34
REMARK                            x       y       z     vdW  Elec       q    Type
REMARK                         _______ _______ _______ _____ _____    ______ ____
ROOT
ATOM      1  N   UNL     1      -0.015   5.673  -0.169  0.00  0.00    -0.251 N 
ATOM      2  C   UNL     1       0.941   6.163   0.645  0.00  0.00    +0.262 C 
ATOM      3  O   UNL     1       0.641   6.921   1.549  0.00  0.00    -0.269 OA
ENDROOT
BRANCH   1   9
ATOM      4  C   UNL     1       1.324   1.331  -2.045  0.00  0.00    +0.044 C 
ATOM      5  C   UNL     1       0.995   2.791  -2.216  0.00  0.00    -0.048 A 
ATOM      6  C   UNL     1       1.042   3.367  -3.473  0.00  0.00    +0.006 A 
ATOM      7  C   UNL     1       0.745   4.708  -3.634  0.00  0.00    -0.048 A 
ATOM      8  C   UNL     1       0.389   5.474  -2.541  0.00  0.00    +0.027 A 
ATOM      9  C   UNL     1       0.340   4.899  -1.278  0.00  0.00    +0.038 A 
ATOM     10  C   UNL     1       0.644   3.553  -1.119  0.00  0.00    +0.027 A 
ATOM     11  C   UNL     1       0.805   5.333  -5.004  0.00  0.00    +0.044 C 
ENDBRANCH   1   9
BRANCH   2  12
ATOM     12  C   UNL     1       2.340   5.784   0.442  0.00  0.00    +0.116 A 
ATOM     13  C   UNL     1       3.467   6.124   1.192  0.00  0.00    +0.076 A 
ATOM     14  C   UNL     1       4.638   5.565   0.681  0.00  0.00    +0.155 A 
ATOM     15  N   UNL     1       4.575   4.813  -0.396  0.00  0.00    -0.203 NA
ATOM     16  S   UNL     1       3.059   4.758  -0.824  0.00  0.00    +0.019 S 
BRANCH  14  17
ATOM     17  C   UNL     1       5.933   5.813   1.341  0.00  0.00    +0.262 C 
ATOM     18  O   UNL     1       5.984   6.510   2.337  0.00  0.00    -0.269 OA
ATOM     19  N   UNL     1       7.060   5.269   0.841  0.00  0.00    -0.324 N 
ATOM     20  H   UNL     1       7.019   4.714   0.047  0.00  0.00    +0.145 HD
ATOM     21  H   UNL     1       7.912   5.433   1.276  0.00  0.00    +0.145 HD
ENDBRANCH  14  17
BRANCH  13  22
ATOM     22  N   UNL     1       3.427   6.930   2.323  0.00  0.00    -0.355 N 
ATOM     23  H   UNL     1       2.581   7.290   2.631  0.00  0.00    +0.142 HD
ATOM     24  H   UNL     1       4.245   7.132   2.804  0.00  0.00    +0.142 HD
ENDBRANCH  13  22
ENDBRANCH   2  12
BRANCH   1  25
ATOM     25  C   UNL     1      -1.427   5.951   0.108  0.00  0.00    +0.197 C 
BRANCH  25  26
ATOM     26  C   UNL     1      -2.274   5.420  -1.019  0.00  0.00    -0.018 A 
ATOM     27  C   UNL     1      -2.240   4.074  -1.332  0.00  0.00    +0.008 A 
ATOM     28  C   UNL     1      -3.020   3.583  -2.361  0.00  0.00    +0.023 A 
ATOM     29  C   UNL     1      -3.830   4.445  -3.089  0.00  0.00    +0.029 A 
ATOM     30  C   UNL     1      -3.857   5.798  -2.775  0.00  0.00    +0.023 A 
ATOM     31  C   UNL     1      -3.079   6.281  -1.742  0.00  0.00    +0.008 A 
BRANCH  29  32
ATOM     32  N   UNL     1      -4.615   3.953  -4.134  0.00  0.00    -0.336 N 
ATOM     33  C   UNL     1      -5.369   4.878  -4.982  0.00  0.00    +0.129 C 
ATOM     34  C   UNL     1      -4.685   2.510  -4.381  0.00  0.00    +0.129 C 
ENDBRANCH  29  32
ENDBRANCH  25  26
BRANCH  25  35
ATOM     35  C   UNL     1      -1.827   5.281   1.397  0.00  0.00    +0.239 C 
ATOM     36  O   UNL     1      -1.014   4.634   2.022  0.00  0.00    -0.273 OA
ATOM     37  N   UNL     1      -3.089   5.400   1.855  0.00  0.00    -0.311 N 
ATOM     38  H   UNL     1      -3.740   5.917   1.354  0.00  0.00    +0.149 HD
BRANCH  37  39
ATOM     39  C   UNL     1      -3.479   4.748   3.107  0.00  0.00    +0.132 C 
BRANCH  39  40
ATOM     40  C   UNL     1      -4.952   5.039   3.397  0.00  0.00    +0.178 C 
BRANCH  40  41
ATOM     41  O   UNL     1      -5.764   4.434   2.388  0.00  0.00    -0.381 OA
ATOM     42  C   UNL     1      -7.166   4.647   2.565  0.00  0.00    +0.194 C 
ENDBRANCH  40  41
ENDBRANCH  39  40
ENDBRANCH  37  39
ENDBRANCH  25  35
ENDBRANCH   1  25
TORSDOF 11
