REMARK  Name = ZINC00650553
REMARK  9 active torsions:
REMARK  status: ('A' for Active; 'I' for Inactive)
REMARK    1  A    between atoms: C_1  and  C_2
REMARK    2  A    between atoms: C_3  and  C_24
REMARK    3  A    between atoms: C_4  and  C_14
REMARK    4  A    between atoms: C_16  and  O_22
REMARK    5  A    between atoms: C_17  and  O_21
REMARK    6  A    between atoms: O_22  and  C_23
REMARK    7  A    between atoms: N_26  and  C_27
REMARK    8  A    between atoms: C_32  and  O_33
REMARK    9  A    between atoms: O_33  and  C_34
REMARK                            x       y       z     vdW  Elec       q    Type
REMARK                         _______ _______ _______ _____ _____    ______ ____
ROOT
ATOM      1  C   UNL     1       3.209   3.169  -0.740  0.00  0.00    +0.061 C 
ATOM      2  C   UNL     1       1.793   2.657  -0.784  0.00  0.00    +0.014 C 
ATOM      3  C   UNL     1       1.443   1.599  -0.035  0.00  0.00    +0.043 C 
ATOM      4  C   UNL     1       0.041   1.065  -0.048  0.00  0.00    +0.090 C 
ATOM      5  C   UNL     1      -0.715   1.558  -1.256  0.00  0.00    +0.024 C 
ATOM      6  C   UNL     1      -0.277   2.627  -1.955  0.00  0.00    +0.015 C 
ATOM      7  N   UNL     1       0.872   3.273  -1.587  0.00  0.00    -0.321 N 
ATOM      8  C   UNL     1      -1.039   3.138  -3.152  0.00  0.00    +0.051 C 
ATOM      9  C   UNL     1      -1.750   1.971  -3.844  0.00  0.00    +0.014 C 
ATOM     10  C   UNL     1      -2.686   1.304  -2.832  0.00  0.00    +0.080 C 
ATOM     11  C   UNL     1      -1.885   0.875  -1.633  0.00  0.00    +0.162 C 
ATOM     12  O   UNL     1      -2.256  -0.079  -0.978  0.00  0.00    -0.292 OA
ATOM     13  H   UNL     1       1.052   4.298  -1.943  0.00  0.00    +0.152 HD
ENDROOT
BRANCH   4  14
ATOM     14  C   UNL     1      -0.673   1.518   1.200  0.00  0.00    -0.031 A 
ATOM     15  C   UNL     1      -1.164   0.583   2.092  0.00  0.00    +0.054 A 
ATOM     16  C   UNL     1      -1.815   0.998   3.243  0.00  0.00    +0.163 A 
ATOM     17  C   UNL     1      -1.983   2.357   3.492  0.00  0.00    +0.173 A 
ATOM     18  C   UNL     1      -1.494   3.289   2.591  0.00  0.00    +0.063 A 
ATOM     19  C   UNL     1      -0.839   2.868   1.447  0.00  0.00    +0.023 A 
ATOM     20 BR   UNL     1      -1.719   5.137   2.925  0.00  0.00    -0.046 Br
BRANCH  17  21
ATOM     21  O   UNL     1      -2.627   2.769   4.616  0.00  0.00    -0.503 OA
ATOM     22  H   UNL     1      -2.760   3.844   4.812  0.00  0.00    +0.292 HD
ENDBRANCH  17  21
BRANCH  16  23
ATOM     23  O   UNL     1      -2.294   0.080   4.123  0.00  0.00    -0.491 OA
ATOM     24  C   UNL     1      -2.085  -1.297   3.803  0.00  0.00    +0.277 C 
ENDBRANCH  16  23
ENDBRANCH   4  14
BRANCH   3  25
ATOM     25  C   UNL     1       2.417   0.974   0.782  0.00  0.00    +0.247 C 
ATOM     26  O   UNL     1       2.895  -0.096   0.450  0.00  0.00    -0.270 OA
ATOM     27  N   UNL     1       2.813   1.562   1.928  0.00  0.00    -0.279 N 
ATOM     28  H   UNL     1       2.315   2.479   2.276  0.00  0.00    +0.155 HD
BRANCH  27  29
ATOM     29  C   UNL     1       3.859   1.007   2.675  0.00  0.00    +0.076 A 
ATOM     30  C   UNL     1       4.911   0.370   2.033  0.00  0.00    +0.027 A 
ATOM     31  C   UNL     1       5.944  -0.173   2.773  0.00  0.00    +0.002 A 
ATOM     32  C   UNL     1       5.928  -0.094   4.153  0.00  0.00    +0.004 A 
ATOM     33  C   UNL     1       4.880   0.534   4.800  0.00  0.00    +0.047 A 
ATOM     34  C   UNL     1       3.843   1.086   4.066  0.00  0.00    +0.141 A 
BRANCH  34  35
ATOM     35  O   UNL     1       2.811   1.704   4.701  0.00  0.00    -0.493 OA
ATOM     36  C   UNL     1       2.861   1.748   6.129  0.00  0.00    +0.277 C 
ENDBRANCH  34  35
ENDBRANCH  27  29
ENDBRANCH   3  25
TORSDOF 6
