REMARK  Name = ZINC42029576
REMARK  4 active torsions:
REMARK  status: ('A' for Active; 'I' for Inactive)
REMARK    1  A    between atoms: C_1  and  C_2
REMARK    2  A    between atoms: C_5  and  C_9
REMARK    3  A    between atoms: C_7  and  N_8
REMARK    4  A    between atoms: N_13  and  C_14
REMARK                            x       y       z     vdW  Elec       q    Type
REMARK                         _______ _______ _______ _____ _____    ______ ____
ROOT
ATOM      1  C   UNL     1      -0.065  -4.265  -0.052  0.00  0.00    +0.187 A 
ATOM      2  N   UNL     1      -0.187  -5.059   0.992  0.00  0.00    -0.108 NA
ATOM      3  N   UNL     1       0.035  -6.279   0.659  0.00  0.00    -0.022 NA
ATOM      4  N   UNL     1       0.311  -6.362  -0.597  0.00  0.00    -0.039 NA
ATOM      5  N   UNL     1       0.252  -5.057  -1.117  0.00  0.00    -0.190 N 
ENDROOT
BRANCH   5   6
ATOM      6  C   UNL     1       0.474  -4.655  -2.441  0.00  0.00    +0.107 A 
ATOM      7  C   UNL     1       1.450  -3.710  -2.727  0.00  0.00    +0.031 A 
ATOM      8  C   UNL     1       1.668  -3.315  -4.033  0.00  0.00    +0.005 A 
ATOM      9  C   UNL     1       0.915  -3.859  -5.057  0.00  0.00    +0.041 A 
ATOM     10  C   UNL     1      -0.060  -4.802  -4.778  0.00  0.00    +0.161 A 
ATOM     11  C   UNL     1      -0.278  -5.207  -3.471  0.00  0.00    +0.184 A 
ATOM     12  F   UNL     1      -1.225  -6.131  -3.198  0.00  0.00    -0.200 F 
ATOM     13  F   UNL     1      -0.794  -5.331  -5.781  0.00  0.00    -0.202 F 
ENDBRANCH   5   6
BRANCH   1  18
ATOM     14  C   UNL     1      -0.769   1.451  -0.130  0.00  0.00    +0.045 C 
ATOM     15  C   UNL     1      -0.584  -0.044  -0.108  0.00  0.00    -0.030 A 
ATOM     16  C   UNL     1      -0.658  -0.765  -1.285  0.00  0.00    +0.006 A 
ATOM     17  C   UNL     1      -0.490  -2.135  -1.272  0.00  0.00    +0.012 A 
ATOM     18  C   UNL     1      -0.245  -2.797  -0.068  0.00  0.00    +0.023 A 
ATOM     19  C   UNL     1      -0.170  -2.070   1.119  0.00  0.00    +0.034 A 
ATOM     20  C   UNL     1      -0.335  -0.693   1.095  0.00  0.00    +0.028 A 
BRANCH  20  21
ATOM     21  N   UNL     1      -0.255   0.040   2.282  0.00  0.00    -0.358 N 
ATOM     22  H   UNL     1      -0.375   1.003   2.266  0.00  0.00    +0.142 HD
ATOM     23  H   UNL     1      -0.081  -0.413   3.121  0.00  0.00    +0.142 HD
ENDBRANCH  20  21
ENDBRANCH   1  18
TORSDOF 3
