REMARK  Name = ZINC36588412
REMARK  20 active torsions:
REMARK  status: ('A' for Active; 'I' for Inactive)
REMARK    1  A    between atoms: C_1  and  C_2
REMARK    2  A    between atoms: C_2  and  C_3
REMARK    3  A    between atoms: C_2  and  C_4
REMARK    4  A    between atoms: C_2  and  C_5
REMARK    5  A    between atoms: C_5  and  C_6
REMARK    6  A    between atoms: C_6  and  C_7
REMARK    7  A    between atoms: C_6  and  C_8
REMARK    8  A    between atoms: C_6  and  N_9
REMARK    9  A    between atoms: C_10  and  C_12
REMARK   10  A    between atoms: C_12  and  C_14
REMARK   11  A    between atoms: C_12  and  N_23
REMARK   12  A    between atoms: C_15  and  O_22
REMARK   13  A    between atoms: C_17  and  O_21
REMARK   14  A    between atoms: C_19  and  O_20
REMARK   15  A    between atoms: N_23  and  C_36
REMARK   16  A    between atoms: C_24  and  C_26
REMARK   17  A    between atoms: C_26  and  C_27
REMARK   18  A    between atoms: C_36  and  C_37
REMARK   19  A    between atoms: C_36  and  C_38
REMARK   20  A    between atoms: C_36  and  C_39
REMARK                            x       y       z     vdW  Elec       q    Type
REMARK                         _______ _______ _______ _____ _____    ______ ____
ROOT
ATOM      1  C   UNL     1       4.294   0.054  -3.442  0.00  0.00    +0.200 C 
ENDROOT
BRANCH   1   2
ATOM      2  C   UNL     1       3.636  -1.181  -4.001  0.00  0.00    +0.065 A 
ATOM      3  C   UNL     1       4.243  -2.418  -3.851  0.00  0.00    +0.129 A 
ATOM      4  C   UNL     1       3.637  -3.555  -4.366  0.00  0.00    +0.091 A 
ATOM      5  C   UNL     1       2.424  -3.454  -5.029  0.00  0.00    +0.124 A 
ATOM      6  C   UNL     1       1.816  -2.216  -5.178  0.00  0.00    +0.091 A 
ATOM      7  C   UNL     1       2.420  -1.080  -4.660  0.00  0.00    +0.129 A 
BRANCH   7   8
ATOM      8  O   UNL     1       1.822   0.132  -4.802  0.00  0.00    -0.506 OA
ATOM      9  H   UNL     1       2.074   0.603  -5.608  0.00  0.00    +0.292 HD
ENDBRANCH   7   8
BRANCH   5  10
ATOM     10  O   UNL     1       1.830  -4.567  -5.534  0.00  0.00    -0.507 OA
ATOM     11  H   UNL     1       1.231  -5.008  -4.917  0.00  0.00    +0.292 HD
ENDBRANCH   5  10
BRANCH   3  12
ATOM     12  O   UNL     1       5.432  -2.518  -3.201  0.00  0.00    -0.506 OA
ATOM     13  H   UNL     1       5.350  -2.742  -2.264  0.00  0.00    +0.292 HD
ENDBRANCH   3  12
ENDBRANCH   1   2
BRANCH   1  15
ATOM     14  N   UNL     1       4.266  -0.569  -1.048  0.00  0.00    -0.308 N 
ATOM     15  C   UNL     1       4.990  -0.289  -2.150  0.00  0.00    +0.239 C 
ATOM     16  O   UNL     1       6.202  -0.312  -2.101  0.00  0.00    -0.273 OA
ATOM     17  H   UNL     1       3.297  -0.550  -1.087  0.00  0.00    +0.149 HD
BRANCH  14  18
ATOM     18  C   UNL     1       4.942  -0.902   0.208  0.00  0.00    +0.030 C 
ATOM     19  C   UNL     1       6.009   0.152   0.508  0.00  0.00    +0.031 C 
ATOM     20  C   UNL     1       5.605  -2.276   0.081  0.00  0.00    +0.031 C 
BRANCH  18  21
ATOM     21  C   UNL     1       3.920  -0.932   1.345  0.00  0.00    +0.031 C 
BRANCH  21  23
ATOM     22  C   UNL     1       1.889   0.013   0.239  0.00  0.00    +0.010 C 
ATOM     23  C   UNL     1       3.008   0.292   1.244  0.00  0.00    -0.036 C 
ATOM     24  C   UNL     1       3.825   1.498   0.775  0.00  0.00    +0.010 C 
ATOM     25  C   UNL     1       2.400   0.591   2.615  0.00  0.00    +0.010 C 
ENDBRANCH  21  23
ENDBRANCH  18  21
ENDBRANCH  14  18
ENDBRANCH   1  15
BRANCH   1  26
ATOM     26  N   UNL     1       5.275   0.563  -4.404  0.00  0.00    -0.280 N 
ATOM     27  C   UNL     1       5.494  -0.100  -5.557  0.00  0.00    +0.221 C 
ATOM     28  O   UNL     1       4.909  -1.139  -5.780  0.00  0.00    -0.275 OA
BRANCH  26  29
ATOM     29  C   UNL     1       6.017   1.792  -4.114  0.00  0.00    +0.030 C 
ATOM     30  C   UNL     1       5.445   2.448  -2.855  0.00  0.00    +0.031 C 
ATOM     31  C   UNL     1       7.492   1.456  -3.888  0.00  0.00    +0.031 C 
ATOM     32  C   UNL     1       5.888   2.757  -5.294  0.00  0.00    +0.031 C 
ENDBRANCH  26  29
BRANCH  27  33
ATOM     33  C   UNL     1       6.466   0.450  -6.569  0.00  0.00    +0.131 C 
BRANCH  33  34
ATOM     34  C   UNL     1       6.855  -0.639  -7.535  0.00  0.00    -0.035 A 
ATOM     35  C   UNL     1       7.944  -1.446  -7.263  0.00  0.00    +0.008 A 
ATOM     36  C   UNL     1       8.304  -2.447  -8.146  0.00  0.00    +0.050 A 
ATOM     37  C   UNL     1       7.575  -2.643  -9.307  0.00  0.00    +0.166 A 
ATOM     38  C   UNL     1       6.478  -1.830  -9.582  0.00  0.00    +0.166 A 
ATOM     39  C   UNL     1       6.119  -0.833  -8.690  0.00  0.00    +0.053 A 
ATOM     40  O   UNL     1       5.933  -2.219 -10.771  0.00  0.00    -0.453 OA
ATOM     41  C   UNL     1       6.949  -3.008 -11.419  0.00  0.00    +0.466 C 
ATOM     42  O   UNL     1       7.717  -3.542 -10.325  0.00  0.00    -0.453 OA
ENDBRANCH  33  34
ENDBRANCH  27  33
ENDBRANCH   1  26
TORSDOF 12
