REMARK  Name = ZINC50672108
REMARK  7 active torsions:
REMARK  status: ('A' for Active; 'I' for Inactive)
REMARK    1  A    between atoms: C_1  and  C_2
REMARK    2  A    between atoms: C_2  and  C_3
REMARK    3  A    between atoms: C_3  and  C_4
REMARK    4  A    between atoms: C_4  and  C_6
REMARK    5  A    between atoms: C_4  and  N_11
REMARK    6  A    between atoms: N_11  and  S_12
REMARK    7  A    between atoms: S_12  and  C_15
REMARK                            x       y       z     vdW  Elec       q    Type
REMARK                         _______ _______ _______ _____ _____    ______ ____
ROOT
ATOM      1  S   UNL     1       0.923  -3.928  -0.616  0.00  0.00    +0.060 S 
ATOM      2  O   UNL     1       1.843  -4.194  -1.666  0.00  0.00    -0.153 OA
ATOM      3  O   UNL     1       0.596  -4.894   0.374  0.00  0.00    -0.153 OA
ENDROOT
BRANCH   1   4
ATOM      4  C   UNL     1      -0.593  -3.460  -1.382  0.00  0.00    +0.123 A 
ATOM      5  C   UNL     1      -1.789  -3.541  -0.680  0.00  0.00    +0.033 A 
ATOM      6  C   UNL     1      -2.956  -3.164  -1.318  0.00  0.00    +0.045 A 
ATOM      7  C   UNL     1      -2.894  -2.719  -2.635  0.00  0.00    +0.116 A 
ATOM      8  N   UNL     1      -1.735  -2.657  -3.271  0.00  0.00    -0.239 NA
ATOM      9  C   UNL     1      -0.605  -3.005  -2.685  0.00  0.00    +0.141 A 
ATOM     10  N   UNL     1      -4.060  -2.337  -3.288  0.00  0.00    -0.343 N 
ATOM     11  H   UNL     1      -4.912  -2.382  -2.826  0.00  0.00    +0.144 HD
ATOM     12  H   UNL     1      -4.022  -2.027  -4.207  0.00  0.00    +0.144 HD
ENDBRANCH   1   4
BRANCH   1  13
ATOM     13  N   UNL     1       1.495  -2.600   0.189  0.00  0.00    -0.182 NA
ATOM     14  H   UNL     1       2.320  -2.177  -0.097  0.00  0.00    +0.149 HD
BRANCH  13  15
ATOM     15  C   UNL     1       0.755  -2.062   1.334  0.00  0.00    +0.113 C 
BRANCH  15  16
ATOM     16  C   UNL     1       1.324  -2.626   2.610  0.00  0.00    +0.008 A 
ATOM     17  C   UNL     1       0.673  -3.049   3.721  0.00  0.00    +0.013 A 
ATOM     18  C   UNL     1       1.410  -3.536   4.785  0.00  0.00    +0.008 A 
ATOM     19  C   UNL     1       2.761  -3.576   4.685  0.00  0.00    +0.045 A 
ATOM     20  S   UNL     1       3.030  -2.918   3.047  0.00  0.00    -0.100 S 
ENDBRANCH  15  16
BRANCH  15  21
ATOM     21  C   UNL     1       0.879  -0.537   1.350  0.00  0.00    +0.025 C 
BRANCH  21  23
ATOM     22  C   UNL     1       0.230   1.570   0.176  0.00  0.00    +0.004 C 
ATOM     23  C   UNL     1       0.216   0.042   0.099  0.00  0.00    -0.001 C 
ENDBRANCH  21  23
ENDBRANCH  15  21
ENDBRANCH  13  15
ENDBRANCH   1  13
TORSDOF 6
