REMARK  Name = ZINC11063396
REMARK  7 active torsions:
REMARK  status: ('A' for Active; 'I' for Inactive)
REMARK    1  A    between atoms: C_1  and  C_2
REMARK    2  A    between atoms: C_16  and  C_17
REMARK    3  A    between atoms: C_17  and  O_19
REMARK    4  A    between atoms: O_19  and  C_20
REMARK    5  A    between atoms: C_20  and  C_22
REMARK    6  A    between atoms: C_20  and  C_23
REMARK    7  A    between atoms: N_25  and  C_26
REMARK                            x       y       z     vdW  Elec       q    Type
REMARK                         _______ _______ _______ _____ _____    ______ ____
ROOT
ATOM      1  C   UNL     1       3.111   5.729  -6.394  0.00  0.00    +0.347 C 
ATOM      2  O   UNL     1       2.910   6.890  -6.090  0.00  0.00    -0.244 OA
ENDROOT
BRANCH   1  18
ATOM      3  C   UNL     1       2.141   6.130  -3.542  0.00  0.00    +0.046 C 
ATOM      4  C   UNL     1       2.450   4.774  -4.124  0.00  0.00    -0.015 A 
ATOM      5  C   UNL     1       2.294   3.626  -3.344  0.00  0.00    +0.076 A 
ATOM      6  C   UNL     1       2.613   2.403  -3.978  0.00  0.00    +0.116 A 
ATOM      7  N   UNL     1       2.510   1.240  -3.348  0.00  0.00    -0.226 NA
ATOM      8  C   UNL     1       2.103   1.163  -2.112  0.00  0.00    +0.114 A 
ATOM      9  N   UNL     1       1.765   2.275  -1.399  0.00  0.00    -0.296 N 
ATOM     10  C   UNL     1       1.839   3.503  -1.940  0.00  0.00    +0.263 A 
ATOM     11  O   UNL     1       1.538   4.490  -1.293  0.00  0.00    -0.267 OA
ATOM     12  C   UNL     1       1.315   2.099  -0.011  0.00  0.00    +0.126 C 
ATOM     13  C   UNL     1      -0.101   1.527  -0.011  0.00  0.00    +0.022 C 
ATOM     14  C   UNL     1      -0.078   0.008  -0.017  0.00  0.00    +0.002 C 
ATOM     15  C   UNL     1       0.515  -0.551  -1.298  0.00  0.00    +0.008 C 
ATOM     16  C   UNL     1       1.991  -0.181  -1.429  0.00  0.00    +0.074 C 
ATOM     17  S   UNL     1       3.102   2.905  -5.609  0.00  0.00    -0.062 S 
ATOM     18  C   UNL     1       2.883   4.665  -5.414  0.00  0.00    +0.102 A 
ENDBRANCH   1  18
BRANCH   1  19
ATOM     19  O   UNL     1       3.545   5.422  -7.634  0.00  0.00    -0.448 OA
BRANCH  19  20
ATOM     20  C   UNL     1       3.750   6.527  -8.553  0.00  0.00    +0.259 C 
ATOM     21  C   UNL     1       5.188   7.035  -8.428  0.00  0.00    +0.062 C 
BRANCH  20  22
ATOM     22  C   UNL     1       3.504   6.059  -9.964  0.00  0.00    +0.258 C 
ATOM     23  O   UNL     1       3.187   4.907 -10.175  0.00  0.00    -0.271 OA
ATOM     24  N   UNL     1       3.636   6.920 -10.993  0.00  0.00    -0.280 N 
ATOM     25  H   UNL     1       3.825   7.856 -10.821  0.00  0.00    +0.155 HD
BRANCH  24  26
ATOM     26  C   UNL     1       3.499   6.464 -12.311  0.00  0.00    +0.072 A 
ATOM     27  C   UNL     1       2.594   5.453 -12.606  0.00  0.00    +0.029 A 
ATOM     28  C   UNL     1       2.458   5.005 -13.906  0.00  0.00    +0.043 A 
ATOM     29  C   UNL     1       3.225   5.561 -14.916  0.00  0.00    +0.161 A 
ATOM     30  C   UNL     1       4.131   6.569 -14.626  0.00  0.00    +0.195 A 
ATOM     31  C   UNL     1       4.265   7.026 -13.325  0.00  0.00    +0.182 A 
ATOM     32  F   UNL     1       5.143   8.013 -13.042  0.00  0.00    -0.200 F 
ATOM     33  F   UNL     1       4.878   7.110 -15.612  0.00  0.00    -0.199 F 
ATOM     34  F   UNL     1       3.090   5.120 -16.186  0.00  0.00    -0.202 F 
ENDBRANCH  24  26
ENDBRANCH  20  22
ENDBRANCH  19  20
ENDBRANCH   1  19
TORSDOF 5
