REMARK  Name = ZINC10408622
REMARK  11 active torsions:
REMARK  status: ('A' for Active; 'I' for Inactive)
REMARK    1  A    between atoms: C_1  and  C_2
REMARK    2  A    between atoms: C_2  and  N_3
REMARK    3  A    between atoms: C_4  and  C_26
REMARK    4  A    between atoms: C_7  and  S_8
REMARK    5  A    between atoms: S_8  and  C_9
REMARK    6  A    between atoms: C_9  and  C_10
REMARK    7  A    between atoms: C_23  and  C_25
REMARK    8  A    between atoms: C_29  and  C_32
REMARK    9  A    between atoms: C_32  and  C_33
REMARK   10  A    between atoms: C_32  and  C_34
REMARK   11  A    between atoms: C_32  and  C_35
REMARK                            x       y       z     vdW  Elec       q    Type
REMARK                         _______ _______ _______ _____ _____    ______ ____
ROOT
ATOM      1  S   UNL     1      -3.346   3.418   0.368  0.00  0.00    -0.077 S 
ENDROOT
BRANCH   1   6
ATOM      2  N   UNL     1      -2.138   1.132   1.437  0.00  0.00    -0.302 N 
ATOM      3  C   UNL     1      -2.535  -0.150   1.738  0.00  0.00    +0.165 A 
ATOM      4  N   UNL     1      -3.801  -0.249   1.408  0.00  0.00    -0.128 NA
ATOM      5  N   UNL     1      -4.218   0.867   0.927  0.00  0.00    -0.122 NA
ATOM      6  C   UNL     1      -3.244   1.750   0.926  0.00  0.00    +0.192 A 
BRANCH   3   7
ATOM      7  C   UNL     1      -1.694  -1.215   2.324  0.00  0.00    +0.019 A 
ATOM      8  C   UNL     1      -0.302  -1.125   2.259  0.00  0.00    +0.012 A 
ATOM      9  C   UNL     1       0.477  -2.120   2.812  0.00  0.00    +0.005 A 
ATOM     10  C   UNL     1      -0.118  -3.211   3.421  0.00  0.00    -0.042 A 
ATOM     11  C   UNL     1      -1.496  -3.309   3.484  0.00  0.00    +0.005 A 
ATOM     12  C   UNL     1      -2.287  -2.318   2.940  0.00  0.00    +0.012 A 
BRANCH  10  13
ATOM     13  C   UNL     1       0.740  -4.297   4.017  0.00  0.00    -0.013 C 
ATOM     14  C   UNL     1       0.430  -5.628   3.328  0.00  0.00    +0.015 C 
ATOM     15  C   UNL     1       2.216  -3.950   3.815  0.00  0.00    +0.015 C 
ATOM     16  C   UNL     1       0.444  -4.416   5.513  0.00  0.00    +0.015 C 
ENDBRANCH  10  13
ENDBRANCH   3   7
BRANCH   2  18
ATOM     17  C   UNL     1       0.005   1.567   0.341  0.00  0.00    +0.027 C 
ATOM     18  C   UNL     1      -0.808   1.716   1.629  0.00  0.00    +0.122 C 
ENDBRANCH   2  18
ENDBRANCH   1   6
BRANCH   1  19
ATOM     19  C   UNL     1      -5.082   3.473  -0.142  0.00  0.00    +0.173 C 
BRANCH  19  20
ATOM     20  C   UNL     1      -5.406   4.847  -0.671  0.00  0.00    +0.230 C 
ATOM     21  O   UNL     1      -4.548   5.704  -0.700  0.00  0.00    -0.274 OA
ATOM     22  N   UNL     1      -6.650   5.123  -1.112  0.00  0.00    -0.266 N 
ATOM     23  C   UNL     1      -7.651   4.142  -1.084  0.00  0.00    +0.058 A 
ATOM     24  C   UNL     1      -8.211   3.738   0.116  0.00  0.00    +0.025 A 
ATOM     25  C   UNL     1      -9.214   2.786   0.122  0.00  0.00    +0.002 A 
ATOM     26  C   UNL     1      -9.659   2.236  -1.067  0.00  0.00    +0.002 A 
ATOM     27  C   UNL     1      -9.099   2.627  -2.269  0.00  0.00    +0.025 A 
ATOM     28  C   UNL     1      -8.087   3.573  -2.281  0.00  0.00    +0.055 A 
ATOM     29  N   UNL     1      -7.466   3.943  -3.480  0.00  0.00    -0.284 N 
ATOM     30  C   UNL     1      -7.284   5.247  -3.782  0.00  0.00    +0.219 C 
ATOM     31  O   UNL     1      -6.671   5.554  -4.783  0.00  0.00    -0.275 OA
ATOM     32  C   UNL     1      -7.838   6.323  -2.886  0.00  0.00    +0.118 C 
ATOM     33  C   UNL     1      -6.981   6.454  -1.622  0.00  0.00    +0.087 C 
ATOM     34  C   UNL     1      -7.756   7.229  -0.555  0.00  0.00    +0.029 C 
ATOM     35  H   UNL     1      -7.164   3.259  -4.097  0.00  0.00    +0.155 HD
ENDBRANCH  19  20
ENDBRANCH   1  19
TORSDOF 6
