REMARK  Name = ZINC08583357
REMARK  15 active torsions:
REMARK  status: ('A' for Active; 'I' for Inactive)
REMARK    1  A    between atoms: C_1  and  C_2
REMARK    2  A    between atoms: C_2  and  C_3
REMARK    3  A    between atoms: C_2  and  C_4
REMARK    4  A    between atoms: C_4  and  N_5
REMARK    5  A    between atoms: N_5  and  C_6
REMARK    6  A    between atoms: N_5  and  C_32
REMARK    7  A    between atoms: C_6  and  C_7
REMARK    8  A    between atoms: C_7  and  C_8
REMARK    9  A    between atoms: C_8  and  N_9
REMARK   10  A    between atoms: C_10  and  C_12
REMARK   11  A    between atoms: C_21  and  S_24
REMARK   12  A    between atoms: S_24  and  N_27
REMARK   13  A    between atoms: C_32  and  C_33
REMARK   14  A    between atoms: C_33  and  C_34
REMARK   15  A    between atoms: C_33  and  C_35
REMARK                            x       y       z     vdW  Elec       q    Type
REMARK                         _______ _______ _______ _____ _____    ______ ____
ROOT
ATOM      1  C   UNL     1       2.067   0.245   5.595  0.00  0.00    +0.051 A 
ATOM      2  C   UNL     1       0.789   0.723   5.545  0.00  0.00    +0.083 A 
ATOM      3  C   UNL     1       0.107   1.082   6.787  0.00  0.00    +0.250 A 
ATOM      4  O   UNL     1      -1.033   1.507   6.744  0.00  0.00    -0.268 OA
ATOM      5  N   UNL     1       0.720   0.949   7.976  0.00  0.00    -0.322 N 
ATOM      6  H   UNL     1       0.245   1.194   8.786  0.00  0.00    +0.169 HD
ATOM      7  C   UNL     1       2.009   0.471   8.069  0.00  0.00    +0.050 A 
ATOM      8  C   UNL     1       2.714   0.103   6.909  0.00  0.00    +0.012 A 
ATOM      9  C   UNL     1       4.019  -0.386   7.012  0.00  0.00    +0.039 A 
ATOM     10  C   UNL     1       4.602  -0.510   8.241  0.00  0.00    +0.106 A 
ATOM     11  C   UNL     1       3.909  -0.155   9.390  0.00  0.00    +0.030 A 
ATOM     12  C   UNL     1       2.626   0.341   9.311  0.00  0.00    +0.028 A 
ENDROOT
BRANCH   1  14
ATOM     13  N   UNL     1       2.231   0.128   3.151  0.00  0.00    -0.311 N 
ATOM     14  C   UNL     1       2.786  -0.128   4.352  0.00  0.00    +0.245 C 
ATOM     15  O   UNL     1       3.874  -0.663   4.417  0.00  0.00    -0.270 OA
ATOM     16  H   UNL     1       1.396   0.618   3.096  0.00  0.00    +0.149 HD
BRANCH  13  17
ATOM     17  C   UNL     1       2.889  -0.336   1.927  0.00  0.00    +0.102 C 
BRANCH  17  18
ATOM     18  C   UNL     1       2.126   0.186   0.708  0.00  0.00    +0.000 C 
BRANCH  18  19
ATOM     19  C   UNL     1       2.738  -0.398  -0.567  0.00  0.00    -0.077 C 
BRANCH  19  20
ATOM     20  N   UNL     1       2.088   0.199  -1.741  0.00  0.00    +0.380 N 
ATOM     21  H   UNL     1       2.440  -0.239  -2.579  0.00  0.00    -0.082 HD
BRANCH  20  22
ATOM     22  C   UNL     1       2.378   1.638  -1.782  0.00  0.00    -0.076 C 
BRANCH  22  24
ATOM     23  C   UNL     1       4.262   1.279  -3.384  0.00  0.00    +0.005 C 
ATOM     24  C   UNL     1       3.875   1.850  -2.018  0.00  0.00    -0.034 C 
ATOM     25  C   UNL     1       4.190   3.347  -1.983  0.00  0.00    +0.005 C 
ENDBRANCH  22  24
ENDBRANCH  20  22
BRANCH  20  26
ATOM     26  C   UNL     1       0.636  -0.005  -1.653  0.00  0.00    -0.076 C 
BRANCH  26  27
ATOM     27  C   UNL     1       0.326  -1.501  -1.740  0.00  0.00    -0.034 C 
ATOM     28  C   UNL     1      -1.177  -1.722  -1.553  0.00  0.00    +0.005 C 
ATOM     29  C   UNL     1       0.753  -2.032  -3.109  0.00  0.00    +0.005 C 
ENDBRANCH  26  27
ENDBRANCH  20  26
ENDBRANCH  19  20
ENDBRANCH  18  19
ENDBRANCH  17  18
ENDBRANCH  13  17
ENDBRANCH   1  14
BRANCH  10  30
ATOM     30  S   UNL     1       6.248  -1.128   8.369  0.00  0.00    +0.061 S 
ATOM     31  O   UNL     1       6.417  -1.558   9.713  0.00  0.00    -0.153 OA
ATOM     32  O   UNL     1       6.443  -1.995   7.261  0.00  0.00    -0.153 OA
BRANCH  30  33
ATOM     33  N   UNL     1       7.271   0.156   8.151  0.00  0.00    -0.177 NA
ATOM     34  C   UNL     1       7.726   0.678   6.854  0.00  0.00    +0.109 C 
ATOM     35  C   UNL     1       8.681   1.855   7.144  0.00  0.00    +0.018 C 
ATOM     36  C   UNL     1       9.154   1.570   8.594  0.00  0.00    +0.018 C 
ATOM     37  C   UNL     1       7.870   0.969   9.225  0.00  0.00    +0.109 C 
ENDBRANCH  30  33
ENDBRANCH  10  30
TORSDOF 11
