REMARK  Name = ZINC25470416
REMARK  5 active torsions:
REMARK  status: ('A' for Active; 'I' for Inactive)
REMARK    1  A    between atoms: C_1  and  C_2
REMARK    2  A    between atoms: C_7  and  C_8
REMARK    3  A    between atoms: N_10  and  C_11
REMARK    4  A    between atoms: C_22  and  C_26
REMARK    5  A    between atoms: C_22  and  C_27
REMARK                            x       y       z     vdW  Elec       q    Type
REMARK                         _______ _______ _______ _____ _____    ______ ____
ROOT
ATOM      1  C   UNL     1       2.845  -0.049   0.002  0.00  0.00    +0.047 C 
ATOM      2  C   UNL     1       2.501   1.419   0.009  0.00  0.00    -0.010 A 
ATOM      3  C   UNL     1       3.403   2.490   0.010  0.00  0.00    +0.042 A 
ATOM      4  C   UNL     1       2.659   3.670   0.027  0.00  0.00    +0.028 A 
ATOM      5  N   UNL     1       1.367   3.340   0.028  0.00  0.00    -0.354 N 
ATOM      6  H   UNL     1       0.599   4.127   0.038  0.00  0.00    +0.166 HD
ATOM      7  C   UNL     1       1.247   1.963   0.014  0.00  0.00    +0.106 A 
ATOM      8  C   UNL     1       3.294   5.037   0.044  0.00  0.00    +0.060 C 
ATOM      9  C   UNL     1       4.737   4.917   0.542  0.00  0.00    -0.023 C 
ATOM     10  C   UNL     1       5.503   3.865  -0.265  0.00  0.00    +0.086 C 
ATOM     11  C   UNL     1       4.874   2.505  -0.002  0.00  0.00    +0.166 C 
ATOM     12  O   UNL     1       5.537   1.506   0.185  0.00  0.00    -0.292 OA
ATOM     13  C   UNL     1       4.729   4.513   2.018  0.00  0.00    +0.011 C 
ATOM     14  C   UNL     1       5.434   6.271   0.395  0.00  0.00    +0.011 C 
ENDROOT
BRANCH   7  15
ATOM     15  C   UNL     1      -0.015   1.212   0.012  0.00  0.00    +0.265 C 
ATOM     16  O   UNL     1       0.002  -0.004   0.001  0.00  0.00    -0.268 OA
ATOM     17  N   UNL     1      -1.191   1.871   0.018  0.00  0.00    -0.280 N 
ATOM     18  H   UNL     1      -1.207   2.967   0.104  0.00  0.00    +0.155 HD
BRANCH  17  19
ATOM     19  C   UNL     1      -2.390   1.160  -0.086  0.00  0.00    +0.037 A 
ATOM     20  C   UNL     1      -2.503  -0.092   0.500  0.00  0.00    +0.023 A 
ATOM     21  C   UNL     1      -3.690  -0.790   0.401  0.00  0.00    +0.002 A 
ATOM     22  C   UNL     1      -4.752  -0.244  -0.292  0.00  0.00    +0.004 A 
ATOM     23  C   UNL     1      -4.642   1.006  -0.888  0.00  0.00    -0.042 A 
ATOM     24  C   UNL     1      -3.465   1.711  -0.783  0.00  0.00    -0.023 A 
ATOM     25  C   UNL     1      -3.281   3.078  -1.390  0.00  0.00    +0.037 C 
ATOM     26  C   UNL     1      -4.349   3.344  -2.449  0.00  0.00    +0.005 C 
ATOM     27  C   UNL     1      -5.722   3.044  -1.838  0.00  0.00    +0.005 C 
ATOM     28  C   UNL     1      -5.840   1.534  -1.634  0.00  0.00    +0.035 C 
ENDBRANCH  17  19
ENDBRANCH   7  15
TORSDOF 2
