REMARK  Name = ZINC36065663
REMARK  10 active torsions:
REMARK  status: ('A' for Active; 'I' for Inactive)
REMARK    1  A    between atoms: C_4  and  C_7
REMARK    2  A    between atoms: C_7  and  N_8
REMARK    3  A    between atoms: C_9  and  C_11
REMARK    4  A    between atoms: C_14  and  C_16
REMARK    5  A    between atoms: C_16  and  N_17
REMARK    6  A    between atoms: N_17  and  C_18
REMARK    7  A    between atoms: N_17  and  C_30
REMARK    8  A    between atoms: C_18  and  C_19
REMARK    9  A    between atoms: C_19  and  C_20
REMARK   10  A    between atoms: C_30  and  C_31
REMARK                            x       y       z     vdW  Elec       q    Type
REMARK                         _______ _______ _______ _____ _____    ______ ____
ROOT
ATOM      1  N   UNL     1       4.714  -2.852   6.862  0.00  0.00    -0.289 NA
ENDROOT
BRANCH   1   2
ATOM      2  C   UNL     1       5.654  -1.881   6.287  0.00  0.00    +0.181 C 
BRANCH   2   6
ATOM      3  C   UNL     1       6.196  -2.679   2.795  0.00  0.00    +0.164 A 
ATOM      4  C   UNL     1       7.236  -3.347   3.363  0.00  0.00    +0.230 A 
ATOM      5  O   UNL     1       7.161  -3.137   4.687  0.00  0.00    -0.446 OA
ATOM      6  C   UNL     1       6.098  -2.356   4.928  0.00  0.00    +0.210 A 
ATOM      7  N   UNL     1       5.513  -2.070   3.803  0.00  0.00    -0.208 NA
BRANCH   3   9
ATOM      8  N   UNL     1       4.808  -1.909   0.935  0.00  0.00    -0.306 N 
ATOM      9  C   UNL     1       5.872  -2.620   1.358  0.00  0.00    +0.266 C 
ATOM     10  O   UNL     1       6.566  -3.213   0.554  0.00  0.00    -0.268 OA
ATOM     11  H   UNL     1       4.255  -1.437   1.577  0.00  0.00    +0.149 HD
BRANCH   8  12
ATOM     12  C   UNL     1       4.487  -1.851  -0.493  0.00  0.00    +0.140 C 
BRANCH  12  16
ATOM     13  C   UNL     1       1.012   0.564  -1.075  0.00  0.00    +0.000 A 
ATOM     14  C   UNL     1       2.268   1.143  -1.097  0.00  0.00    +0.000 A 
ATOM     15  C   UNL     1       3.392   0.361  -0.908  0.00  0.00    +0.005 A 
ATOM     16  C   UNL     1       3.261  -0.999  -0.698  0.00  0.00    -0.030 A 
ATOM     17  C   UNL     1       2.006  -1.577  -0.675  0.00  0.00    +0.005 A 
ATOM     18  C   UNL     1       0.881  -0.796  -0.866  0.00  0.00    +0.000 A 
ENDBRANCH  12  16
ENDBRANCH   8  12
ENDBRANCH   3   9
ENDBRANCH   2   6
ENDBRANCH   1   2
BRANCH   1  19
ATOM     19  C   UNL     1       4.442  -2.550   8.274  0.00  0.00    +0.090 C 
BRANCH  19  20
ATOM     20  C   UNL     1       5.640  -2.975   9.126  0.00  0.00    +0.052 C 
BRANCH  20  21
ATOM     21  C   UNL     1       5.312  -2.784  10.584  0.00  0.00    -0.021 A 
ATOM     22  C   UNL     1       5.661  -1.739  11.351  0.00  0.00    +0.087 A 
ATOM     23  N   UNL     1       5.186  -1.914  12.623  0.00  0.00    -0.360 N 
ATOM     24  H   UNL     1       5.312  -1.292  13.355  0.00  0.00    +0.165 HD
ATOM     25  C   UNL     1       4.502  -3.107  12.707  0.00  0.00    +0.047 A 
ATOM     26  C   UNL     1       4.545  -3.701  11.432  0.00  0.00    +0.003 A 
ATOM     27  C   UNL     1       3.922  -4.931  11.216  0.00  0.00    +0.010 A 
ATOM     28  C   UNL     1       3.269  -5.551  12.243  0.00  0.00    +0.001 A 
ATOM     29  C   UNL     1       3.220  -4.967  13.502  0.00  0.00    +0.002 A 
ATOM     30  C   UNL     1       3.836  -3.758  13.740  0.00  0.00    +0.026 A 
ENDBRANCH  20  21
ENDBRANCH  19  20
ENDBRANCH   1  19
BRANCH   1  31
ATOM     31  C   UNL     1       3.468  -2.902   6.085  0.00  0.00    +0.120 C 
BRANCH  31  32
ATOM     32  C   UNL     1       2.703  -4.150   6.443  0.00  0.00    -0.030 A 
ATOM     33  C   UNL     1       3.003  -5.346   5.817  0.00  0.00    +0.009 A 
ATOM     34  C   UNL     1       2.305  -6.494   6.142  0.00  0.00    +0.050 A 
ATOM     35  C   UNL     1       1.301  -6.448   7.096  0.00  0.00    +0.166 A 
ATOM     36  C   UNL     1       0.998  -5.243   7.726  0.00  0.00    +0.167 A 
ATOM     37  C   UNL     1       1.706  -4.098   7.399  0.00  0.00    +0.054 A 
ATOM     38  O   UNL     1      -0.016  -5.458   8.614  0.00  0.00    -0.453 OA
ATOM     39  C   UNL     1      -0.606  -6.714   8.228  0.00  0.00    +0.466 C 
ATOM     40  O   UNL     1       0.476  -7.418   7.589  0.00  0.00    -0.453 OA
ENDBRANCH  31  32
ENDBRANCH   1  31
TORSDOF 10
