REMARK  Name = ZINC43220756
REMARK  10 active torsions:
REMARK  status: ('A' for Active; 'I' for Inactive)
REMARK    1  A    between atoms: C_1  and  C_2
REMARK    2  A    between atoms: C_2  and  C_3
REMARK    3  A    between atoms: C_5  and  C_16
REMARK    4  A    between atoms: C_6  and  N_8
REMARK    5  A    between atoms: C_9  and  C_11
REMARK    6  A    between atoms: C_16  and  C_18
REMARK    7  A    between atoms: C_16  and  N_26
REMARK    8  A    between atoms: C_23  and  O_24
REMARK    9  A    between atoms: O_24  and  C_25
REMARK   10  A    between atoms: C_29  and  C_33
REMARK                            x       y       z     vdW  Elec       q    Type
REMARK                         _______ _______ _______ _____ _____    ______ ____
ROOT
ATOM      1  C   UNL     1       0.579  -1.566   4.875  0.00  0.00    +0.138 C 
ENDROOT
BRANCH   1   2
ATOM      2  N   UNL     1      -0.578  -0.680   5.027  0.00  0.00    -0.319 N 
ATOM      3  C   UNL     1      -0.928  -0.203   6.285  0.00  0.00    +0.097 A 
ATOM      4  C   UNL     1      -0.171  -0.567   7.395  0.00  0.00    +0.045 A 
ATOM      5  C   UNL     1      -0.531  -0.085   8.640  0.00  0.00    -0.046 A 
ATOM      6  C   UNL     1      -1.639   0.747   8.735  0.00  0.00    +0.021 A 
ATOM      7  C   UNL     1      -2.344   1.067   7.592  0.00  0.00    +0.084 A 
ATOM      8  N   UNL     1      -1.974   0.597   6.416  0.00  0.00    -0.350 N 
ATOM      9  C   UNL     1       0.262  -0.455   9.868  0.00  0.00    +0.044 C 
ATOM     10  H   UNL     1      -1.100  -0.427   4.250  0.00  0.00    +0.148 HD
ATOM     11  H   UNL     1      -2.485   0.840   5.628  0.00  0.00    +0.166 HD
ENDBRANCH   1   2
BRANCH   1  12
ATOM     12  C   UNL     1       0.145  -2.996   5.067  0.00  0.00    +0.019 A 
ATOM     13  C   UNL     1      -1.162  -3.363   4.810  0.00  0.00    +0.009 A 
ATOM     14  C   UNL     1      -1.561  -4.675   4.986  0.00  0.00    +0.001 A 
ATOM     15  C   UNL     1      -0.653  -5.623   5.420  0.00  0.00    +0.004 A 
ATOM     16  C   UNL     1       0.655  -5.262   5.678  0.00  0.00    +0.046 A 
ATOM     17  C   UNL     1       1.059  -3.947   5.497  0.00  0.00    +0.125 A 
BRANCH  17  18
ATOM     18  O   UNL     1       2.347  -3.591   5.745  0.00  0.00    -0.495 OA
ATOM     19  C   UNL     1       3.257  -4.639   6.081  0.00  0.00    +0.277 C 
ENDBRANCH  17  18
ENDBRANCH   1  12
BRANCH   1  22
ATOM     20  C   UNL     1       1.469  -2.163   1.284  0.00  0.00    -0.008 A 
ATOM     21  C   UNL     1       0.930  -2.345   2.514  0.00  0.00    +0.019 A 
ATOM     22  C   UNL     1       1.162  -1.399   3.496  0.00  0.00    +0.006 A 
ATOM     23  C   UNL     1       1.927  -0.312   3.193  0.00  0.00    +0.078 A 
ATOM     24  S   UNL     1       2.345  -0.621   1.485  0.00  0.00    -0.078 S 
BRANCH  23  25
ATOM     25  N   UNL     1       2.293   0.760   4.008  0.00  0.00    -0.273 N 
ATOM     26  C   UNL     1       2.972   1.801   3.487  0.00  0.00    +0.284 C 
ATOM     27  O   UNL     1       3.193   1.847   2.291  0.00  0.00    -0.266 OA
ATOM     28  H   UNL     1       2.059   0.756   4.949  0.00  0.00    +0.156 HD
BRANCH  26  29
ATOM     29  C   UNL     1       3.444   2.880   4.361  0.00  0.00    +0.189 A 
ATOM     30  C   UNL     1       4.217   3.940   3.982  0.00  0.00    +0.054 A 
ATOM     31  C   UNL     1       4.427   4.718   5.131  0.00  0.00    +0.042 A 
ATOM     32  C   UNL     1       3.781   4.106   6.149  0.00  0.00    +0.196 A 
ATOM     33  O   UNL     1       3.186   3.002   5.680  0.00  0.00    -0.458 OA
ENDBRANCH  26  29
ENDBRANCH  23  25
BRANCH  20  35
ATOM     34  C   UNL     1       0.148  -2.616  -0.765  0.00  0.00    +0.009 C 
ATOM     35  C   UNL     1       1.362  -3.041   0.064  0.00  0.00    +0.039 C 
ENDBRANCH  20  35
ENDBRANCH   1  22
TORSDOF 7
