REMARK  Name = ZINC17002262
REMARK  10 active torsions:
REMARK  status: ('A' for Active; 'I' for Inactive)
REMARK    1  A    between atoms: C_1  and  C_2
REMARK    2  A    between atoms: C_11  and  C_28
REMARK    3  A    between atoms: C_11  and  O_35
REMARK    4  A    between atoms: C_12  and  C_27
REMARK    5  A    between atoms: C_14  and  O_26
REMARK    6  A    between atoms: C_17  and  C_24
REMARK    7  A    between atoms: C_28  and  C_30
REMARK    8  A    between atoms: C_30  and  O_31
REMARK    9  A    between atoms: O_31  and  C_32
REMARK   10  A    between atoms: C_32  and  C_34
REMARK                            x       y       z     vdW  Elec       q    Type
REMARK                         _______ _______ _______ _____ _____    ______ ____
ROOT
ATOM      1  C   UNL     1      -0.271   7.140  -1.169  0.00  0.00    +0.012 C 
ATOM      2  C   UNL     1      -1.198   6.121  -0.505  0.00  0.00    +0.013 C 
ATOM      3  C   UNL     1      -0.343   4.994   0.103  0.00  0.00    +0.013 C 
ATOM      4  C   UNL     1      -1.266   3.915   0.681  0.00  0.00    +0.014 C 
ATOM      5  C   UNL     1      -0.572   2.942   1.561  0.00  0.00    +0.003 C 
ATOM      6  C   UNL     1       0.944   2.940   1.753  0.00  0.00    +0.008 C 
ATOM      7  C   UNL     1       1.145   1.656   2.616  0.00  0.00    +0.043 C 
ATOM      8  C   UNL     1      -0.121   0.778   2.408  0.00  0.00    +0.133 C 
ATOM      9  C   UNL     1      -0.848   1.461   1.236  0.00  0.00    +0.009 C 
ATOM     10  C   UNL     1      -2.337   1.287   1.123  0.00  0.00    +0.043 C 
ATOM     11  C   UNL     1      -2.861   2.053  -0.099  0.00  0.00    +0.133 C 
ATOM     12  C   UNL     1      -2.090   3.310  -0.449  0.00  0.00    +0.068 C 
ATOM     13  C   UNL     1      -3.052   4.397  -0.965  0.00  0.00    +0.026 C 
ATOM     14  C   UNL     1      -2.179   5.514  -1.488  0.00  0.00    -0.052 C 
ATOM     15  C   UNL     1      -2.269   5.942  -2.736  0.00  0.00    +0.051 C 
ATOM     16  C   UNL     1      -3.227   5.335  -3.681  0.00  0.00    +0.179 C 
ATOM     17  O   UNL     1      -3.262   5.702  -4.843  0.00  0.00    -0.288 OA
ATOM     18  C   UNL     1      -4.133   4.281  -3.201  0.00  0.00    +0.047 C 
ATOM     19  C   UNL     1      -4.030   3.864  -1.945  0.00  0.00    -0.011 C 
ATOM     20  C   UNL     1      -3.886   4.952   0.178  0.00  0.00    +0.022 C 
ATOM     21 BR   UNL     1      -0.900   2.930  -1.987  0.00  0.00    -0.080 Br
ATOM     22  C   UNL     1      -0.129   0.974  -0.023  0.00  0.00    +0.015 C 
ENDROOT
BRANCH  11  23
ATOM     23  O   UNL     1      -2.884   1.176  -1.237  0.00  0.00    -0.390 OA
ATOM     24  H   UNL     1      -3.361   0.349  -1.087  0.00  0.00    +0.210 HD
ENDBRANCH  11  23
BRANCH   8  25
ATOM     25  C   UNL     1      -0.963   0.741   3.646  0.00  0.00    +0.202 C 
ATOM     26  O   UNL     1      -1.835   1.561   3.809  0.00  0.00    -0.291 OA
BRANCH  25  27
ATOM     27  C   UNL     1      -0.722  -0.319   4.690  0.00  0.00    +0.309 C 
BRANCH  27  28
ATOM     28  O   UNL     1      -1.659  -0.143   5.785  0.00  0.00    -0.457 OA
BRANCH  28  29
ATOM     29  C   UNL     1      -1.576  -1.013   6.804  0.00  0.00    +0.304 C 
ATOM     30  O   UNL     1      -0.748  -1.892   6.781  0.00  0.00    -0.251 OA
ATOM     31  C   UNL     1      -2.516  -0.892   7.976  0.00  0.00    +0.136 C 
ENDBRANCH  28  29
ENDBRANCH  27  28
ENDBRANCH  25  27
ENDBRANCH   8  25
BRANCH   8  32
ATOM     32  O   UNL     1       0.265  -0.544   2.021  0.00  0.00    -0.380 OA
ATOM     33  H   UNL     1       0.730  -1.036   2.712  0.00  0.00    +0.211 HD
ENDBRANCH   8  32
TORSDOF 6
