REMARK  Name = ZINC15066901
REMARK  8 active torsions:
REMARK  status: ('A' for Active; 'I' for Inactive)
REMARK    1  A    between atoms: C_1  and  N_2
REMARK    2  A    between atoms: N_2  and  C_3
REMARK    3  A    between atoms: C_3  and  C_4
REMARK    4  A    between atoms: C_12  and  C_22
REMARK    5  A    between atoms: C_15  and  C_17
REMARK    6  A    between atoms: N_24  and  C_25
REMARK    7  A    between atoms: C_25  and  C_26
REMARK    8  A    between atoms: C_26  and  N_33
REMARK                            x       y       z     vdW  Elec       q    Type
REMARK                         _______ _______ _______ _____ _____    ______ ____
ROOT
ATOM      1  C   UNL     1       3.462   0.233  -0.937  0.00  0.00    +0.131 C 
ATOM      2  N   UNL     1       2.808  -0.546   0.122  0.00  0.00    -0.315 N 
ATOM      3  C   UNL     1       1.558  -0.034   0.415  0.00  0.00    +0.134 A 
ATOM      4  C   UNL     1       0.427  -0.868   0.351  0.00  0.00    +0.077 A 
ATOM      5  C   UNL     1      -0.832  -0.331   0.652  0.00  0.00    +0.018 A 
ATOM      6  C   UNL     1      -0.915   0.991   0.998  0.00  0.00    +0.029 A 
ATOM      7  C   UNL     1       0.246   1.765   1.043  0.00  0.00    +0.074 A 
ATOM      8  N   UNL     1       1.431   1.238   0.755  0.00  0.00    -0.231 NA
ENDROOT
BRANCH   7   9
ATOM      9  C   UNL     1       0.156   3.194   1.417  0.00  0.00    +0.007 A 
ATOM     10  C   UNL     1       1.281   4.017   1.376  0.00  0.00    +0.017 A 
ATOM     11  C   UNL     1       1.125   5.312   1.727  0.00  0.00    +0.046 A 
ATOM     12  S   UNL     1      -0.609   5.391   2.134  0.00  0.00    -0.104 S 
ATOM     13  C   UNL     1      -1.031   3.740   1.818  0.00  0.00    +0.055 A 
ENDBRANCH   7   9
BRANCH   4  14
ATOM     14  C   UNL     1       0.564  -2.285  -0.026  0.00  0.00    +0.247 C 
ATOM     15  O   UNL     1       1.645  -2.718  -0.379  0.00  0.00    -0.270 OA
ATOM     16  N   UNL     1      -0.507  -3.101   0.020  0.00  0.00    -0.309 N 
ATOM     17  H   UNL     1      -1.484  -2.709   0.339  0.00  0.00    +0.149 HD
BRANCH  16  18
ATOM     18  C   UNL     1      -0.370  -4.511  -0.355  0.00  0.00    +0.126 C 
BRANCH  18  19
ATOM     19  C   UNL     1      -1.741  -5.188  -0.299  0.00  0.00    +0.038 C 
ATOM     20  C   UNL     1      -1.590  -6.593   0.218  0.00  0.00    +0.024 C 
ATOM     21  C   UNL     1      -0.186  -7.171  -0.053  0.00  0.00    +0.002 C 
ATOM     22  C   UNL     1       0.346  -6.823  -1.456  0.00  0.00    +0.000 C 
ATOM     23  C   UNL     1      -0.711  -6.945  -2.520  0.00  0.00    +0.000 C 
ATOM     24  C   UNL     1      -1.355  -5.559  -2.733  0.00  0.00    +0.002 C 
ATOM     25  C   UNL     1      -2.348  -5.247  -1.716  0.00  0.00    +0.024 C 
BRANCH  19  26
ATOM     26  N   UNL     1      -2.632  -4.428   0.588  0.00  0.00    -0.291 NA
ATOM     27  C   UNL     1      -2.090  -4.370   1.953  0.00  0.00    +0.113 C 
ATOM     28  C   UNL     1      -3.017  -3.521   2.828  0.00  0.00    +0.175 C 
ATOM     29  O   UNL     1      -4.336  -4.072   2.792  0.00  0.00    -0.377 OA
ATOM     30  C   UNL     1      -4.894  -4.143   1.477  0.00  0.00    +0.175 C 
ATOM     31  C   UNL     1      -3.987  -4.999   0.589  0.00  0.00    +0.113 C 
ENDBRANCH  19  26
ENDBRANCH  18  19
ENDBRANCH  16  18
ENDBRANCH   4  14
BRANCH   2  32
ATOM     32  C   UNL     1       3.648  -0.606   1.326  0.00  0.00    +0.140 C 
BRANCH  32  33
ATOM     33  C   UNL     1       4.825  -1.552   1.081  0.00  0.00    +0.161 C 
ATOM     34  C   UNL     1       5.612  -1.738   2.381  0.00  0.00    +0.193 C 
ATOM     35  O   UNL     1       6.772  -2.533   2.118  0.00  0.00    -0.375 OA
ATOM     36  C   UNL     1       7.635  -1.974   1.123  0.00  0.00    +0.188 C 
ATOM     37  C   UNL     1       6.848  -1.789  -0.177  0.00  0.00    +0.188 C 
ATOM     38  O   UNL     1       5.688  -0.994   0.086  0.00  0.00    -0.370 OA
ENDBRANCH  32  33
ENDBRANCH   2  32
TORSDOF 7
