REMARK  Name = ZINC02394928
REMARK  4 active torsions:
REMARK  status: ('A' for Active; 'I' for Inactive)
REMARK    1  A    between atoms: C_1  and  N_2
REMARK    2  A    between atoms: N_2  and  C_20
REMARK    3  A    between atoms: C_11  and  C_13
REMARK    4  A    between atoms: C_18  and  O_19
REMARK                            x       y       z     vdW  Elec       q    Type
REMARK                         _______ _______ _______ _____ _____    ______ ____
ROOT
ATOM      1  C   UNL     1       1.271   0.379   0.625  0.00  0.00    +0.131 C 
ATOM      2  N   UNL     1       0.002  -0.004   0.002  0.00  0.00    -0.315 N 
ATOM      3  C   UNL     1      -0.004  -0.595  -1.244  0.00  0.00    +0.133 A 
ATOM      4  C   UNL     1       0.033   0.194  -2.422  0.00  0.00    +0.040 A 
ATOM      5  C   UNL     1       0.076   1.590  -2.378  0.00  0.00    +0.013 A 
ATOM      6  C   UNL     1       0.110   2.299  -3.544  0.00  0.00    +0.001 A 
ATOM      7  C   UNL     1       0.102   1.651  -4.775  0.00  0.00    +0.002 A 
ATOM      8  C   UNL     1       0.060   0.290  -4.852  0.00  0.00    +0.028 A 
ATOM      9  C   UNL     1       0.025  -0.469  -3.674  0.00  0.00    +0.077 A 
ATOM     10  N   UNL     1      -0.016  -1.808  -3.696  0.00  0.00    -0.227 NA
ATOM     11  C   UNL     1      -0.049  -2.495  -2.568  0.00  0.00    +0.166 A 
ATOM     12  N   UNL     1      -0.037  -1.912  -1.370  0.00  0.00    -0.212 NA
ENDROOT
BRANCH  11  13
ATOM     13  C   UNL     1      -0.093  -3.974  -2.639  0.00  0.00    +0.061 A 
ATOM     14  C   UNL     1      -0.134  -4.729  -1.468  0.00  0.00    +0.015 A 
ATOM     15  C   UNL     1      -0.176  -6.106  -1.539  0.00  0.00    +0.001 A 
ATOM     16  C   UNL     1      -0.177  -6.742  -2.769  0.00  0.00    +0.004 A 
ATOM     17  C   UNL     1      -0.137  -6.003  -3.935  0.00  0.00    +0.046 A 
ATOM     18  C   UNL     1      -0.101  -4.619  -3.880  0.00  0.00    +0.128 A 
BRANCH  18  19
ATOM     19  O   UNL     1      -0.067  -3.891  -5.026  0.00  0.00    -0.506 OA
ATOM     20  H   UNL     1       0.825  -3.708  -5.349  0.00  0.00    +0.292 HD
ENDBRANCH  18  19
ENDBRANCH  11  13
BRANCH   2  21
ATOM     21  C   UNL     1      -1.261   0.240   0.702  0.00  0.00    +0.075 C 
ATOM     22  C   UNL     1      -1.417   1.739   0.966  0.00  0.00    +0.022 C 
ATOM     23  C   UNL     1      -2.736   1.995   1.697  0.00  0.00    +0.002 C 
ATOM     24  C   UNL     1      -2.735   1.240   3.029  0.00  0.00    +0.000 C 
ATOM     25  C   UNL     1      -2.580  -0.259   2.765  0.00  0.00    +0.002 C 
ATOM     26  C   UNL     1      -1.261  -0.514   2.034  0.00  0.00    +0.022 C 
ENDBRANCH   2  21
TORSDOF 3
