REMARK  Name = ZINC60371526
REMARK  11 active torsions:
REMARK  status: ('A' for Active; 'I' for Inactive)
REMARK    1  A    between atoms: C_1  and  C_2
REMARK    2  A    between atoms: N_5  and  C_8
REMARK    3  A    between atoms: C_8  and  C_10
REMARK    4  A    between atoms: C_8  and  C_29
REMARK    5  A    between atoms: C_10  and  N_11
REMARK    6  A    between atoms: C_12  and  C_14
REMARK    7  A    between atoms: C_14  and  C_15
REMARK    8  A    between atoms: C_15  and  N_16
REMARK    9  A    between atoms: C_17  and  C_19
REMARK   10  A    between atoms: C_29  and  C_30
REMARK   11  A    between atoms: C_29  and  C_31
REMARK                            x       y       z     vdW  Elec       q    Type
REMARK                         _______ _______ _______ _____ _____    ______ ____
ROOT
ATOM      1  N   UNL     1      -2.941  -3.970   0.395  0.00  0.00    -0.317 N 
ATOM      2  C   UNL     1      -4.232  -4.330   0.251  0.00  0.00    +0.214 C 
ATOM      3  O   UNL     1      -4.769  -5.015   1.095  0.00  0.00    -0.276 OA
ATOM      4  H   UNL     1      -2.512  -3.421  -0.280  0.00  0.00    +0.149 HD
ENDROOT
BRANCH   1   5
ATOM      5  C   UNL     1      -2.186  -4.408   1.572  0.00  0.00    +0.089 C 
BRANCH   5   6
ATOM      6  C   UNL     1      -0.821  -3.716   1.588  0.00  0.00    -0.049 C 
BRANCH   6  11
ATOM      7  C   UNL     1      -2.659   1.585   2.608  0.00  0.00    +0.007 C 
ATOM      8  C   UNL     1      -2.606   0.085   2.311  0.00  0.00    -0.018 C 
ATOM      9  C   UNL     1      -1.886  -0.638   3.453  0.00  0.00    -0.016 C 
ATOM     10  C   UNL     1      -1.766  -2.125   3.112  0.00  0.00    -0.078 C 
ATOM     11  N   UNL     1      -1.001  -2.285   1.869  0.00  0.00    +0.383 N 
ATOM     12  C   UNL     1      -1.721  -1.656   0.756  0.00  0.00    -0.078 C 
ATOM     13  C   UNL     1      -1.839  -0.151   1.006  0.00  0.00    -0.016 C 
ATOM     14  H   UNL     1      -0.097  -1.849   1.974  0.00  0.00    -0.081 HD
ENDBRANCH   6  11
BRANCH   6  15
ATOM     15  C   UNL     1       0.056  -4.343   2.674  0.00  0.00    -0.029 C 
ATOM     16  C   UNL     1       0.343  -5.803   2.317  0.00  0.00    +0.005 C 
ATOM     17  C   UNL     1       1.374  -3.574   2.772  0.00  0.00    +0.005 C 
ENDBRANCH   6  15
ENDBRANCH   5   6
ENDBRANCH   1   5
BRANCH   2  18
ATOM     18  C   UNL     1      -5.009  -3.879  -0.959  0.00  0.00    +0.114 C 
BRANCH  18  19
ATOM     19  C   UNL     1      -6.438  -4.420  -0.878  0.00  0.00    +0.114 C 
BRANCH  19  20
ATOM     20  N   UNL     1      -7.194  -3.982  -2.054  0.00  0.00    -0.310 N 
ATOM     21  C   UNL     1      -8.485  -4.342  -2.198  0.00  0.00    +0.265 C 
ATOM     22  O   UNL     1      -9.022  -5.029  -1.352  0.00  0.00    -0.268 OA
ATOM     23  H   UNL     1      -6.765  -3.434  -2.730  0.00  0.00    +0.149 HD
BRANCH  21  24
ATOM     24  C   UNL     1      -9.244  -3.901  -3.382  0.00  0.00    +0.154 A 
ATOM     25  C   UNL     1     -10.649  -4.203  -3.689  0.00  0.00    +0.032 A 
ATOM     26  C   UNL     1     -11.668  -4.921  -3.070  0.00  0.00    +0.012 A 
ATOM     27  C   UNL     1     -12.898  -4.995  -3.661  0.00  0.00    +0.001 A 
ATOM     28  C   UNL     1     -13.139  -4.360  -4.872  0.00  0.00    +0.002 A 
ATOM     29  C   UNL     1     -12.145  -3.644  -5.501  0.00  0.00    +0.028 A 
ATOM     30  C   UNL     1     -10.885  -3.556  -4.918  0.00  0.00    +0.066 A 
ATOM     31  N   UNL     1      -9.705  -2.947  -5.258  0.00  0.00    -0.276 N 
ATOM     32  N   UNL     1      -8.801  -3.155  -4.371  0.00  0.00    -0.168 NA
ATOM     33  H   UNL     1      -9.572  -2.423  -6.064  0.00  0.00    +0.189 HD
ENDBRANCH  21  24
ENDBRANCH  19  20
ENDBRANCH  18  19
ENDBRANCH   2  18
TORSDOF 8
