REMARK  Name = ZINC22146270
REMARK  19 active torsions:
REMARK  status: ('A' for Active; 'I' for Inactive)
REMARK    1  A    between atoms: C_1  and  C_2
REMARK    2  A    between atoms: C_2  and  O_39
REMARK    3  A    between atoms: C_4  and  N_30
REMARK    4  A    between atoms: C_5  and  C_23
REMARK    5  A    between atoms: C_6  and  C_17
REMARK    6  A    between atoms: C_8  and  C_10
REMARK    7  A    between atoms: C_10  and  O_12
REMARK    8  A    between atoms: O_12  and  C_13
REMARK    9  A    between atoms: C_13  and  C_14
REMARK   10  A    between atoms: C_13  and  C_15
REMARK   11  A    between atoms: C_13  and  C_16
REMARK   12  A    between atoms: C_23  and  O_25
REMARK   13  A    between atoms: O_25  and  C_26
REMARK   14  A    between atoms: C_26  and  C_27
REMARK   15  A    between atoms: C_26  and  C_28
REMARK   16  A    between atoms: C_26  and  C_29
REMARK   17  A    between atoms: N_30  and  C_31
REMARK   18  A    between atoms: C_31  and  C_32
REMARK   19  A    between atoms: C_32  and  C_33
REMARK                            x       y       z     vdW  Elec       q    Type
REMARK                         _______ _______ _______ _____ _____    ______ ____
ROOT
ATOM      1  C   UNL     1       7.691  -1.986  -4.280  0.00  0.00    +0.042 C 
ATOM      2  C   UNL     1       6.268  -1.434  -4.181  0.00  0.00    +0.082 C 
ATOM      3  C   UNL     1       6.015  -0.918  -2.763  0.00  0.00    +0.086 C 
ATOM      4  C   UNL     1       4.724  -0.154  -2.714  0.00  0.00    +0.017 C 
ATOM      5  C   UNL     1       4.102   0.314  -3.801  0.00  0.00    +0.062 C 
ATOM      6  C   UNL     1       4.621   0.128  -5.198  0.00  0.00    +0.074 C 
ATOM      7  C   UNL     1       6.098  -0.269  -5.163  0.00  0.00    +0.141 C 
ENDROOT
BRANCH   6   8
ATOM      8  C   UNL     1       4.468   1.415  -5.967  0.00  0.00    -0.039 A 
ATOM      9  C   UNL     1       5.108   2.561  -5.532  0.00  0.00    +0.004 A 
ATOM     10  C   UNL     1       4.971   3.740  -6.241  0.00  0.00    +0.000 A 
ATOM     11  C   UNL     1       4.186   3.776  -7.378  0.00  0.00    +0.000 A 
ATOM     12  C   UNL     1       3.541   2.632  -7.809  0.00  0.00    +0.000 A 
ATOM     13  C   UNL     1       3.682   1.451  -7.104  0.00  0.00    +0.004 A 
ENDBRANCH   6   8
BRANCH   7  14
ATOM     14  C   UNL     1       6.539  -0.698  -6.538  0.00  0.00    +0.314 C 
ATOM     15  O   UNL     1       5.768  -1.274  -7.268  0.00  0.00    -0.250 OA
BRANCH  14  16
ATOM     16  O   UNL     1       7.790  -0.440  -6.953  0.00  0.00    -0.459 OA
BRANCH  16  17
ATOM     17  C   UNL     1       8.145  -0.882  -8.290  0.00  0.00    +0.105 C 
ATOM     18  C   UNL     1       7.226  -0.209  -9.311  0.00  0.00    +0.055 C 
ATOM     19  C   UNL     1       9.598  -0.502  -8.583  0.00  0.00    +0.055 C 
ATOM     20  C   UNL     1       7.987  -2.401  -8.383  0.00  0.00    +0.055 C 
ENDBRANCH  16  17
ENDBRANCH  14  16
ENDBRANCH   7  14
BRANCH   5  21
ATOM     21  C   UNL     1       2.895   1.026  -3.627  0.00  0.00    +0.338 C 
ATOM     22  O   UNL     1       2.507   1.299  -2.506  0.00  0.00    -0.245 OA
BRANCH  21  23
ATOM     23  O   UNL     1       2.173   1.404  -4.702  0.00  0.00    -0.456 OA
BRANCH  23  24
ATOM     24  C   UNL     1       0.962   2.121  -4.451  0.00  0.00    +0.106 C 
ATOM     25  C   UNL     1       1.282   3.413  -3.697  0.00  0.00    +0.055 C 
ATOM     26  C   UNL     1       0.286   2.461  -5.781  0.00  0.00    +0.055 C 
ATOM     27  C   UNL     1       0.023   1.257  -3.608  0.00  0.00    +0.055 C 
ENDBRANCH  23  24
ENDBRANCH  21  23
ENDBRANCH   5  21
BRANCH   4  28
ATOM     28  N   UNL     1       4.151   0.070  -1.495  0.00  0.00    -0.346 N 
ATOM     29  H   UNL     1       3.138  -0.306  -1.286  0.00  0.00    +0.146 HD
BRANCH  28  30
ATOM     30  C   UNL     1       4.884   0.812  -0.466  0.00  0.00    +0.106 C 
BRANCH  30  31
ATOM     31  C   UNL     1       3.979   1.030   0.748  0.00  0.00    +0.054 C 
BRANCH  31  32
ATOM     32  C   UNL     1       4.733   1.792   1.806  0.00  0.00    -0.046 A 
ATOM     33  C   UNL     1       4.696   3.174   1.821  0.00  0.00    +0.004 A 
ATOM     34  C   UNL     1       5.392   3.874   2.789  0.00  0.00    +0.000 A 
ATOM     35  C   UNL     1       6.117   3.192   3.748  0.00  0.00    +0.000 A 
ATOM     36  C   UNL     1       6.154   1.810   3.733  0.00  0.00    +0.000 A 
ATOM     37  C   UNL     1       5.461   1.110   2.763  0.00  0.00    +0.004 A 
ENDBRANCH  31  32
ENDBRANCH  30  31
ENDBRANCH  28  30
ENDBRANCH   4  28
BRANCH   2  38
ATOM     38  O   UNL     1       5.327  -2.464  -4.491  0.00  0.00    -0.388 OA
ATOM     39  H   UNL     1       4.249  -2.249  -4.471  0.00  0.00    +0.210 HD
ENDBRANCH   2  38
TORSDOF 12
