REMARK  Name = ZINC14200397
REMARK  4 active torsions:
REMARK  status: ('A' for Active; 'I' for Inactive)
REMARK    1  A    between atoms: C_3  and  C_9
REMARK    2  A    between atoms: N_11  and  C_12
REMARK    3  A    between atoms: C_12  and  C_13
REMARK    4  A    between atoms: N_15  and  N_16
REMARK                            x       y       z     vdW  Elec       q    Type
REMARK                         _______ _______ _______ _____ _____    ______ ____
ROOT
ATOM      1  C   UNL     1      -4.875   1.156   0.031  0.00  0.00    +0.247 C 
ATOM      2  O   UNL     1      -4.640  -0.034   0.024  0.00  0.00    -0.273 OA
ATOM      3  N   UNL     1      -6.151   1.591   0.040  0.00  0.00    -0.222 N 
ATOM      4  H   UNL     1      -6.338   2.543   0.046  0.00  0.00    +0.174 HD
ENDROOT
BRANCH   3   5
ATOM      5  N   UNL     1      -7.205   0.669   0.040  0.00  0.00    -0.137 N 
ATOM      6  C   UNL     1      -7.961   0.381   1.120  0.00  0.00    +0.263 C 
ATOM      7  O   UNL     1      -7.862   0.853   2.232  0.00  0.00    -0.271 OA
ATOM      8  C   UNL     1      -8.959  -0.653   0.650  0.00  0.00    +0.114 C 
ATOM      9  C   UNL     1     -10.381  -0.124   0.797  0.00  0.00    +0.035 C 
ATOM     10  C   UNL     1     -11.374  -1.174   0.291  0.00  0.00    +0.003 C 
ATOM     11  C   UNL     1     -11.206  -2.463   1.097  0.00  0.00    +0.000 C 
ATOM     12  C   UNL     1      -9.782  -2.994   0.920  0.00  0.00    +0.003 C 
ATOM     13  C   UNL     1      -8.783  -1.952   1.429  0.00  0.00    +0.035 C 
ATOM     14  N   UNL     1      -8.626  -0.852  -0.766  0.00  0.00    -0.284 N 
ATOM     15  C   UNL     1      -7.592  -0.032  -1.033  0.00  0.00    +0.326 C 
ATOM     16  O   UNL     1      -7.066   0.059  -2.125  0.00  0.00    -0.251 OA
ATOM     17  H   UNL     1      -9.067  -1.452  -1.387  0.00  0.00    +0.151 HD
ENDBRANCH   3   5
BRANCH   1  18
ATOM     18  C   UNL     1      -3.740   2.148   0.031  0.00  0.00    +0.202 C 
BRANCH  18  21
ATOM     19  C   UNL     1      -1.304   2.116   0.020  0.00  0.00    +0.246 C 
ATOM     20  O   UNL     1      -1.318   3.332   0.026  0.00  0.00    -0.270 OA
ATOM     21  N   UNL     1      -2.464   1.429   0.021  0.00  0.00    -0.303 N 
ATOM     22  H   UNL     1      -2.453   0.460   0.016  0.00  0.00    +0.150 HD
BRANCH  19  25
ATOM     23  C   UNL     1       1.207  -0.675  -0.013  0.00  0.00    +0.021 A 
ATOM     24  C   UNL     1       0.002  -0.004   0.002  0.00  0.00    +0.016 A 
ATOM     25  C   UNL     1      -0.017   1.392   0.010  0.00  0.00    +0.055 A 
ATOM     26  C   UNL     1       1.188   2.101   0.002  0.00  0.00    +0.054 A 
ATOM     27  C   UNL     1       2.387   1.418  -0.013  0.00  0.00    +0.040 A 
ATOM     28  C   UNL     1       2.397   0.033  -0.021  0.00  0.00    +0.042 A 
ATOM     29 CL   UNL     1       3.910  -0.819  -0.040  0.00  0.00    -0.083 Cl
ATOM     30 CL   UNL     1       1.175   3.837   0.011  0.00  0.00    -0.083 Cl
ENDBRANCH  19  25
ENDBRANCH  18  21
ENDBRANCH   1  18
TORSDOF 4
