REMARK  Name = ZINC20033372
REMARK  5 active torsions:
REMARK  status: ('A' for Active; 'I' for Inactive)
REMARK    1  A    between atoms: C_4  and  C_7
REMARK    2  A    between atoms: C_14  and  C_31
REMARK    3  A    between atoms: C_20  and  N_22
REMARK    4  A    between atoms: C_23  and  C_24
REMARK    5  A    between atoms: C_29  and  O_30
REMARK                            x       y       z     vdW  Elec       q    Type
REMARK                         _______ _______ _______ _____ _____    ______ ____
ROOT
ATOM      1  C   UNL     1       3.711  -0.707  -0.038  0.00  0.00    +0.052 C 
ATOM      2  C   UNL     1       3.791  -1.570  -1.297  0.00  0.00    +0.032 C 
ATOM      3  C   UNL     1       5.052  -2.440  -1.209  0.00  0.00    +0.106 C 
ATOM      4  N   UNL     1       4.916  -3.323  -0.047  0.00  0.00    -0.329 N 
ATOM      5  C   UNL     1       5.306  -4.732  -0.154  0.00  0.00    +0.106 C 
ATOM      6  C   UNL     1       6.052  -5.119   1.129  0.00  0.00    +0.032 C 
ATOM      7  C   UNL     1       5.093  -4.971   2.310  0.00  0.00    +0.052 C 
ATOM      8  C   UNL     1       4.472  -3.599   2.312  0.00  0.00    -0.017 A 
ATOM      9  C   UNL     1       4.405  -2.827   1.156  0.00  0.00    +0.037 A 
ATOM     10  C   UNL     1       3.816  -1.570   1.193  0.00  0.00    -0.017 A 
ATOM     11  C   UNL     1       3.309  -1.081   2.382  0.00  0.00    +0.033 A 
ATOM     12  C   UNL     1       3.378  -1.852   3.542  0.00  0.00    +0.065 A 
ATOM     13  C   UNL     1       3.966  -3.110   3.501  0.00  0.00    +0.033 A 
ENDROOT
BRANCH   1  17
ATOM     14  C   UNL     1      -0.017   1.378   0.010  0.00  0.00    +0.000 A 
ATOM     15  C   UNL     1       1.171   2.086   0.002  0.00  0.00    +0.000 A 
ATOM     16  C   UNL     1       2.377   1.411  -0.013  0.00  0.00    +0.004 A 
ATOM     17  C   UNL     1       2.396   0.029  -0.020  0.00  0.00    -0.040 A 
ATOM     18  C   UNL     1       1.208  -0.679  -0.012  0.00  0.00    +0.004 A 
ATOM     19  C   UNL     1       0.002  -0.004   0.002  0.00  0.00    +0.000 A 
ENDBRANCH   1  17
BRANCH   7  20
ATOM     20  C   UNL     1       5.851  -5.174   3.596  0.00  0.00    -0.040 A 
ATOM     21  C   UNL     1       6.903  -4.337   3.918  0.00  0.00    +0.004 A 
ATOM     22  C   UNL     1       7.598  -4.523   5.098  0.00  0.00    +0.000 A 
ATOM     23  C   UNL     1       7.240  -5.545   5.957  0.00  0.00    +0.000 A 
ATOM     24  C   UNL     1       6.188  -6.381   5.636  0.00  0.00    +0.000 A 
ATOM     25  C   UNL     1       5.490  -6.193   4.458  0.00  0.00    +0.004 A 
ENDBRANCH   7  20
BRANCH  12  26
ATOM     26  N   UNL     1       2.878  -1.369   4.720  0.00  0.00    -0.255 NA
ATOM     27  C   UNL     1       2.144  -2.133   5.479  0.00  0.00    +0.123 C 
BRANCH  27  28
ATOM     28  C   UNL     1       1.607  -1.614   6.746  0.00  0.00    +0.034 A 
ATOM     29  C   UNL     1       0.824  -2.432   7.566  0.00  0.00    +0.013 A 
ATOM     30  C   UNL     1       0.324  -1.938   8.752  0.00  0.00    +0.001 A 
ATOM     31  C   UNL     1       0.593  -0.634   9.135  0.00  0.00    +0.004 A 
ATOM     32  C   UNL     1       1.364   0.185   8.334  0.00  0.00    +0.046 A 
ATOM     33  C   UNL     1       1.881  -0.295   7.141  0.00  0.00    +0.125 A 
BRANCH  33  34
ATOM     34  O   UNL     1       2.644   0.507   6.356  0.00  0.00    -0.506 OA
ATOM     35  H   UNL     1       2.140   1.017   5.707  0.00  0.00    +0.292 HD
ENDBRANCH  33  34
ENDBRANCH  27  28
ENDBRANCH  12  26
TORSDOF 5
