REMARK  Name = ZINC46149917
REMARK  6 active torsions:
REMARK  status: ('A' for Active; 'I' for Inactive)
REMARK    1  A    between atoms: C_1  and  O_2
REMARK    2  A    between atoms: O_2  and  C_3
REMARK    3  A    between atoms: C_3  and  C_5
REMARK    4  A    between atoms: C_9  and  N_10
REMARK    5  A    between atoms: N_13  and  C_14
REMARK    6  A    between atoms: C_23  and  C_24
REMARK                            x       y       z     vdW  Elec       q    Type
REMARK                         _______ _______ _______ _____ _____    ______ ____
ROOT
ATOM      1  N   UNL     1       2.710  -1.701   1.147  0.00  0.00    -0.263 N 
ATOM      2  C   UNL     1       3.575  -2.610   1.636  0.00  0.00    +0.309 C 
ATOM      3  O   UNL     1       3.207  -3.411   2.474  0.00  0.00    -0.252 OA
ATOM      4  N   UNL     1       4.849  -2.633   1.197  0.00  0.00    -0.267 N 
ATOM      5  H   UNL     1       3.004  -1.062   0.478  0.00  0.00    +0.157 HD
ATOM      6  H   UNL     1       5.126  -2.041   0.480  0.00  0.00    +0.156 HD
ENDROOT
BRANCH   4   7
ATOM      7  C   UNL     1       5.775  -3.513   1.776  0.00  0.00    +0.068 A 
ATOM      8  C   UNL     1       5.963  -4.927   1.441  0.00  0.00    +0.022 A 
ATOM      9  C   UNL     1       5.352  -5.793   0.529  0.00  0.00    +0.012 A 
ATOM     10  C   UNL     1       5.761  -7.094   0.451  0.00  0.00    +0.001 A 
ATOM     11  C   UNL     1       6.779  -7.564   1.270  0.00  0.00    +0.002 A 
ATOM     12  C   UNL     1       7.394  -6.728   2.176  0.00  0.00    +0.026 A 
ATOM     13  C   UNL     1       6.995  -5.399   2.273  0.00  0.00    +0.049 A 
ATOM     14  N   UNL     1       7.408  -4.346   3.060  0.00  0.00    -0.353 N 
ATOM     15  H   UNL     1       8.110  -4.391   3.727  0.00  0.00    +0.166 HD
ATOM     16  C   UNL     1       6.675  -3.216   2.752  0.00  0.00    +0.071 A 
BRANCH  16  17
ATOM     17  C   UNL     1       6.841  -1.893   3.387  0.00  0.00    +0.018 A 
ATOM     18  C   UNL     1       8.118  -1.352   3.584  0.00  0.00    +0.013 A 
ATOM     19  C   UNL     1       8.218  -0.109   4.183  0.00  0.00    +0.020 A 
ATOM     20  C   UNL     1       7.065   0.554   4.564  0.00  0.00    +0.111 A 
ATOM     21  N   UNL     1       5.875   0.021   4.366  0.00  0.00    -0.263 NA
ATOM     22  C   UNL     1       5.727  -1.157   3.795  0.00  0.00    +0.120 A 
ENDBRANCH  16  17
ENDBRANCH   4   7
BRANCH   1  27
ATOM     23  C   UNL     1       0.379  -0.821   1.212  0.00  0.00    +0.091 A 
ATOM     24  C   UNL     1      -0.918  -1.010   1.838  0.00  0.00    -0.021 A 
ATOM     25  C   UNL     1      -0.956  -2.015   2.739  0.00  0.00    -0.004 A 
ATOM     26  S   UNL     1       0.684  -2.677   2.742  0.00  0.00    -0.077 S 
ATOM     27  C   UNL     1       1.400  -1.677   1.598  0.00  0.00    +0.087 A 
ATOM     28  C   UNL     1      -2.138  -2.454   3.547  0.00  0.00    +0.043 C 
ATOM     29  C   UNL     1      -3.205  -1.352   3.479  0.00  0.00    +0.005 C 
ATOM     30  C   UNL     1      -3.390  -0.931   2.019  0.00  0.00    +0.005 C 
ATOM     31  C   UNL     1      -2.152  -0.173   1.534  0.00  0.00    +0.037 C 
BRANCH  23  32
ATOM     32  C   UNL     1       0.599   0.225   0.211  0.00  0.00    +0.342 C 
ATOM     33  O   UNL     1       0.415  -0.013  -0.968  0.00  0.00    -0.245 OA
BRANCH  32  35
ATOM     34  C   UNL     1       1.199   2.424  -0.433  0.00  0.00    +0.280 C 
ATOM     35  O   UNL     1       1.004   1.452   0.596  0.00  0.00    -0.464 OA
ENDBRANCH  32  35
ENDBRANCH  23  32
ENDBRANCH   1  27
TORSDOF 5
