REMARK  Name = ZINC02291324
REMARK  7 active torsions:
REMARK  status: ('A' for Active; 'I' for Inactive)
REMARK    1  A    between atoms: C_1  and  C_2
REMARK    2  A    between atoms: C_6  and  N_9
REMARK    3  A    between atoms: C_7  and  C_8
REMARK    4  A    between atoms: C_10  and  N_31
REMARK    5  A    between atoms: C_11  and  C_22
REMARK    6  A    between atoms: N_24  and  C_25
REMARK    7  A    between atoms: C_25  and  C_26
REMARK                            x       y       z     vdW  Elec       q    Type
REMARK                         _______ _______ _______ _____ _____    ______ ____
ROOT
ATOM      1  N   UNL     1       0.053  -2.798   2.394  0.00  0.00    -0.280 N 
ATOM      2  C   UNL     1      -1.060  -3.211   3.065  0.00  0.00    +0.117 A 
ATOM      3  C   UNL     1      -0.703  -3.887   4.227  0.00  0.00    +0.102 A 
ATOM      4  C   UNL     1       0.768  -3.890   4.274  0.00  0.00    +0.099 A 
ATOM      5  C   UNL     1       1.198  -3.180   3.066  0.00  0.00    +0.164 A 
ATOM      6  N   UNL     1       2.483  -3.027   2.828  0.00  0.00    -0.226 NA
ATOM      7  C   UNL     1       3.384  -3.521   3.687  0.00  0.00    +0.089 A 
ATOM      8  C   UNL     1       4.760  -3.362   3.440  0.00  0.00    +0.030 A 
ATOM      9  C   UNL     1       5.668  -3.867   4.318  0.00  0.00    +0.002 A 
ATOM     10  C   UNL     1       5.257  -4.544   5.465  0.00  0.00    +0.002 A 
ATOM     11  C   UNL     1       3.936  -4.719   5.737  0.00  0.00    +0.028 A 
ATOM     12  C   UNL     1       2.966  -4.210   4.853  0.00  0.00    +0.065 A 
ATOM     13  N   UNL     1       1.663  -4.369   5.115  0.00  0.00    -0.350 N 
ATOM     14  H   UNL     1       1.380  -4.842   5.913  0.00  0.00    +0.166 HD
ENDROOT
BRANCH   1  20
ATOM     15  C   UNL     1      -0.018   1.503   0.010  0.00  0.00    +0.044 C 
ATOM     16  C   UNL     1       0.002  -0.004   0.002  0.00  0.00    -0.046 A 
ATOM     17  C   UNL     1       0.006  -0.688  -1.200  0.00  0.00    +0.004 A 
ATOM     18  C   UNL     1       0.025  -2.071  -1.212  0.00  0.00    +0.002 A 
ATOM     19  C   UNL     1       0.040  -2.773  -0.022  0.00  0.00    +0.026 A 
ATOM     20  C   UNL     1       0.037  -2.089   1.186  0.00  0.00    +0.053 A 
ATOM     21  C   UNL     1       0.023  -0.700   1.194  0.00  0.00    -0.024 A 
ATOM     22  C   UNL     1       0.025   0.046   2.504  0.00  0.00    +0.046 C 
ENDBRANCH   1  20
BRANCH   3  23
ATOM     23  C   UNL     1      -1.611  -4.478   5.208  0.00  0.00    +0.250 C 
ATOM     24  O   UNL     1      -1.973  -5.634   5.083  0.00  0.00    -0.270 OA
ATOM     25  N   UNL     1      -2.046  -3.744   6.251  0.00  0.00    -0.309 N 
ATOM     26  H   UNL     1      -1.758  -2.823   6.350  0.00  0.00    +0.149 HD
BRANCH  25  27
ATOM     27  C   UNL     1      -2.956  -4.337   7.234  0.00  0.00    +0.136 C 
BRANCH  27  28
ATOM     28  C   UNL     1      -3.294  -3.299   8.307  0.00  0.00    +0.135 C 
ATOM     29  C   UNL     1      -4.159  -3.948   9.409  0.00  0.00    +0.035 C 
ATOM     30  C   UNL     1      -5.175  -2.820   9.737  0.00  0.00    +0.031 C 
ATOM     31  C   UNL     1      -5.355  -2.171   8.341  0.00  0.00    +0.160 C 
ATOM     32  O   UNL     1      -4.057  -2.233   7.729  0.00  0.00    -0.375 OA
ENDBRANCH  27  28
ENDBRANCH  25  27
ENDBRANCH   3  23
BRANCH   2  33
ATOM     33  N   UNL     1      -2.348  -2.990   2.653  0.00  0.00    -0.343 N 
ATOM     34  H   UNL     1      -2.518  -2.509   1.829  0.00  0.00    +0.144 HD
ATOM     35  H   UNL     1      -3.090  -3.316   3.186  0.00  0.00    +0.144 HD
ENDBRANCH   2  33
TORSDOF 5
