REMARK  Name = ZINC06881441
REMARK  10 active torsions:
REMARK  status: ('A' for Active; 'I' for Inactive)
REMARK    1  A    between atoms: C_1  and  C_2
REMARK    2  A    between atoms: C_2  and  C_3
REMARK    3  A    between atoms: C_3  and  C_4
REMARK    4  A    between atoms: C_4  and  C_6
REMARK    5  A    between atoms: C_4  and  N_7
REMARK    6  A    between atoms: C_8  and  C_10
REMARK    7  A    between atoms: C_10  and  N_67
REMARK    8  A    between atoms: N_13  and  S_16
REMARK    9  A    between atoms: S_16  and  C_19
REMARK   10  A    between atoms: C_22  and  C_25
REMARK                            x       y       z     vdW  Elec       q    Type
REMARK                         _______ _______ _______ _____ _____    ______ ____
ROOT
ATOM      1  C   UNL     1      -0.586   1.448   1.669  0.00  0.00    -0.061 C 
ATOM      2  C   UNL     1       0.251   0.781   0.573  0.00  0.00    +0.091 C 
ATOM      3  N   UNL     1      -0.386   1.038  -0.728  0.00  0.00    -0.180 NA
ATOM      4  C   UNL     1      -0.734   2.425  -1.071  0.00  0.00    +0.091 C 
ATOM      5  C   UNL     1      -1.536   3.027   0.088  0.00  0.00    -0.061 C 
ATOM      6  N   UNL     1      -0.753   2.880   1.335  0.00  0.00    +0.387 N 
ATOM      7  H   UNL     1       0.174   3.299   1.196  0.00  0.00    -0.081 HD
ENDROOT
BRANCH   3   8
ATOM      8  S   UNL     1      -0.704  -0.202  -1.778  0.00  0.00    +0.061 S 
ATOM      9  O   UNL     1      -0.771   0.372  -3.076  0.00  0.00    -0.153 OA
ATOM     10  O   UNL     1       0.201  -1.250  -1.455  0.00  0.00    -0.153 OA
BRANCH   8  11
ATOM     11  C   UNL     1      -2.319  -0.799  -1.407  0.00  0.00    +0.105 A 
ATOM     12  C   UNL     1      -2.485  -1.817  -0.486  0.00  0.00    +0.029 A 
ATOM     13  C   UNL     1      -3.753  -2.282  -0.191  0.00  0.00    +0.006 A 
ATOM     14  C   UNL     1      -4.854  -1.737  -0.825  0.00  0.00    -0.044 A 
ATOM     15  C   UNL     1      -4.688  -0.723  -1.749  0.00  0.00    +0.006 A 
ATOM     16  C   UNL     1      -3.420  -0.254  -2.040  0.00  0.00    +0.029 A 
BRANCH  14  17
ATOM     17  C   UNL     1      -6.236  -2.248  -0.507  0.00  0.00    +0.019 C 
ATOM     18  C   UNL     1      -6.526  -2.042   0.981  0.00  0.00    +0.008 C 
ATOM     19  C   UNL     1      -7.929  -2.561   1.303  0.00  0.00    +0.001 C 
ATOM     20  C   UNL     1      -8.011  -4.052   0.969  0.00  0.00    +0.000 C 
ATOM     21  C   UNL     1      -7.721  -4.257  -0.519  0.00  0.00    +0.001 C 
ATOM     22  C   UNL     1      -6.318  -3.739  -0.842  0.00  0.00    +0.008 C 
ENDBRANCH  14  17
ENDBRANCH   8  11
ENDBRANCH   3   8
BRANCH   6  23
ATOM     23  C   UNL     1      -1.434   3.580   2.443  0.00  0.00    +0.019 C 
BRANCH  23  25
ATOM     24  N   UNL     1      -3.508   3.370   3.774  0.00  0.00    -0.314 N 
ATOM     25  C   UNL     1      -2.776   2.954   2.722  0.00  0.00    +0.197 C 
ATOM     26  O   UNL     1      -3.196   2.074   2.000  0.00  0.00    -0.278 OA
ATOM     27  H   UNL     1      -3.172   4.073   4.351  0.00  0.00    +0.149 HD
BRANCH  24  28
ATOM     28  C   UNL     1      -4.813   2.761   4.045  0.00  0.00    +0.070 C 
ATOM     29  C   UNL     1      -4.619   1.488   4.872  0.00  0.00    +0.028 C 
BRANCH  28  30
ATOM     30  C   UNL     1      -5.684   3.748   4.825  0.00  0.00    +0.022 C 
BRANCH  30  32
ATOM     31  C   UNL     1      -6.852   5.954   4.731  0.00  0.00    +0.004 C 
ATOM     32  C   UNL     1      -5.981   4.967   3.951  0.00  0.00    -0.002 C 
ENDBRANCH  30  32
ENDBRANCH  28  30
ENDBRANCH  24  28
ENDBRANCH  23  25
ENDBRANCH   6  23
TORSDOF 8
