REMARK  Name = ZINC38971879
REMARK  6 active torsions:
REMARK  status: ('A' for Active; 'I' for Inactive)
REMARK    1  A    between atoms: C_1  and  C_2
REMARK    2  A    between atoms: C_5  and  C_31
REMARK    3  A    between atoms: C_6  and  S_8
REMARK    4  A    between atoms: S_8  and  N_11
REMARK    5  A    between atoms: C_13  and  N_23
REMARK    6  A    between atoms: N_23  and  C_24
REMARK                            x       y       z     vdW  Elec       q    Type
REMARK                         _______ _______ _______ _____ _____    ______ ____
ROOT
ATOM      1  N   UNL     1      -1.329  -3.625   3.048  0.00  0.00    -0.110 NA
ATOM      2  C   UNL     1      -1.612  -4.495   3.973  0.00  0.00    +0.192 C 
ATOM      3  C   UNL     1      -2.879  -5.316   3.892  0.00  0.00    +0.237 C 
ATOM      4  N   UNL     1      -3.141  -6.283   4.969  0.00  0.00    -0.359 N 
ATOM      5  C   UNL     1      -2.273  -6.386   5.937  0.00  0.00    +0.063 A 
ATOM      6  C   UNL     1      -2.488  -7.337   7.037  0.00  0.00    +0.027 A 
ATOM      7  C   UNL     1      -1.567  -7.416   8.022  0.00  0.00    +0.002 A 
ATOM      8  C   UNL     1      -0.413  -6.614   8.021  0.00  0.00    +0.002 A 
ATOM      9  C   UNL     1      -0.148  -5.719   7.045  0.00  0.00    +0.030 A 
ATOM     10  C   UNL     1      -1.046  -5.552   5.961  0.00  0.00    +0.089 A 
ATOM     11  N   UNL     1      -0.780  -4.681   5.010  0.00  0.00    -0.226 NA
ATOM     12  H   UNL     1      -3.941  -6.831   4.960  0.00  0.00    +0.162 HD
ENDROOT
BRANCH   1  13
ATOM     13  S   UNL     1       0.066  -2.737   3.145  0.00  0.00    +0.101 S 
ATOM     14  O   UNL     1       1.142  -3.654   2.998  0.00  0.00    -0.146 OA
ATOM     15  O   UNL     1      -0.067  -1.895   4.282  0.00  0.00    -0.146 OA
BRANCH  13  21
ATOM     16  C   UNL     1      -0.001   2.016   0.973  0.00  0.00    +0.044 C 
ATOM     17  C   UNL     1       0.073   0.522   0.795  0.00  0.00    -0.049 A 
ATOM     18  C   UNL     1       0.175  -0.019  -0.473  0.00  0.00    +0.004 A 
ATOM     19  C   UNL     1       0.244  -1.390  -0.636  0.00  0.00    +0.005 A 
ATOM     20  C   UNL     1       0.210  -2.220   0.469  0.00  0.00    -0.024 A 
ATOM     21  C   UNL     1       0.109  -1.679   1.737  0.00  0.00    +0.116 A 
ATOM     22  C   UNL     1       0.045  -0.308   1.900  0.00  0.00    +0.032 A 
ATOM     23  C   UNL     1       0.284  -3.715   0.291  0.00  0.00    +0.046 C 
ENDBRANCH  13  21
ENDBRANCH   1  13
BRANCH   3  24
ATOM     24  N   UNL     1      -4.011  -4.387   3.841  0.00  0.00    -0.318 N 
ATOM     25  H   UNL     1      -4.034  -3.618   4.431  0.00  0.00    +0.148 HD
BRANCH  24  26
ATOM     26  C   UNL     1      -5.057  -4.610   2.942  0.00  0.00    +0.029 A 
ATOM     27  C   UNL     1      -6.049  -3.652   2.778  0.00  0.00    +0.024 A 
ATOM     28  C   UNL     1      -7.082  -3.874   1.889  0.00  0.00    +0.017 A 
ATOM     29  C   UNL     1      -7.130  -5.051   1.162  0.00  0.00    +0.018 A 
ATOM     30  C   UNL     1      -6.143  -6.007   1.323  0.00  0.00    +0.017 A 
ATOM     31  C   UNL     1      -5.104  -5.787   2.206  0.00  0.00    +0.024 A 
ATOM     32 BR   UNL     1      -8.547  -5.353  -0.053  0.00  0.00    -0.050 Br
ENDBRANCH  24  26
ENDBRANCH   3  24
TORSDOF 4
