REMARK  Name = ZINC66556361
REMARK  7 active torsions:
REMARK  status: ('A' for Active; 'I' for Inactive)
REMARK    1  A    between atoms: C_1  and  C_2
REMARK    2  A    between atoms: C_5  and  C_24
REMARK    3  A    between atoms: C_8  and  C_23
REMARK    4  A    between atoms: C_9  and  C_11
REMARK    5  A    between atoms: N_13  and  N_14
REMARK    6  A    between atoms: C_15  and  C_17
REMARK    7  A    between atoms: C_18  and  C_22
REMARK                            x       y       z     vdW  Elec       q    Type
REMARK                         _______ _______ _______ _____ _____    ______ ____
ROOT
ATOM      1  C   UNL     1       0.067  -1.578   4.791  0.00  0.00    +0.296 C 
ATOM      2  O   UNL     1       0.059  -0.566   5.466  0.00  0.00    -0.265 OA
ATOM      3  N   UNL     1       0.090  -2.786   5.388  0.00  0.00    -0.228 N 
ATOM      4  H   UNL     1       0.096  -3.593   4.850  0.00  0.00    +0.173 HD
ENDROOT
BRANCH   1  13
ATOM      5  C   UNL     1      -0.018   1.503   0.010  0.00  0.00    +0.044 C 
ATOM      6  C   UNL     1       0.002  -0.004   0.002  0.00  0.00    -0.039 A 
ATOM      7  C   UNL     1       0.006  -0.684  -1.183  0.00  0.00    +0.004 A 
ATOM      8  C   UNL     1       0.025  -2.072  -1.198  0.00  0.00    +0.007 A 
ATOM      9  C   UNL     1       0.040  -2.789  -0.021  0.00  0.00    -0.008 A 
ATOM     10  C   UNL     1       0.037  -2.119   1.197  0.00  0.00    +0.139 A 
ATOM     11  C   UNL     1       0.023  -0.712   1.206  0.00  0.00    +0.027 A 
ATOM     12  C   UNL     1       0.030  -0.325   2.616  0.00  0.00    +0.008 A 
ATOM     13  C   UNL     1       0.053  -1.483   3.324  0.00  0.00    +0.195 A 
ATOM     14  O   UNL     1       0.049  -2.535   2.478  0.00  0.00    -0.450 OA
ATOM     15  C   UNL     1       0.016   1.076   3.171  0.00  0.00    +0.048 C 
ATOM     16  C   UNL     1       0.060  -4.295  -0.055  0.00  0.00    +0.047 C 
ENDBRANCH   1  13
BRANCH   3  17
ATOM     17  N   UNL     1       0.103  -2.876   6.786  0.00  0.00    -0.230 N 
ATOM     18  C   UNL     1       0.126  -4.084   7.383  0.00  0.00    +0.267 C 
ATOM     19  O   UNL     1       0.134  -5.097   6.708  0.00  0.00    -0.268 OA
ATOM     20  H   UNL     1       0.097  -2.069   7.324  0.00  0.00    +0.173 HD
BRANCH  18  21
ATOM     21  C   UNL     1       0.140  -4.179   8.846  0.00  0.00    +0.078 A 
ATOM     22  C   UNL     1       0.169  -5.309   9.649  0.00  0.00    -0.031 A 
ATOM     23  C   UNL     1       0.176  -5.079  11.003  0.00  0.00    +0.011 A 
ATOM     24  C   UNL     1       0.155  -3.801  11.455  0.00  0.00    +0.046 A 
ATOM     25  S   UNL     1       0.133  -2.870  10.056  0.00  0.00    -0.092 S 
ATOM     26  C   UNL     1       0.190  -6.701   9.072  0.00  0.00    +0.045 C 
ENDBRANCH  18  21
ENDBRANCH   3  17
TORSDOF 3
