REMARK  Name = ZINC38223081
REMARK  11 active torsions:
REMARK  status: ('A' for Active; 'I' for Inactive)
REMARK    1  A    between atoms: C_1  and  C_2
REMARK    2  A    between atoms: C_2  and  O_3
REMARK    3  A    between atoms: O_3  and  C_4
REMARK    4  A    between atoms: C_5  and  O_33
REMARK    5  A    between atoms: C_7  and  C_11
REMARK    6  A    between atoms: C_13  and  C_22
REMARK    7  A    between atoms: C_14  and  C_21
REMARK    8  A    between atoms: N_24  and  C_25
REMARK    9  A    between atoms: C_28  and  C_32
REMARK   10  A    between atoms: C_30  and  C_31
REMARK   11  A    between atoms: O_33  and  C_34
REMARK                            x       y       z     vdW  Elec       q    Type
REMARK                         _______ _______ _______ _____ _____    ______ ____
ROOT
ATOM      1  C   UNL     1       1.017  -5.295  -1.664  0.00  0.00    +0.179 C 
ATOM      2  C   UNL     1       1.390  -5.822  -3.024  0.00  0.00    +0.060 C 
ATOM      3  C   UNL     1       0.598  -6.639  -3.735  0.00  0.00    +0.018 C 
ATOM      4  N   UNL     1      -0.619  -7.071  -3.268  0.00  0.00    -0.286 N 
ATOM      5  C   UNL     1      -0.903  -6.849  -1.928  0.00  0.00    +0.240 A 
ATOM      6  N   UNL     1      -0.142  -6.023  -1.163  0.00  0.00    -0.201 N 
ATOM      7  N   UNL     1      -0.716  -6.055   0.107  0.00  0.00    -0.042 NA
ATOM      8  N   UNL     1      -1.734  -6.850   0.030  0.00  0.00    -0.021 NA
ATOM      9  N   UNL     1      -1.849  -7.319  -1.167  0.00  0.00    -0.092 NA
ATOM     10  C   UNL     1       1.061  -7.098  -5.094  0.00  0.00    +0.061 C 
ATOM     11  H   UNL     1      -1.256  -7.513  -3.852  0.00  0.00    +0.155 HD
ENDROOT
BRANCH   1  15
ATOM     12  C   UNL     1       0.068  -1.135  -1.959  0.00  0.00    +0.176 A 
ATOM     13  C   UNL     1       1.175  -1.546  -1.224  0.00  0.00    +0.163 A 
ATOM     14  C   UNL     1       1.480  -2.894  -1.130  0.00  0.00    +0.055 A 
ATOM     15  C   UNL     1       0.684  -3.829  -1.767  0.00  0.00    -0.014 A 
ATOM     16  C   UNL     1      -0.415  -3.421  -2.498  0.00  0.00    +0.025 A 
ATOM     17  C   UNL     1      -0.729  -2.077  -2.591  0.00  0.00    +0.063 A 
ATOM     18 BR   UNL     1      -2.239  -1.524  -3.585  0.00  0.00    -0.046 Br
BRANCH  13  19
ATOM     19  O   UNL     1       1.958  -0.626  -0.598  0.00  0.00    -0.491 OA
ATOM     20  C   UNL     1       3.010  -1.125   0.231  0.00  0.00    +0.277 C 
ENDBRANCH  13  19
BRANCH  12  21
ATOM     21  O   UNL     1      -0.235   0.188  -2.054  0.00  0.00    -0.487 OA
BRANCH  21  23
ATOM     22  C   UNL     1      -1.325   2.217  -1.324  0.00  0.00    +0.048 C 
ATOM     23  C   UNL     1      -1.100   0.728  -1.054  0.00  0.00    +0.226 C 
ENDBRANCH  21  23
ENDBRANCH  12  21
ENDBRANCH   1  15
BRANCH   2  24
ATOM     24  C   UNL     1       2.633  -5.438  -3.579  0.00  0.00    +0.248 C 
ATOM     25  O   UNL     1       3.652  -6.016  -3.248  0.00  0.00    -0.270 OA
ATOM     26  N   UNL     1       2.690  -4.431  -4.473  0.00  0.00    -0.281 N 
ATOM     27  H   UNL     1       1.890  -3.925  -4.685  0.00  0.00    +0.155 HD
BRANCH  26  28
ATOM     28  C   UNL     1       3.901  -4.116  -5.096  0.00  0.00    +0.037 A 
ATOM     29  C   UNL     1       4.932  -5.047  -5.125  0.00  0.00    +0.024 A 
ATOM     30  C   UNL     1       6.127  -4.733  -5.741  0.00  0.00    +0.005 A 
ATOM     31  C   UNL     1       6.299  -3.493  -6.329  0.00  0.00    -0.050 A 
ATOM     32  C   UNL     1       5.276  -2.564  -6.302  0.00  0.00    +0.008 A 
ATOM     33  C   UNL     1       4.075  -2.874  -5.692  0.00  0.00    -0.029 A 
ATOM     34  C   UNL     1       2.958  -1.863  -5.668  0.00  0.00    +0.045 C 
ATOM     35  C   UNL     1       7.605  -3.154  -7.000  0.00  0.00    +0.044 C 
ENDBRANCH  26  28
ENDBRANCH   2  24
TORSDOF 6
