REMARK  Name = ZINC59370125
REMARK  8 active torsions:
REMARK  status: ('A' for Active; 'I' for Inactive)
REMARK    1  A    between atoms: C_1  and  O_2
REMARK    2  A    between atoms: O_2  and  C_3
REMARK    3  A    between atoms: C_6  and  C_9
REMARK    4  A    between atoms: C_9  and  C_10
REMARK    5  A    between atoms: N_11  and  N_12
REMARK    6  A    between atoms: C_13  and  C_24
REMARK    7  A    between atoms: C_27  and  O_30
REMARK    8  A    between atoms: O_30  and  C_31
REMARK                            x       y       z     vdW  Elec       q    Type
REMARK                         _______ _______ _______ _____ _____    ______ ____
ROOT
ATOM      1  N   UNL     1       0.435  -4.239   6.823  0.00  0.00    -0.164 N 
ATOM      2  C   UNL     1       0.265  -5.595   7.345  0.00  0.00    +0.215 C 
ATOM      3  N   UNL     1      -0.222  -5.550   8.729  0.00  0.00    -0.320 N 
ATOM      4  C   UNL     1      -1.246  -4.664   9.044  0.00  0.00    +0.041 A 
ATOM      5  C   UNL     1      -2.155  -4.925  10.055  0.00  0.00    +0.024 A 
ATOM      6  C   UNL     1      -3.158  -4.013  10.323  0.00  0.00    +0.002 A 
ATOM      7  C   UNL     1      -3.261  -2.841   9.590  0.00  0.00    +0.001 A 
ATOM      8  C   UNL     1      -2.362  -2.566   8.581  0.00  0.00    +0.015 A 
ATOM      9  C   UNL     1      -1.345  -3.475   8.300  0.00  0.00    +0.059 A 
ATOM     10  C   UNL     1      -0.348  -3.224   7.245  0.00  0.00    +0.270 C 
ATOM     11  O   UNL     1      -0.235  -2.116   6.756  0.00  0.00    -0.268 OA
ATOM     12  H   UNL     1       0.163  -6.125   9.409  0.00  0.00    +0.148 HD
ENDROOT
BRANCH   2  13
ATOM     13  C   UNL     1      -0.732  -6.337   6.493  0.00  0.00    -0.007 A 
ATOM     14  C   UNL     1      -0.853  -6.032   5.149  0.00  0.00    +0.011 A 
ATOM     15  C   UNL     1      -1.767  -6.710   4.366  0.00  0.00    +0.046 A 
ATOM     16  C   UNL     1      -2.563  -7.697   4.928  0.00  0.00    +0.120 A 
ATOM     17  C   UNL     1      -2.439  -8.002   6.275  0.00  0.00    +0.046 A 
ATOM     18  C   UNL     1      -1.520  -7.324   7.054  0.00  0.00    +0.011 A 
BRANCH  16  19
ATOM     19  O   UNL     1      -3.463  -8.365   4.159  0.00  0.00    -0.495 OA
ATOM     20  C   UNL     1      -4.248  -9.370   4.804  0.00  0.00    +0.277 C 
ENDBRANCH  16  19
ENDBRANCH   2  13
BRANCH   1  22
ATOM     21  C   UNL     1       2.114  -4.958   5.388  0.00  0.00    +0.108 C 
ATOM     22  N   UNL     1       1.433  -3.988   5.872  0.00  0.00    -0.187 NA
BRANCH  21  23
ATOM     23  C   UNL     1       3.112  -4.703   4.288  0.00  0.00    +0.084 C 
BRANCH  23  27
ATOM     24  C   UNL     1       6.944  -6.181   5.469  0.00  0.00    +0.120 A 
ATOM     25  C   UNL     1       6.059  -7.008   4.792  0.00  0.00    +0.046 A 
ATOM     26  C   UNL     1       4.821  -6.528   4.411  0.00  0.00    +0.007 A 
ATOM     27  C   UNL     1       4.463  -5.224   4.705  0.00  0.00    -0.042 A 
ATOM     28  C   UNL     1       5.344  -4.399   5.379  0.00  0.00    +0.007 A 
ATOM     29  C   UNL     1       6.581  -4.876   5.767  0.00  0.00    +0.046 A 
BRANCH  24  31
ATOM     30  C   UNL     1       8.469  -8.005   5.504  0.00  0.00    +0.277 C 
ATOM     31  O   UNL     1       8.163  -6.652   5.844  0.00  0.00    -0.495 OA
ENDBRANCH  24  31
ENDBRANCH  23  27
ENDBRANCH  21  23
ENDBRANCH   1  22
TORSDOF 6
