REMARK  Name = ZINC35723608
REMARK  6 active torsions:
REMARK  status: ('A' for Active; 'I' for Inactive)
REMARK    1  A    between atoms: C_4  and  C_7
REMARK    2  A    between atoms: C_7  and  C_8
REMARK    3  A    between atoms: C_8  and  C_10
REMARK    4  A    between atoms: C_8  and  N_25
REMARK    5  A    between atoms: C_16  and  C_18
REMARK    6  A    between atoms: C_26  and  C_28
REMARK                            x       y       z     vdW  Elec       q    Type
REMARK                         _______ _______ _______ _____ _____    ______ ____
ROOT
ATOM      1  C   UNL     1       4.171  -0.963   1.399  0.00  0.00    +0.164 C 
ENDROOT
BRANCH   1   2
ATOM      2  C   UNL     1       5.422  -1.804   1.383  0.00  0.00    +0.239 C 
ATOM      3  O   UNL     1       6.446  -1.378   1.874  0.00  0.00    -0.273 OA
ATOM      4  N   UNL     1       5.402  -3.031   0.824  0.00  0.00    -0.262 N 
ATOM      5  C   UNL     1       6.555  -3.806   0.810  0.00  0.00    +0.188 A 
ATOM      6  N   UNL     1       7.765  -3.544   1.288  0.00  0.00    -0.125 NA
ATOM      7  N   UNL     1       8.713  -4.370   1.190  0.00  0.00    -0.140 NA
ATOM      8  C   UNL     1       8.557  -5.550   0.604  0.00  0.00    +0.134 A 
ATOM      9  S   UNL     1       6.829  -5.448   0.149  0.00  0.00    -0.030 S 
ATOM     10  H   UNL     1       4.583  -3.372   0.432  0.00  0.00    +0.157 HD
BRANCH   8  11
ATOM     11  C   UNL     1       9.532  -6.642   0.392  0.00  0.00    +0.009 A 
ATOM     12  C   UNL     1       9.143  -7.811  -0.264  0.00  0.00    +0.012 A 
ATOM     13  C   UNL     1      10.057  -8.825  -0.459  0.00  0.00    +0.020 A 
ATOM     14  C   UNL     1      11.357  -8.687  -0.004  0.00  0.00    +0.041 A 
ATOM     15  C   UNL     1      11.749  -7.529   0.648  0.00  0.00    +0.020 A 
ATOM     16  C   UNL     1      10.846  -6.505   0.843  0.00  0.00    +0.012 A 
ATOM     17 CL   UNL     1      12.502  -9.968  -0.252  0.00  0.00    -0.084 Cl
ENDBRANCH   8  11
ENDBRANCH   1   2
BRANCH   1  18
ATOM     18  N   UNL     1       4.451   0.315   2.057  0.00  0.00    -0.300 N 
ATOM     19  C   UNL     1       3.451   1.007   2.638  0.00  0.00    +0.245 C 
ATOM     20  O   UNL     1       2.317   0.570   2.616  0.00  0.00    -0.270 OA
ATOM     21  H   UNL     1       5.356   0.664   2.075  0.00  0.00    +0.150 HD
BRANCH  19  22
ATOM     22  C   UNL     1       3.733   2.295   3.302  0.00  0.00    +0.040 A 
ATOM     23  C   UNL     1       5.035   2.801   3.324  0.00  0.00    +0.017 A 
ATOM     24  C   UNL     1       5.296   4.004   3.942  0.00  0.00    +0.050 A 
ATOM     25  C   UNL     1       4.268   4.717   4.546  0.00  0.00    +0.166 A 
ATOM     26  C   UNL     1       2.966   4.216   4.529  0.00  0.00    +0.167 A 
ATOM     27  C   UNL     1       2.697   3.014   3.905  0.00  0.00    +0.062 A 
ATOM     28  O   UNL     1       2.152   5.096   5.183  0.00  0.00    -0.453 OA
ATOM     29  C   UNL     1       3.034   5.935   5.953  0.00  0.00    +0.466 C 
ATOM     30  O   UNL     1       4.267   5.908   5.210  0.00  0.00    -0.453 OA
ENDBRANCH  19  22
ENDBRANCH   1  18
BRANCH   1  31
ATOM     31  C   UNL     1       3.711  -0.707  -0.038  0.00  0.00    +0.067 C 
BRANCH  31  35
ATOM     32  C   UNL     1      -0.017   1.378   0.010  0.00  0.00    +0.000 A 
ATOM     33  C   UNL     1       1.171   2.086   0.002  0.00  0.00    +0.000 A 
ATOM     34  C   UNL     1       2.377   1.411  -0.013  0.00  0.00    +0.004 A 
ATOM     35  C   UNL     1       2.396   0.029  -0.020  0.00  0.00    -0.045 A 
ATOM     36  C   UNL     1       1.208  -0.679  -0.012  0.00  0.00    +0.004 A 
ATOM     37  C   UNL     1       0.002  -0.004   0.002  0.00  0.00    +0.000 A 
ENDBRANCH  31  35
ENDBRANCH   1  31
TORSDOF 6
