REMARK  Name = ZINC12657188
REMARK  9 active torsions:
REMARK  status: ('A' for Active; 'I' for Inactive)
REMARK    1  A    between atoms: C_1  and  O_2
REMARK    2  A    between atoms: O_2  and  C_3
REMARK    3  A    between atoms: C_3  and  C_4
REMARK    4  A    between atoms: C_4  and  N_5
REMARK    5  A    between atoms: N_7  and  N_18
REMARK    6  A    between atoms: C_8  and  C_11
REMARK    7  A    between atoms: C_19  and  C_20
REMARK    8  A    between atoms: C_23  and  O_27
REMARK    9  A    between atoms: C_25  and  O_26
REMARK                            x       y       z     vdW  Elec       q    Type
REMARK                         _______ _______ _______ _____ _____    ______ ____
ROOT
ATOM      1  N   UNL     1       7.242   4.486   1.236  0.00  0.00    -0.257 NA
ATOM      2  C   UNL     1       7.622   4.546  -0.015  0.00  0.00    +0.190 A 
ATOM      3  N   UNL     1       6.886   4.327  -1.162  0.00  0.00    -0.208 N 
ATOM      4  C   UNL     1       7.511   4.457  -2.374  0.00  0.00    +0.082 A 
ATOM      5  C   UNL     1       8.818   4.786  -2.419  0.00  0.00    +0.077 A 
ATOM      6  S   UNL     1       9.231   4.931  -0.689  0.00  0.00    -0.056 S 
ENDROOT
BRANCH   4   7
ATOM      7  C   UNL     1       6.756   4.237  -3.627  0.00  0.00    +0.001 A 
ATOM      8  C   UNL     1       5.730   3.292  -3.670  0.00  0.00    +0.011 A 
ATOM      9  C   UNL     1       5.026   3.095  -4.840  0.00  0.00    +0.016 A 
ATOM     10  C   UNL     1       5.343   3.825  -5.972  0.00  0.00    +0.018 A 
ATOM     11  C   UNL     1       6.363   4.760  -5.938  0.00  0.00    +0.016 A 
ATOM     12  C   UNL     1       7.071   4.970  -4.772  0.00  0.00    +0.011 A 
ATOM     13 BR   UNL     1       4.378   3.544  -7.574  0.00  0.00    -0.050 Br
ENDBRANCH   4   7
BRANCH   3  14
ATOM     14  N   UNL     1       5.530   3.986  -1.089  0.00  0.00    -0.172 NA
ATOM     15  C   UNL     1       5.061   3.412  -0.022  0.00  0.00    +0.145 C 
BRANCH  15  16
ATOM     16  C   UNL     1       3.615   3.165   0.107  0.00  0.00    +0.036 A 
ATOM     17  C   UNL     1       3.118   2.472   1.214  0.00  0.00    +0.016 A 
ATOM     18  C   UNL     1       1.764   2.248   1.334  0.00  0.00    +0.046 A 
ATOM     19  C   UNL     1       0.890   2.699   0.351  0.00  0.00    +0.120 A 
ATOM     20  C   UNL     1       1.374   3.388  -0.752  0.00  0.00    +0.091 A 
ATOM     21  C   UNL     1       2.732   3.624  -0.880  0.00  0.00    +0.129 A 
BRANCH  21  22
ATOM     22  O   UNL     1       3.207   4.298  -1.959  0.00  0.00    -0.506 OA
ATOM     23  H   UNL     1       3.179   5.260  -1.866  0.00  0.00    +0.292 HD
ENDBRANCH  21  22
BRANCH  19  24
ATOM     24  O   UNL     1      -0.443   2.469   0.474  0.00  0.00    -0.507 OA
ATOM     25  H   UNL     1      -0.738   1.640   0.073  0.00  0.00    +0.292 HD
ENDBRANCH  19  24
ENDBRANCH  15  16
ENDBRANCH   3  14
BRANCH   1  26
ATOM     26  C   UNL     1       8.203   4.760   2.308  0.00  0.00    +0.172 C 
BRANCH  26  27
ATOM     27  C   UNL     1       7.715   5.949   3.138  0.00  0.00    +0.182 C 
BRANCH  27  29
ATOM     28  C   UNL     1       5.956   6.648   4.607  0.00  0.00    +0.194 C 
ATOM     29  O   UNL     1       6.498   5.601   3.801  0.00  0.00    -0.381 OA
ENDBRANCH  27  29
ENDBRANCH  26  27
ENDBRANCH   1  26
TORSDOF 8
