REMARK  Name = ZINC10383802
REMARK  11 active torsions:
REMARK  status: ('A' for Active; 'I' for Inactive)
REMARK    1  A    between atoms: C_1  and  C_2
REMARK    2  A    between atoms: C_2  and  C_26
REMARK    3  A    between atoms: C_6  and  C_24
REMARK    4  A    between atoms: C_6  and  C_25
REMARK    5  A    between atoms: C_7  and  C_8
REMARK    6  A    between atoms: C_7  and  N_67
REMARK    7  A    between atoms: C_8  and  C_10
REMARK    8  A    between atoms: C_8  and  O_23
REMARK    9  A    between atoms: C_10  and  O_11
REMARK   10  A    between atoms: O_11  and  C_12
REMARK   11  A    between atoms: C_12  and  C_13
REMARK                            x       y       z     vdW  Elec       q    Type
REMARK                         _______ _______ _______ _____ _____    ______ ____
ROOT
ATOM      1  C   UNL     1      -1.712  -5.391  -1.189  0.00  0.00    +0.124 C 
ENDROOT
BRANCH   1   2
ATOM      2  O   UNL     1      -1.263  -6.619  -1.767  0.00  0.00    -0.391 OA
ATOM      3  H   UNL     1      -1.785  -6.910  -2.527  0.00  0.00    +0.210 HD
ENDBRANCH   1   2
BRANCH   1   4
ATOM      4  C   UNL     1      -3.170  -5.537  -0.749  0.00  0.00    -0.043 C 
BRANCH   4  14
ATOM      5  C   UNL     1      -5.709  -6.676  -0.202  0.00  0.00    -0.010 C 
ATOM      6  C   UNL     1      -4.420  -7.497  -0.074  0.00  0.00    -0.070 C 
ATOM      7  C   UNL     1      -4.616  -8.595   0.969  0.00  0.00    -0.013 C 
ATOM      8  C   UNL     1      -4.575  -8.004   2.378  0.00  0.00    -0.003 C 
ATOM      9  C   UNL     1      -3.215  -7.340   2.588  0.00  0.00    -0.013 C 
ATOM     10  C   UNL     1      -3.005  -6.226   1.566  0.00  0.00    -0.070 C 
ATOM     11  C   UNL     1      -1.523  -5.796   1.644  0.00  0.00    -0.010 C 
ATOM     12  C   UNL     1      -3.851  -5.008   1.954  0.00  0.00    -0.010 C 
ATOM     13  C   UNL     1      -4.180  -8.186  -1.435  0.00  0.00    -0.010 C 
ATOM     14  N   UNL     1      -3.187  -6.689   0.151  0.00  0.00    +0.388 N 
ATOM     15  H   UNL     1      -2.386  -7.287  -0.081  0.00  0.00    -0.080 HD
ENDBRANCH   4  14
ENDBRANCH   1   4
BRANCH   1  16
ATOM     16  C   UNL     1      -1.601  -4.270  -2.224  0.00  0.00    +0.189 C 
BRANCH  16  17
ATOM     17  O   UNL     1      -0.226  -4.055  -2.549  0.00  0.00    -0.377 OA
BRANCH  17  18
ATOM     18  C   UNL     1      -0.011  -3.022  -3.512  0.00  0.00    +0.166 C 
BRANCH  18  19
ATOM     19  C   UNL     1       1.489  -2.881  -3.782  0.00  0.00    -0.005 C 
ATOM     20  C   UNL     1       1.719  -1.775  -4.814  0.00  0.00    +0.012 C 
ATOM     21  C   UNL     1       3.219  -1.633  -5.083  0.00  0.00    -0.010 C 
ATOM     22  C   UNL     1       3.768  -2.956  -5.622  0.00  0.00    +0.007 C 
ATOM     23  C   UNL     1       3.537  -4.062  -4.590  0.00  0.00    -0.010 C 
ATOM     24  C   UNL     1       2.038  -4.203  -4.320  0.00  0.00    +0.012 C 
ATOM     25  C   UNL     1       4.257  -3.703  -3.288  0.00  0.00    +0.007 C 
ATOM     26  C   UNL     1       3.708  -2.380  -2.749  0.00  0.00    -0.010 C 
ATOM     27  C   UNL     1       3.939  -1.274  -3.782  0.00  0.00    +0.007 C 
ATOM     28  C   UNL     1       2.209  -2.522  -2.480  0.00  0.00    +0.012 C 
ENDBRANCH  18  19
ENDBRANCH  17  18
ENDBRANCH  16  17
ENDBRANCH   1  16
TORSDOF 7
