REMARK  Name = ZINC20995939
REMARK  5 active torsions:
REMARK  status: ('A' for Active; 'I' for Inactive)
REMARK    1  A    between atoms: C_1  and  C_2
REMARK    2  A    between atoms: C_3  and  C_12
REMARK    3  A    between atoms: C_14  and  C_17
REMARK    4  A    between atoms: C_22  and  S_23
REMARK    5  A    between atoms: S_23  and  C_24
REMARK                            x       y       z     vdW  Elec       q    Type
REMARK                         _______ _______ _______ _____ _____    ______ ____
ROOT
ATOM      1  C   UNL     1       5.845   1.935  -0.026  0.00  0.00    +0.066 C 
ATOM      2  C   UNL     1       6.630   3.222  -0.035  0.00  0.00    +0.049 A 
ATOM      3  C   UNL     1       5.959   4.442  -0.029  0.00  0.00    +0.047 A 
ATOM      4  C   UNL     1       6.706   5.624  -0.029  0.00  0.00    -0.034 A 
ATOM      5  C   UNL     1       8.081   5.536  -0.041  0.00  0.00    -0.043 A 
ATOM      6  C   UNL     1       8.675   4.283  -0.053  0.00  0.00    +0.113 A 
ATOM      7  N   UNL     1       7.947   3.184  -0.052  0.00  0.00    -0.259 NA
ATOM      8  C   UNL     1       8.955   6.761  -0.037  0.00  0.00    -0.045 C 
ATOM      9  N   UNL     1       8.181   7.941  -0.435  0.00  0.00    +0.382 N 
ATOM     10  C   UNL     1       6.965   8.059   0.386  0.00  0.00    -0.077 C 
ATOM     11  C   UNL     1       5.993   6.949  -0.021  0.00  0.00    +0.017 C 
ATOM     12  H   UNL     1       8.793   8.845  -0.299  0.00  0.00    -0.085 HD
ATOM     13  H   UNL     1       7.891   7.851  -1.493  0.00  0.00    -0.085 HD
ENDROOT
BRANCH   3  14
ATOM     14  C   UNL     1       4.475   4.487  -0.015  0.00  0.00    +0.204 A 
ATOM     15  N   UNL     1       3.644   3.424  -0.013  0.00  0.00    -0.187 NA
ATOM     16  C   UNL     1       2.423   3.931   0.000  0.00  0.00    +0.260 A 
ATOM     17  O   UNL     1       2.557   5.267  -0.000  0.00  0.00    -0.332 OA
ATOM     18  N   UNL     1       3.732   5.564  -0.003  0.00  0.00    -0.056 NA
BRANCH  16  19
ATOM     19  C   UNL     1       1.157   3.174   0.008  0.00  0.00    +0.053 A 
ATOM     20  C   UNL     1       1.174   1.778   0.000  0.00  0.00    +0.014 A 
ATOM     21  C   UNL     1      -0.013   1.076   0.008  0.00  0.00    +0.001 A 
ATOM     22  C   UNL     1      -1.224   1.749   0.017  0.00  0.00    +0.001 A 
ATOM     23  C   UNL     1      -1.257   3.128   0.030  0.00  0.00    +0.015 A 
ATOM     24  C   UNL     1      -0.071   3.853   0.022  0.00  0.00    +0.020 A 
BRANCH  24  25
ATOM     25  S   UNL     1      -0.110   5.614   0.032  0.00  0.00    -0.128 S 
ATOM     26  C   UNL     1      -1.879   6.014   0.051  0.00  0.00    +0.090 C 
ENDBRANCH  24  25
ENDBRANCH  16  19
ENDBRANCH   3  14
TORSDOF 3
