REMARK  Name = ZINC10246869
REMARK  7 active torsions:
REMARK  status: ('A' for Active; 'I' for Inactive)
REMARK    1  A    between atoms: C_1  and  O_2
REMARK    2  A    between atoms: O_2  and  C_3
REMARK    3  A    between atoms: C_8  and  N_9
REMARK    4  A    between atoms: C_11  and  C_16
REMARK    5  A    between atoms: N_18  and  C_19
REMARK    6  A    between atoms: C_27  and  C_28
REMARK    7  A    between atoms: N_30  and  C_31
REMARK                            x       y       z     vdW  Elec       q    Type
REMARK                         _______ _______ _______ _____ _____    ______ ____
ROOT
ATOM      1  C   UNL     1      -2.174   4.260   0.196  0.00  0.00    +0.092 A 
ATOM      2  C   UNL     1      -1.117   3.288   0.501  0.00  0.00    +0.042 A 
ATOM      3  C   UNL     1      -1.114   1.959   0.926  0.00  0.00    +0.013 A 
ATOM      4  C   UNL     1       0.074   1.315   1.130  0.00  0.00    +0.001 A 
ATOM      5  C   UNL     1       1.276   1.972   0.907  0.00  0.00    +0.004 A 
ATOM      6  C   UNL     1       1.294   3.283   0.483  0.00  0.00    +0.047 A 
ATOM      7  C   UNL     1       0.097   3.959   0.274  0.00  0.00    +0.138 A 
ATOM      8  O   UNL     1      -0.193   5.212  -0.129  0.00  0.00    -0.448 OA
ATOM      9  C   UNL     1      -1.530   5.407  -0.181  0.00  0.00    +0.212 A 
ENDROOT
BRANCH   1  12
ATOM     10  C   UNL     1      -4.070   2.857  -0.048  0.00  0.00    +0.222 C 
ATOM     11  O   UNL     1      -3.337   1.926  -0.308  0.00  0.00    -0.275 OA
ATOM     12  N   UNL     1      -3.547   4.057   0.273  0.00  0.00    -0.282 N 
ATOM     13  H   UNL     1      -4.128   4.779   0.559  0.00  0.00    +0.155 HD
BRANCH  10  16
ATOM     14  N   UNL     1      -6.104   1.242  -1.932  0.00  0.00    -0.267 N 
ATOM     15  C   UNL     1      -5.933   1.224  -0.475  0.00  0.00    +0.127 C 
ATOM     16  C   UNL     1      -5.565   2.672  -0.085  0.00  0.00    +0.102 C 
ATOM     17  C   UNL     1      -6.194   3.481  -1.243  0.00  0.00    +0.110 C 
ATOM     18  C   UNL     1      -6.258   2.497  -2.390  0.00  0.00    +0.221 C 
ATOM     19  O   UNL     1      -6.424   2.796  -3.554  0.00  0.00    -0.275 OA
BRANCH  14  25
ATOM     20  C   UNL     1      -4.913  -0.374  -3.285  0.00  0.00    +0.141 A 
ATOM     21  C   UNL     1      -4.920  -1.505  -4.086  0.00  0.00    +0.047 A 
ATOM     22  C   UNL     1      -6.109  -2.160  -4.345  0.00  0.00    +0.004 A 
ATOM     23  C   UNL     1      -7.294  -1.691  -3.807  0.00  0.00    +0.002 A 
ATOM     24  C   UNL     1      -7.294  -0.568  -3.002  0.00  0.00    +0.027 A 
ATOM     25  C   UNL     1      -6.105   0.099  -2.743  0.00  0.00    +0.078 A 
BRANCH  20  27
ATOM     26  C   UNL     1      -2.561  -0.270  -3.619  0.00  0.00    +0.277 C 
ATOM     27  O   UNL     1      -3.744   0.272  -3.029  0.00  0.00    -0.493 OA
ENDBRANCH  20  27
ENDBRANCH  14  25
ENDBRANCH  10  16
ENDBRANCH   1  12
BRANCH   9  28
ATOM     28  C   UNL     1      -2.186   6.651  -0.578  0.00  0.00    +0.285 C 
ATOM     29  O   UNL     1      -3.397   6.751  -0.504  0.00  0.00    -0.266 OA
ATOM     30  N   UNL     1      -1.451   7.687  -1.027  0.00  0.00    -0.279 N 
ATOM     31  H   UNL     1      -0.482   7.632  -1.024  0.00  0.00    +0.155 HD
BRANCH  30  32
ATOM     32  C   UNL     1      -2.084   8.843  -1.499  0.00  0.00    +0.037 A 
ATOM     33  C   UNL     1      -1.449  10.073  -1.399  0.00  0.00    +0.027 A 
ATOM     34  C   UNL     1      -2.070  11.214  -1.869  0.00  0.00    +0.051 A 
ATOM     35  C   UNL     1      -3.334  11.136  -2.431  0.00  0.00    +0.166 A 
ATOM     36  C   UNL     1      -3.977   9.904  -2.527  0.00  0.00    +0.168 A 
ATOM     37  C   UNL     1      -3.351   8.760  -2.061  0.00  0.00    +0.072 A 
ATOM     38  O   UNL     1      -5.197  10.092  -3.111  0.00  0.00    -0.453 OA
ATOM     39  C   UNL     1      -5.126  11.385  -3.741  0.00  0.00    +0.466 C 
ATOM     40  O   UNL     1      -4.152  12.097  -2.954  0.00  0.00    -0.453 OA
ENDBRANCH  30  32
ENDBRANCH   9  28
TORSDOF 6
