REMARK  Name = ZINC01917159
REMARK  14 active torsions:
REMARK  status: ('A' for Active; 'I' for Inactive)
REMARK    1  A    between atoms: C_1  and  C_2
REMARK    2  A    between atoms: C_9  and  N_15
REMARK    3  A    between atoms: C_10  and  C_11
REMARK    4  A    between atoms: C_11  and  O_13
REMARK    5  A    between atoms: O_13  and  C_14
REMARK    6  A    between atoms: C_16  and  C_18
REMARK    7  A    between atoms: C_18  and  O_19
REMARK    8  A    between atoms: O_19  and  C_20
REMARK    9  A    between atoms: C_20  and  C_22
REMARK   10  A    between atoms: C_22  and  C_24
REMARK   11  A    between atoms: C_22  and  N_28
REMARK   12  A    between atoms: C_24  and  C_25
REMARK   13  A    between atoms: C_25  and  C_26
REMARK   14  A    between atoms: C_25  and  C_27
REMARK                            x       y       z     vdW  Elec       q    Type
REMARK                         _______ _______ _______ _____ _____    ______ ____
ROOT
ATOM      1  C   UNL     1      -1.330   1.944   0.019  0.00  0.00    +0.328 C 
ENDROOT
BRANCH   1   3
ATOM      2  N   UNL     1       1.143   1.898   0.001  0.00  0.00    -0.277 N 
ATOM      3  C   UNL     1      -0.014   1.209   0.009  0.00  0.00    +0.255 C 
ATOM      4  O   UNL     1       0.002  -0.004   0.002  0.00  0.00    -0.272 OA
ATOM      5  H   UNL     1       1.130   2.868   0.007  0.00  0.00    +0.155 HD
BRANCH   2  13
ATOM      6  C   UNL     1       7.747  -2.294   0.008  0.00  0.00    +0.008 C 
ATOM      7  C   UNL     1       6.732  -1.190   0.310  0.00  0.00    -0.009 C 
ATOM      8  C   UNL     1       7.061   0.052  -0.523  0.00  0.00    +0.008 C 
ATOM      9  C   UNL     1       6.213   1.235  -0.053  0.00  0.00    +0.037 C 
ATOM     10  C   UNL     1       4.748   0.813  -0.040  0.00  0.00    -0.021 A 
ATOM     11  C   UNL     1       4.400  -0.492  -0.043  0.00  0.00    -0.004 A 
ATOM     12  S   UNL     1       2.630  -0.489  -0.026  0.00  0.00    -0.077 S 
ATOM     13  C   UNL     1       2.353   1.222  -0.014  0.00  0.00    +0.086 A 
ATOM     14  C   UNL     1       3.637   1.750  -0.029  0.00  0.00    +0.091 A 
ATOM     15  C   UNL     1       5.322  -1.672  -0.058  0.00  0.00    +0.046 C 
BRANCH  14  16
ATOM     16  C   UNL     1       3.864   3.197  -0.030  0.00  0.00    +0.342 C 
ATOM     17  O   UNL     1       3.971   3.796   1.022  0.00  0.00    -0.245 OA
BRANCH  16  18
ATOM     18  O   UNL     1       3.953   3.864  -1.199  0.00  0.00    -0.464 OA
ATOM     19  C   UNL     1       4.178   5.297  -1.124  0.00  0.00    +0.280 C 
ENDBRANCH  16  18
ENDBRANCH  14  16
ENDBRANCH   2  13
ENDBRANCH   1   3
BRANCH   1  20
ATOM     20  O   UNL     1      -2.420   0.986   0.019  0.00  0.00    -0.454 OA
BRANCH  20  21
ATOM     21  C   UNL     1      -3.667   1.482   0.028  0.00  0.00    +0.329 C 
ATOM     22  O   UNL     1      -3.842   2.678   0.035  0.00  0.00    -0.249 OA
BRANCH  21  23
ATOM     23  C   UNL     1      -4.850   0.548   0.028  0.00  0.00    +0.193 C 
BRANCH  23  24
ATOM     24  N   UNL     1      -6.089   1.329   0.038  0.00  0.00    -0.220 N 
ATOM     25  C   UNL     1      -6.436   2.194   1.008  0.00  0.00    +0.255 C 
ATOM     26  O   UNL     1      -5.780   2.449   1.998  0.00  0.00    -0.270 OA
ATOM     27  C   UNL     1      -7.746   2.787   0.665  0.00  0.00    +0.049 A 
ATOM     28  C   UNL     1      -8.577   3.715   1.271  0.00  0.00    +0.014 A 
ATOM     29  C   UNL     1      -9.778   4.058   0.670  0.00  0.00    +0.001 A 
ATOM     30  C   UNL     1     -10.152   3.480  -0.528  0.00  0.00    +0.001 A 
ATOM     31  C   UNL     1      -9.331   2.550  -1.146  0.00  0.00    +0.014 A 
ATOM     32  C   UNL     1      -8.127   2.197  -0.557  0.00  0.00    +0.049 A 
ATOM     33  C   UNL     1      -7.034   1.271  -0.918  0.00  0.00    +0.255 C 
ATOM     34  O   UNL     1      -6.994   0.574  -1.912  0.00  0.00    -0.270 OA
ENDBRANCH  23  24
BRANCH  23  35
ATOM     35  C   UNL     1      -4.797  -0.341   1.272  0.00  0.00    +0.037 C 
BRANCH  35  36
ATOM     36  C   UNL     1      -5.926  -1.372   1.211  0.00  0.00    -0.015 C 
ATOM     37  C   UNL     1      -5.691  -2.315   0.029  0.00  0.00    +0.007 C 
ATOM     38  C   UNL     1      -5.951  -2.179   2.510  0.00  0.00    +0.007 C 
ENDBRANCH  35  36
ENDBRANCH  23  35
ENDBRANCH  21  23
ENDBRANCH  20  21
ENDBRANCH   1  20
TORSDOF 10
