REMARK  Name = ZINC20275279
REMARK  9 active torsions:
REMARK  status: ('A' for Active; 'I' for Inactive)
REMARK    1  A    between atoms: C_1  and  S_2
REMARK    2  A    between atoms: S_2  and  C_3
REMARK    3  A    between atoms: C_6  and  C_9
REMARK    4  A    between atoms: C_15  and  C_31
REMARK    5  A    between atoms: C_16  and  C_23
REMARK    6  A    between atoms: C_18  and  C_21
REMARK    7  A    between atoms: C_19  and  N_20
REMARK    8  A    between atoms: C_26  and  S_29
REMARK    9  A    between atoms: S_29  and  C_30
REMARK                            x       y       z     vdW  Elec       q    Type
REMARK                         _______ _______ _______ _____ _____    ______ ____
ROOT
ATOM      1  C   UNL     1       3.304   1.477  -0.619  0.00  0.00    +0.028 C 
ATOM      2  C   UNL     1       2.060   1.121  -0.203  0.00  0.00    +0.080 A 
ATOM      3  C   UNL     1       0.982   1.959   0.330  0.00  0.00    +0.271 A 
ATOM      4  O   UNL     1       1.130   3.161   0.453  0.00  0.00    -0.266 OA
ATOM      5  N   UNL     1      -0.178   1.369   0.680  0.00  0.00    -0.256 N 
ATOM      6  C   UNL     1      -0.277   0.001   0.513  0.00  0.00    +0.104 A 
ATOM      7  C   UNL     1      -1.378  -0.731   0.819  0.00  0.00    +0.072 C 
ATOM      8  C   UNL     1      -2.586  -0.010   1.383  0.00  0.00    +0.106 C 
ATOM      9  C   UNL     1      -2.439   1.489   1.551  0.00  0.00    +0.080 C 
ATOM     10  C   UNL     1      -1.270   2.071   1.203  0.00  0.00    +0.119 C 
ATOM     11  S   UNL     1       1.299  -0.493  -0.156  0.00  0.00    -0.065 S 
ENDROOT
BRANCH   1  15
ATOM     12  C   UNL     1       4.329   5.567  -0.962  0.00  0.00    +0.008 A 
ATOM     13  C   UNL     1       5.274   4.649  -0.507  0.00  0.00    +0.015 A 
ATOM     14  C   UNL     1       4.947   3.328  -0.395  0.00  0.00    +0.009 A 
ATOM     15  C   UNL     1       3.659   2.895  -0.738  0.00  0.00    -0.024 A 
ATOM     16  C   UNL     1       2.714   3.821  -1.201  0.00  0.00    +0.009 A 
ATOM     17  C   UNL     1       3.048   5.141  -1.305  0.00  0.00    +0.015 A 
BRANCH  12  19
ATOM     18  C   UNL     1       3.241   8.053  -1.721  0.00  0.00    +0.090 C 
ATOM     19  S   UNL     1       4.757   7.270  -1.104  0.00  0.00    -0.129 S 
ENDBRANCH  12  19
ENDBRANCH   1  15
BRANCH   8  20
ATOM     20  C   UNL     1      -3.758  -0.269   0.471  0.00  0.00    -0.034 A 
ATOM     21  C   UNL     1      -3.702   0.127  -0.853  0.00  0.00    +0.005 A 
ATOM     22  C   UNL     1      -4.772  -0.114  -1.692  0.00  0.00    +0.015 A 
ATOM     23  C   UNL     1      -5.909  -0.744  -1.203  0.00  0.00    +0.008 A 
ATOM     24  C   UNL     1      -5.964  -1.135   0.130  0.00  0.00    +0.015 A 
ATOM     25  C   UNL     1      -4.888  -0.896   0.962  0.00  0.00    +0.005 A 
BRANCH  23  26
ATOM     26  S   UNL     1      -7.279  -1.048  -2.269  0.00  0.00    -0.129 S 
ATOM     27  C   UNL     1      -6.748  -0.376  -3.868  0.00  0.00    +0.090 C 
ENDBRANCH  23  26
ENDBRANCH   8  20
BRANCH  10  28
ATOM     28  N   UNL     1      -1.150   3.430   1.361  0.00  0.00    -0.343 N 
ATOM     29  H   UNL     1      -1.990   4.013   1.770  0.00  0.00    +0.144 HD
ATOM     30  H   UNL     1      -0.215   3.937   1.079  0.00  0.00    +0.144 HD
ENDBRANCH  10  28
BRANCH   9  31
ATOM     31  C   UNL     1      -3.516   2.273   2.076  0.00  0.00    +0.099 C 
ATOM     32  N   UNL     1      -4.370   2.896   2.492  0.00  0.00    -0.191 NA
ENDBRANCH   9  31
BRANCH   7  33
ATOM     33  C   UNL     1      -1.398  -2.148   0.615  0.00  0.00    +0.098 C 
ATOM     34  N   UNL     1      -1.414  -3.272   0.453  0.00  0.00    -0.191 NA
ENDBRANCH   7  33
TORSDOF 7
