REMARK  Name = ZINC38670663
REMARK  8 active torsions:
REMARK  status: ('A' for Active; 'I' for Inactive)
REMARK    1  A    between atoms: C_1  and  C_2
REMARK    2  A    between atoms: C_4  and  S_10
REMARK    3  A    between atoms: S_10  and  N_13
REMARK    4  A    between atoms: N_13  and  C_14
REMARK    5  A    between atoms: C_14  and  C_15
REMARK    6  A    between atoms: C_15  and  C_17
REMARK    7  A    between atoms: C_15  and  N_28
REMARK    8  A    between atoms: N_26  and  C_27
REMARK                            x       y       z     vdW  Elec       q    Type
REMARK                         _______ _______ _______ _____ _____    ______ ____
ROOT
ATOM      1  C   UNL     1       2.992  -5.624  -2.483  0.00  0.00    -0.022 C 
ENDROOT
BRANCH   1   2
ATOM      2  C   UNL     1       3.326  -6.694  -1.477  0.00  0.00    -0.059 A 
ATOM      3  C   UNL     1       4.080  -6.380  -0.361  0.00  0.00    +0.004 A 
ATOM      4  C   UNL     1       4.387  -7.362   0.560  0.00  0.00    +0.023 A 
ATOM      5  C   UNL     1       3.939  -8.664   0.366  0.00  0.00    +0.033 A 
ATOM      6  C   UNL     1       3.181  -8.977  -0.752  0.00  0.00    -0.026 A 
ATOM      7  C   UNL     1       2.875  -7.986  -1.669  0.00  0.00    +0.007 A 
ATOM      8  C   UNL     1       2.670 -10.373  -0.990  0.00  0.00    +0.038 C 
ATOM      9  C   UNL     1       3.491 -11.387  -0.192  0.00  0.00    +0.024 C 
ATOM     10  C   UNL     1       3.557 -10.931   1.271  0.00  0.00    +0.105 C 
ATOM     11  N   UNL     1       4.266  -9.645   1.309  0.00  0.00    -0.333 N 
ATOM     12  C   UNL     1       5.299  -9.393   2.317  0.00  0.00    +0.129 C 
ENDBRANCH   1   2
BRANCH   1  13
ATOM     13  N   UNL     1       4.162  -4.758  -2.684  0.00  0.00    +0.385 N 
ATOM     14  C   UNL     1       5.280  -5.537  -3.274  0.00  0.00    -0.078 C 
ATOM     15  C   UNL     1       6.167  -4.446  -3.927  0.00  0.00    -0.020 C 
ATOM     16  C   UNL     1       5.128  -3.445  -4.484  0.00  0.00    -0.020 C 
ATOM     17  C   UNL     1       3.848  -3.697  -3.666  0.00  0.00    -0.078 C 
ATOM     18  H   UNL     1       4.446  -4.348  -1.807  0.00  0.00    -0.081 HD
ENDBRANCH   1  13
BRANCH   1  19
ATOM     19  C   UNL     1       1.820  -4.787  -1.967  0.00  0.00    +0.095 C 
BRANCH  19  20
ATOM     20  N   UNL     1       0.616  -5.619  -1.903  0.00  0.00    -0.191 NA
ATOM     21  H   UNL     1       0.587  -6.466  -2.374  0.00  0.00    +0.148 HD
BRANCH  20  22
ATOM     22  S   UNL     1      -0.694  -5.113  -1.024  0.00  0.00    +0.060 S 
ATOM     23  O   UNL     1      -0.201  -4.718   0.249  0.00  0.00    -0.153 OA
ATOM     24  O   UNL     1      -1.695  -6.110  -1.179  0.00  0.00    -0.153 OA
BRANCH  22  28
ATOM     25  C   UNL     1      -4.420  -2.519  -3.612  0.00  0.00    +0.045 C 
ATOM     26  C   UNL     1      -3.051  -2.515  -2.984  0.00  0.00    -0.030 A 
ATOM     27  C   UNL     1      -2.566  -3.659  -2.376  0.00  0.00    +0.034 A 
ATOM     28  C   UNL     1      -1.310  -3.656  -1.800  0.00  0.00    +0.124 A 
ATOM     29  C   UNL     1      -0.536  -2.509  -1.832  0.00  0.00    +0.069 A 
ATOM     30  C   UNL     1      -1.020  -1.365  -2.440  0.00  0.00    +0.042 A 
ATOM     31  C   UNL     1      -2.276  -1.370  -3.021  0.00  0.00    +0.045 A 
ATOM     32 CL   UNL     1      -2.882   0.063  -3.791  0.00  0.00    -0.083 Cl
ATOM     33 CL   UNL     1       1.042  -2.506  -1.108  0.00  0.00    -0.081 Cl
ENDBRANCH  22  28
ENDBRANCH  20  22
ENDBRANCH  19  20
ENDBRANCH   1  19
TORSDOF 6
