REMARK  Name = ZINC39635901
REMARK  7 active torsions:
REMARK  status: ('A' for Active; 'I' for Inactive)
REMARK    1  A    between atoms: C_1  and  C_2
REMARK    2  A    between atoms: C_2  and  O_3
REMARK    3  A    between atoms: O_3  and  C_4
REMARK    4  A    between atoms: C_9  and  C_10
REMARK    5  A    between atoms: C_14  and  C_23
REMARK    6  A    between atoms: N_25  and  C_26
REMARK    7  A    between atoms: C_32  and  C_34
REMARK                            x       y       z     vdW  Elec       q    Type
REMARK                         _______ _______ _______ _____ _____    ______ ____
ROOT
ATOM      1  C   UNL     1       2.059  -1.643   3.273  0.00  0.00    +0.250 C 
ATOM      2  O   UNL     1       1.957  -0.444   3.100  0.00  0.00    -0.270 OA
ATOM      3  N   UNL     1       2.565  -2.116   4.429  0.00  0.00    -0.296 N 
ATOM      4  C   UNL     1       2.865  -3.524   4.781  0.00  0.00    +0.121 C 
ATOM      5  C   UNL     1       4.189  -3.455   5.574  0.00  0.00    +0.100 C 
ATOM      6  C   UNL     1       4.236  -2.024   6.135  0.00  0.00    -0.004 C 
ATOM      7  C   UNL     1       2.953  -1.345   5.634  0.00  0.00    +0.115 C 
ATOM      8  C   UNL     1       5.460  -1.287   5.598  0.00  0.00    -0.010 C 
ATOM      9  C   UNL     1       5.516   0.114   6.214  0.00  0.00    -0.082 C 
ATOM     10  N   UNL     1       5.588   0.005   7.676  0.00  0.00    +0.379 N 
ATOM     11  C   UNL     1       4.365  -0.622   8.192  0.00  0.00    -0.082 C 
ATOM     12  C   UNL     1       4.259  -2.054   7.660  0.00  0.00    -0.010 C 
ATOM     13  H   UNL     1       6.386  -0.557   7.932  0.00  0.00    -0.086 HD
ATOM     14  H   UNL     1       5.686   0.926   8.076  0.00  0.00    -0.086 HD
ENDROOT
BRANCH   1  20
ATOM     15  C   UNL     1       1.778  -2.237   0.867  0.00  0.00    +0.133 A 
ATOM     16  C   UNL     1       1.376  -3.128  -0.117  0.00  0.00    +0.046 A 
ATOM     17  C   UNL     1       0.826  -4.345   0.235  0.00  0.00    +0.004 A 
ATOM     18  C   UNL     1       0.671  -4.685   1.569  0.00  0.00    +0.001 A 
ATOM     19  C   UNL     1       1.065  -3.812   2.559  0.00  0.00    +0.017 A 
ATOM     20  C   UNL     1       1.629  -2.580   2.218  0.00  0.00    +0.078 A 
BRANCH  15  21
ATOM     21  O   UNL     1       2.319  -1.041   0.524  0.00  0.00    -0.491 OA
BRANCH  21  23
ATOM     22  C   UNL     1       3.066   0.622  -1.063  0.00  0.00    +0.048 C 
ATOM     23  C   UNL     1       2.440  -0.761  -0.872  0.00  0.00    +0.226 C 
ENDBRANCH  21  23
ENDBRANCH  15  21
ENDBRANCH   1  20
BRANCH   5  24
ATOM     24  C   UNL     1       4.181  -4.461   6.697  0.00  0.00    +0.218 C 
ATOM     25  O   UNL     1       3.137  -4.756   7.239  0.00  0.00    -0.275 OA
ATOM     26  N   UNL     1       5.334  -5.032   7.098  0.00  0.00    -0.312 N 
ATOM     27  H   UNL     1       6.169  -4.796   6.664  0.00  0.00    +0.149 HD
BRANCH  26  28
ATOM     28  C   UNL     1       5.326  -6.010   8.189  0.00  0.00    +0.076 C 
ATOM     29  C   UNL     1       5.005  -7.397   7.629  0.00  0.00    +0.022 C 
ATOM     30  C   UNL     1       4.997  -8.418   8.768  0.00  0.00    +0.002 C 
ATOM     31  C   UNL     1       6.372  -8.444   9.438  0.00  0.00    +0.000 C 
ATOM     32  C   UNL     1       6.694  -7.057   9.998  0.00  0.00    +0.005 C 
ATOM     33  C   UNL     1       6.702  -6.037   8.859  0.00  0.00    +0.006 C 
ATOM     34  C   UNL     1       7.023  -4.649   9.419  0.00  0.00    +0.009 C 
ENDBRANCH  26  28
ENDBRANCH   5  24
TORSDOF 5
