REMARK  Name = ZINC48522903
REMARK  9 active torsions:
REMARK  status: ('A' for Active; 'I' for Inactive)
REMARK    1  A    between atoms: C_1  and  C_2
REMARK    2  A    between atoms: C_2  and  O_4
REMARK    3  A    between atoms: O_4  and  C_5
REMARK    4  A    between atoms: C_9  and  C_37
REMARK    5  A    between atoms: C_14  and  C_36
REMARK    6  A    between atoms: C_24  and  O_32
REMARK    7  A    between atoms: N_27  and  N_28
REMARK    8  A    between atoms: O_32  and  C_33
REMARK    9  A    between atoms: C_33  and  C_35
REMARK                            x       y       z     vdW  Elec       q    Type
REMARK                         _______ _______ _______ _____ _____    ______ ____
ROOT
ATOM      1  C   UNL     1      -1.525  -4.256  -2.169  0.00  0.00    +0.180 C 
ATOM      2  C   UNL     1      -2.997  -4.562  -2.438  0.00  0.00    +0.046 C 
ATOM      3  C   UNL     1      -3.924  -3.737  -1.552  0.00  0.00    +0.015 C 
ATOM      4  C   UNL     1      -3.541  -3.904  -0.074  0.00  0.00    -0.008 C 
ATOM      5  C   UNL     1      -4.757  -4.232   0.758  0.00  0.00    +0.003 C 
ATOM      6  C   UNL     1      -4.670  -3.851   2.225  0.00  0.00    +0.005 C 
ATOM      7  C   UNL     1      -6.028  -4.073   2.921  0.00  0.00    +0.013 C 
ATOM      8  C   UNL     1      -6.445  -5.512   2.790  0.00  0.00    +0.015 C 
ATOM      9  C   UNL     1      -6.390  -5.968   1.321  0.00  0.00    +0.008 C 
ATOM     10  C   UNL     1      -5.072  -5.745   0.648  0.00  0.00    +0.001 C 
ATOM     11  C   UNL     1      -3.905  -6.519   1.249  0.00  0.00    +0.031 C 
ATOM     12  C   UNL     1      -2.631  -6.123   0.547  0.00  0.00    -0.027 C 
ATOM     13  C   UNL     1      -2.478  -4.974  -0.026  0.00  0.00    -0.064 C 
ATOM     14  C   UNL     1      -1.169  -4.663  -0.732  0.00  0.00    +0.075 C 
ATOM     15  C   UNL     1      -6.951  -7.392   1.433  0.00  0.00    +0.055 C 
ATOM     16  C   UNL     1      -8.124  -7.186   2.438  0.00  0.00    +0.223 C 
ATOM     17  C   UNL     1      -7.905  -5.820   3.088  0.00  0.00    +0.083 C 
ATOM     18  N   UNL     1      -8.730  -5.098   3.727  0.00  0.00    -0.184 NA
ATOM     19  C   UNL     1      -5.641  -6.392   3.745  0.00  0.00    +0.018 C 
ATOM     20  C   UNL     1      -2.929  -2.582   0.390  0.00  0.00    +0.016 C 
ENDROOT
BRANCH  18  21
ATOM     21  N   UNL     1     -10.010  -5.586   4.017  0.00  0.00    -0.191 N 
ATOM     22  C   UNL     1     -10.877  -4.830   4.720  0.00  0.00    +0.317 C 
ATOM     23  O   UNL     1     -11.988  -5.254   4.972  0.00  0.00    -0.251 OA
ATOM     24  N   UNL     1     -10.511  -3.604   5.144  0.00  0.00    -0.312 N 
ATOM     25  H   UNL     1     -10.274  -6.468   3.712  0.00  0.00    +0.179 HD
ATOM     26  H   UNL     1      -9.624  -3.266   4.943  0.00  0.00    +0.147 HD
ATOM     27  H   UNL     1     -11.134  -3.060   5.650  0.00  0.00    +0.147 HD
ENDBRANCH  18  21
BRANCH   1  28
ATOM     28  O   UNL     1      -1.277  -2.862  -2.353  0.00  0.00    -0.461 OA
BRANCH  28  30
ATOM     29  C   UNL     1       0.285  -1.058  -2.987  0.00  0.00    +0.136 C 
ATOM     30  C   UNL     1      -0.051  -2.511  -2.771  0.00  0.00    +0.304 C 
ATOM     31  O   UNL     1       0.785  -3.361  -2.974  0.00  0.00    -0.251 OA
ENDBRANCH  28  30
ENDBRANCH   1  28
BRANCH  16  32
ATOM     32  O   UNL     1      -9.369  -7.199   1.738  0.00  0.00    -0.455 OA
BRANCH  32  33
ATOM     33  C   UNL     1      -9.922  -8.398   1.500  0.00  0.00    +0.305 C 
ATOM     34  O   UNL     1      -9.418  -9.397   1.955  0.00  0.00    -0.251 OA
ATOM     35  C   UNL     1     -11.172  -8.499   0.665  0.00  0.00    +0.136 C 
ENDBRANCH  32  33
ENDBRANCH  16  32
TORSDOF 5
