REMARK  Name = ZINC09223088
REMARK  11 active torsions:
REMARK  status: ('A' for Active; 'I' for Inactive)
REMARK    1  A    between atoms: C_1  and  C_2
REMARK    2  A    between atoms: C_2  and  N_3
REMARK    3  A    between atoms: N_3  and  C_4
REMARK    4  A    between atoms: N_3  and  S_6
REMARK    5  A    between atoms: C_4  and  C_5
REMARK    6  A    between atoms: S_6  and  C_9
REMARK    7  A    between atoms: C_12  and  N_15
REMARK    8  A    between atoms: C_17  and  C_22
REMARK    9  A    between atoms: N_24  and  C_25
REMARK   10  A    between atoms: C_30  and  C_31
REMARK   11  A    between atoms: N_33  and  C_34
REMARK                            x       y       z     vdW  Elec       q    Type
REMARK                         _______ _______ _______ _____ _____    ______ ____
ROOT
ATOM      1  N   UNL     1      -2.624   1.773  -0.021  0.00  0.00    -0.271 N 
ATOM      2  C   UNL     1      -2.446   1.330   1.367  0.00  0.00    +0.127 C 
ATOM      3  C   UNL     1      -0.916   1.192   1.564  0.00  0.00    +0.102 C 
ATOM      4  C   UNL     1      -0.438   0.939   0.115  0.00  0.00    +0.110 C 
ATOM      5  C   UNL     1      -1.514   1.560  -0.748  0.00  0.00    +0.221 C 
ATOM      6  O   UNL     1      -1.392   1.828  -1.925  0.00  0.00    -0.275 OA
ENDROOT
BRANCH   1  10
ATOM      7  C   UNL     1      -6.122   3.475  -1.513  0.00  0.00    +0.106 A 
ATOM      8  C   UNL     1      -6.080   3.014  -0.210  0.00  0.00    +0.030 A 
ATOM      9  C   UNL     1      -4.922   2.450   0.288  0.00  0.00    +0.025 A 
ATOM     10  C   UNL     1      -3.799   2.344  -0.522  0.00  0.00    +0.036 A 
ATOM     11  C   UNL     1      -3.842   2.812  -1.829  0.00  0.00    +0.025 A 
ATOM     12  C   UNL     1      -5.005   3.372  -2.322  0.00  0.00    +0.030 A 
BRANCH   7  13
ATOM     13  S   UNL     1      -7.600   4.196  -2.144  0.00  0.00    +0.061 S 
ATOM     14  O   UNL     1      -7.552   4.051  -3.557  0.00  0.00    -0.153 OA
ATOM     15  O   UNL     1      -8.669   3.680  -1.362  0.00  0.00    -0.153 OA
BRANCH  13  16
ATOM     16  N   UNL     1      -7.525   5.820  -1.832  0.00  0.00    -0.177 NA
BRANCH  16  18
ATOM     17  C   UNL     1      -8.020   7.320  -3.699  0.00  0.00    +0.022 C 
ATOM     18  C   UNL     1      -6.923   6.728  -2.811  0.00  0.00    +0.106 C 
ENDBRANCH  16  18
BRANCH  16  19
ATOM     19  C   UNL     1      -8.061   6.350  -0.575  0.00  0.00    +0.106 C 
ATOM     20  C   UNL     1      -6.932   6.471   0.450  0.00  0.00    +0.022 C 
ENDBRANCH  16  19
ENDBRANCH  13  16
ENDBRANCH   7  13
ENDBRANCH   1  10
BRANCH   3  21
ATOM     21  C   UNL     1      -0.325   2.465   2.112  0.00  0.00    +0.222 C 
ATOM     22  O   UNL     1      -1.051   3.377   2.445  0.00  0.00    -0.275 OA
ATOM     23  N   UNL     1       1.012   2.590   2.233  0.00  0.00    -0.285 N 
ATOM     24  H   UNL     1       1.597   1.894   1.895  0.00  0.00    +0.155 HD
BRANCH  23  25
ATOM     25  C   UNL     1       1.554   3.719   2.843  0.00  0.00    +0.046 A 
ATOM     26  C   UNL     1       1.040   4.978   2.561  0.00  0.00    +0.024 A 
ATOM     27  C   UNL     1       1.579   6.096   3.166  0.00  0.00    +0.002 A 
ATOM     28  C   UNL     1       2.632   5.972   4.058  0.00  0.00    +0.001 A 
ATOM     29  C   UNL     1       3.154   4.730   4.350  0.00  0.00    +0.015 A 
ATOM     30  C   UNL     1       2.616   3.590   3.749  0.00  0.00    +0.058 A 
BRANCH  30  31
ATOM     31  C   UNL     1       3.167   2.257   4.061  0.00  0.00    +0.246 C 
ATOM     32  O   UNL     1       2.654   1.261   3.589  0.00  0.00    -0.270 OA
ATOM     33  N   UNL     1       4.238   2.143   4.871  0.00  0.00    -0.308 N 
ATOM     34  H   UNL     1       4.647   2.938   5.248  0.00  0.00    +0.149 HD
BRANCH  33  35
ATOM     35  C   UNL     1       4.784   0.820   5.182  0.00  0.00    +0.073 C 
ATOM     36  C   UNL     1       5.168   0.537   6.636  0.00  0.00    +0.024 C 
ATOM     37  C   UNL     1       6.259   0.741   5.582  0.00  0.00    +0.024 C 
ENDBRANCH  33  35
ENDBRANCH  30  31
ENDBRANCH  23  25
ENDBRANCH   3  21
TORSDOF 9
