REMARK  Name = ZINC34974777
REMARK  16 active torsions:
REMARK  status: ('A' for Active; 'I' for Inactive)
REMARK    1  A    between atoms: C_1  and  C_2
REMARK    2  A    between atoms: C_9  and  C_11
REMARK    3  A    between atoms: C_11  and  C_12
REMARK    4  A    between atoms: C_12  and  C_14
REMARK    5  A    between atoms: C_12  and  C_15
REMARK    6  A    between atoms: C_15  and  C_16
REMARK    7  A    between atoms: C_16  and  C_17
REMARK    8  A    between atoms: C_16  and  C_18
REMARK    9  A    between atoms: C_16  and  C_19
REMARK   10  A    between atoms: C_20  and  C_22
REMARK   11  A    between atoms: C_22  and  C_24
REMARK   12  A    between atoms: C_22  and  N_27
REMARK   13  A    between atoms: C_24  and  C_25
REMARK   14  A    between atoms: C_24  and  C_26
REMARK   15  A    between atoms: N_27  and  S_28
REMARK   16  A    between atoms: S_28  and  C_31
REMARK                            x       y       z     vdW  Elec       q    Type
REMARK                         _______ _______ _______ _____ _____    ______ ____
ROOT
ATOM      1  C   UNL     1      -2.339   4.032  -1.149  0.00  0.00    +0.029 C 
ATOM      2  C   UNL     1      -1.467   2.829  -0.783  0.00  0.00    +0.090 C 
ATOM      3  C   UNL     1      -2.243   1.898   0.158  0.00  0.00    +0.130 C 
ATOM      4  N   UNL     1      -2.379   2.558   1.464  0.00  0.00    -0.297 N 
ATOM      5  C   UNL     1      -1.167   3.019   2.155  0.00  0.00    +0.127 C 
ATOM      6  C   UNL     1      -0.391   3.950   1.214  0.00  0.00    +0.127 C 
ATOM      7  N   UNL     1      -0.253   3.291  -0.095  0.00  0.00    -0.296 N 
ATOM      8  C   UNL     1       0.961   3.110  -0.652  0.00  0.00    +0.216 C 
ATOM      9  O   UNL     1       1.059   2.562  -1.730  0.00  0.00    -0.276 OA
ATOM     10  C   UNL     1      -3.595   2.737   2.018  0.00  0.00    +0.235 C 
ATOM     11  O   UNL     1      -4.593   2.427   1.403  0.00  0.00    -0.274 OA
ENDROOT
BRANCH   8  12
ATOM     12  C   UNL     1       2.198   3.588   0.064  0.00  0.00    +0.099 C 
BRANCH  12  13
ATOM     13  C   UNL     1       3.433   3.262  -0.777  0.00  0.00    -0.005 C 
ATOM     14  C   UNL     1       3.590   1.744  -0.885  0.00  0.00    +0.008 C 
BRANCH  13  15
ATOM     15  C   UNL     1       4.676   3.857  -0.111  0.00  0.00    +0.010 C 
BRANCH  15  16
ATOM     16  C   UNL     1       5.751   4.109  -1.170  0.00  0.00    -0.037 C 
ATOM     17  C   UNL     1       5.207   5.066  -2.232  0.00  0.00    +0.010 C 
ATOM     18  C   UNL     1       6.983   4.728  -0.508  0.00  0.00    +0.010 C 
ATOM     19  C   UNL     1       6.138   2.783  -1.829  0.00  0.00    +0.010 C 
ENDBRANCH  15  16
ENDBRANCH  13  15
ENDBRANCH  12  13
ENDBRANCH   8  12
BRANCH  10  20
ATOM     20  C   UNL     1      -3.713   3.322   3.401  0.00  0.00    +0.165 C 
BRANCH  20  21
ATOM     21  C   UNL     1      -3.991   4.824   3.298  0.00  0.00    +0.010 C 
ATOM     22  C   UNL     1      -2.802   5.517   2.628  0.00  0.00    +0.009 C 
ATOM     23  C   UNL     1      -5.252   5.053   2.463  0.00  0.00    +0.009 C 
ENDBRANCH  20  21
BRANCH  20  24
ATOM     24  N   UNL     1      -4.814   2.671   4.115  0.00  0.00    -0.178 NA
ATOM     25  H   UNL     1      -5.686   2.594   3.696  0.00  0.00    +0.149 HD
BRANCH  24  26
ATOM     26  S   UNL     1      -4.571   2.065   5.637  0.00  0.00    +0.059 S 
ATOM     27  O   UNL     1      -5.836   1.615   6.102  0.00  0.00    -0.153 OA
ATOM     28  O   UNL     1      -3.440   1.208   5.557  0.00  0.00    -0.153 OA
BRANCH  26  29
ATOM     29  C   UNL     1      -4.106   3.416   6.668  0.00  0.00    +0.105 A 
ATOM     30  C   UNL     1      -2.769   3.689   6.889  0.00  0.00    +0.030 A 
ATOM     31  C   UNL     1      -2.405   4.749   7.697  0.00  0.00    +0.022 A 
ATOM     32  C   UNL     1      -3.378   5.537   8.285  0.00  0.00    +0.041 A 
ATOM     33  C   UNL     1      -4.716   5.264   8.063  0.00  0.00    +0.022 A 
ATOM     34  C   UNL     1      -5.080   4.207   7.250  0.00  0.00    +0.030 A 
ATOM     35 CL   UNL     1      -2.921   6.869   9.301  0.00  0.00    -0.084 Cl
ENDBRANCH  26  29
ENDBRANCH  24  26
ENDBRANCH  20  24
ENDBRANCH  10  20
TORSDOF 9
