REMARK  Name = ZINC05008339
REMARK  10 active torsions:
REMARK  status: ('A' for Active; 'I' for Inactive)
REMARK    1  A    between atoms: C_1  and  C_2
REMARK    2  A    between atoms: C_5  and  N_9
REMARK    3  A    between atoms: C_7  and  C_8
REMARK    4  A    between atoms: C_10  and  C_12
REMARK    5  A    between atoms: C_13  and  C_30
REMARK    6  A    between atoms: C_18  and  C_20
REMARK    7  A    between atoms: C_23  and  O_28
REMARK    8  A    between atoms: C_24  and  O_26
REMARK    9  A    between atoms: O_26  and  C_27
REMARK   10  A    between atoms: O_28  and  C_29
REMARK                            x       y       z     vdW  Elec       q    Type
REMARK                         _______ _______ _______ _____ _____    ______ ____
ROOT
ATOM      1  C   UNL     1       5.019   4.771  -0.105  0.00  0.00    +0.056 C 
ATOM      2  C   UNL     1       6.332   4.464  -0.079  0.00  0.00    +0.019 C 
ATOM      3  N   UNL     1       7.281   5.435   0.081  0.00  0.00    -0.273 N 
ATOM      4  C   UNL     1       6.995   6.734   0.231  0.00  0.00    +0.304 C 
ATOM      5  O   UNL     1       7.907   7.525   0.371  0.00  0.00    -0.252 OA
ATOM      6  N   UNL     1       5.728   7.194   0.232  0.00  0.00    -0.288 N 
ATOM      7  C   UNL     1       4.631   6.226   0.061  0.00  0.00    +0.142 C 
ATOM      8  C   UNL     1       6.761   3.027  -0.233  0.00  0.00    +0.061 C 
ATOM      9  H   UNL     1       8.213   5.167   0.089  0.00  0.00    +0.156 HD
ATOM     10  H   UNL     1       5.543   8.140   0.342  0.00  0.00    +0.151 HD
ENDROOT
BRANCH   7  11
ATOM     11  C   UNL     1       3.835   6.636  -1.151  0.00  0.00    -0.019 A 
ATOM     12  C   UNL     1       4.464   6.776  -2.374  0.00  0.00    +0.009 A 
ATOM     13  C   UNL     1       3.738   7.150  -3.490  0.00  0.00    +0.050 A 
ATOM     14  C   UNL     1       2.377   7.387  -3.383  0.00  0.00    +0.162 A 
ATOM     15  C   UNL     1       1.744   7.246  -2.152  0.00  0.00    +0.162 A 
ATOM     16  C   UNL     1       2.476   6.865  -1.039  0.00  0.00    +0.055 A 
BRANCH  15  17
ATOM     17  O   UNL     1       0.408   7.477  -2.042  0.00  0.00    -0.491 OA
ATOM     18  C   UNL     1      -0.168   7.348  -0.741  0.00  0.00    +0.277 C 
ENDBRANCH  15  17
BRANCH  14  19
ATOM     19  O   UNL     1       1.661   7.756  -4.479  0.00  0.00    -0.491 OA
ATOM     20  C   UNL     1       2.377   7.880  -5.710  0.00  0.00    +0.277 C 
ENDBRANCH  14  19
ENDBRANCH   7  11
BRANCH   1  22
ATOM     21  N   UNL     1       3.685   3.369  -1.515  0.00  0.00    -0.282 N 
ATOM     22  C   UNL     1       4.035   3.766  -0.275  0.00  0.00    +0.248 C 
ATOM     23  O   UNL     1       3.506   3.261   0.698  0.00  0.00    -0.270 OA
ATOM     24  H   UNL     1       4.187   3.682  -2.284  0.00  0.00    +0.155 HD
BRANCH  21  29
ATOM     25  C   UNL     1      -0.711  -0.142  -2.240  0.00  0.00    +0.044 C 
ATOM     26  C   UNL     1       0.455   0.793  -2.046  0.00  0.00    -0.047 A 
ATOM     27  C   UNL     1       1.224   0.709  -0.899  0.00  0.00    +0.005 A 
ATOM     28  C   UNL     1       2.296   1.560  -0.721  0.00  0.00    +0.023 A 
ATOM     29  C   UNL     1       2.599   2.506  -1.692  0.00  0.00    +0.034 A 
ATOM     30  C   UNL     1       1.822   2.591  -2.840  0.00  0.00    +0.027 A 
ATOM     31  C   UNL     1       0.751   1.737  -3.012  0.00  0.00    -0.046 A 
ATOM     32  C   UNL     1      -0.093   1.830  -4.257  0.00  0.00    +0.044 C 
ENDBRANCH  21  29
ENDBRANCH   1  22
TORSDOF 5
