REMARK  Name = ZINC27071771
REMARK  8 active torsions:
REMARK  status: ('A' for Active; 'I' for Inactive)
REMARK    1  A    between atoms: C_4  and  N_7
REMARK    2  A    between atoms: C_17  and  S_18
REMARK    3  A    between atoms: S_18  and  C_19
REMARK    4  A    between atoms: C_19  and  C_20
REMARK    5  A    between atoms: C_20  and  O_21
REMARK    6  A    between atoms: O_21  and  C_22
REMARK    7  A    between atoms: C_25  and  S_28
REMARK    8  A    between atoms: S_28  and  N_31
REMARK                            x       y       z     vdW  Elec       q    Type
REMARK                         _______ _______ _______ _____ _____    ______ ____
ROOT
ATOM      1  N   UNL     1       0.002  -0.004   0.002  0.00  0.00    -0.255 N 
ATOM      2  C   UNL     1       0.034   1.258  -0.485  0.00  0.00    +0.267 A 
ATOM      3  O   UNL     1      -0.969   1.790  -0.924  0.00  0.00    -0.267 OA
ATOM      4  C   UNL     1       1.324   1.960  -0.470  0.00  0.00    +0.065 A 
ATOM      5  C   UNL     1       1.460   3.262  -0.951  0.00  0.00    +0.015 A 
ATOM      6  C   UNL     1       2.685   3.869  -0.914  0.00  0.00    +0.001 A 
ATOM      7  C   UNL     1       3.792   3.203  -0.404  0.00  0.00    +0.002 A 
ATOM      8  C   UNL     1       3.688   1.927   0.073  0.00  0.00    +0.028 A 
ATOM      9  C   UNL     1       2.449   1.279   0.049  0.00  0.00    +0.079 A 
ATOM     10  N   UNL     1       2.300   0.015   0.510  0.00  0.00    -0.223 NA
ATOM     11  C   UNL     1       1.139  -0.590   0.487  0.00  0.00    +0.177 A 
ENDROOT
BRANCH   1  15
ATOM     12  C   UNL     1      -3.588  -2.121   0.026  0.00  0.00    +0.000 A 
ATOM     13  C   UNL     1      -3.240  -1.340   1.113  0.00  0.00    +0.002 A 
ATOM     14  C   UNL     1      -2.051  -0.637   1.108  0.00  0.00    +0.026 A 
ATOM     15  C   UNL     1      -1.205  -0.716   0.010  0.00  0.00    +0.052 A 
ATOM     16  C   UNL     1      -1.560  -1.496  -1.082  0.00  0.00    +0.026 A 
ATOM     17  C   UNL     1      -2.747  -2.201  -1.068  0.00  0.00    +0.002 A 
ENDBRANCH   1  15
BRANCH  11  18
ATOM     18  S   UNL     1       1.036  -2.236   1.108  0.00  0.00    -0.084 S 
BRANCH  18  19
ATOM     19  C   UNL     1       2.760  -2.495   1.597  0.00  0.00    +0.118 C 
BRANCH  19  20
ATOM     20  C   UNL     1       2.918  -3.900   2.182  0.00  0.00    +0.240 C 
BRANCH  20  21
ATOM     21  O   UNL     1       4.278  -4.105   2.568  0.00  0.00    -0.491 OA
BRANCH  21  22
ATOM     22  C   UNL     1       4.591  -5.311   3.110  0.00  0.00    +0.121 A 
ATOM     23  C   UNL     1       3.607  -6.276   3.272  0.00  0.00    +0.047 A 
ATOM     24  C   UNL     1       3.929  -7.504   3.818  0.00  0.00    +0.032 A 
ATOM     25  C   UNL     1       5.228  -7.767   4.213  0.00  0.00    +0.105 A 
ATOM     26  C   UNL     1       6.209  -6.805   4.058  0.00  0.00    +0.032 A 
ATOM     27  C   UNL     1       5.893  -5.578   3.507  0.00  0.00    +0.047 A 
BRANCH  25  28
ATOM     28  S   UNL     1       5.633  -9.331   4.916  0.00  0.00    +0.056 S 
ATOM     29  O   UNL     1       4.655 -10.251   4.452  0.00  0.00    -0.153 OA
ATOM     30  O   UNL     1       7.024  -9.525   4.701  0.00  0.00    -0.153 OA
BRANCH  28  31
ATOM     31  N   UNL     1       5.421  -9.201   6.554  0.00  0.00    -0.204 NA
ATOM     32  H   UNL     1       5.665 -10.162   7.032  0.00  0.00    +0.144 HD
ATOM     33  H   UNL     1       4.375  -8.940   6.769  0.00  0.00    +0.144 HD
ENDBRANCH  28  31
ENDBRANCH  25  28
ENDBRANCH  21  22
ENDBRANCH  20  21
ENDBRANCH  19  20
ENDBRANCH  18  19
ENDBRANCH  11  18
TORSDOF 8
