REMARK  Name = ZINC05709868
REMARK  9 active torsions:
REMARK  status: ('A' for Active; 'I' for Inactive)
REMARK    1  A    between atoms: C_1  and  C_2
REMARK    2  A    between atoms: C_2  and  C_4
REMARK    3  A    between atoms: C_2  and  N_14
REMARK    4  A    between atoms: C_15  and  C_17
REMARK    5  A    between atoms: C_17  and  O_18
REMARK    6  A    between atoms: O_18  and  C_19
REMARK    7  A    between atoms: C_19  and  C_21
REMARK    8  A    between atoms: C_24  and  N_30
REMARK    9  A    between atoms: C_25  and  N_27
REMARK                            x       y       z     vdW  Elec       q    Type
REMARK                         _______ _______ _______ _____ _____    ______ ____
ROOT
ATOM      1  N   UNL     1       4.683   1.730  -1.424  0.00  0.00    -0.309 N 
ATOM      2  C   UNL     1       3.446   2.199  -1.166  0.00  0.00    +0.251 C 
ATOM      3  O   UNL     1       3.252   3.395  -1.103  0.00  0.00    -0.272 OA
ATOM      4  H   UNL     1       4.838   0.774  -1.474  0.00  0.00    +0.149 HD
ENDROOT
BRANCH   1   6
ATOM      5  C   UNL     1       6.385   3.058  -0.274  0.00  0.00    +0.028 C 
ATOM      6  C   UNL     1       5.793   2.664  -1.629  0.00  0.00    +0.076 C 
BRANCH   6   7
ATOM      7  C   UNL     1       6.872   1.994  -2.482  0.00  0.00    -0.010 C 
ATOM      8  C   UNL     1       6.281   1.601  -3.837  0.00  0.00    +0.012 C 
ATOM      9  C   UNL     1       7.360   0.931  -4.689  0.00  0.00    -0.010 C 
ATOM     10  C   UNL     1       8.519   1.906  -4.903  0.00  0.00    +0.007 C 
ATOM     11  C   UNL     1       9.111   2.300  -3.549  0.00  0.00    -0.010 C 
ATOM     12  C   UNL     1       8.032   2.970  -2.696  0.00  0.00    +0.012 C 
ATOM     13  C   UNL     1       9.623   1.049  -2.833  0.00  0.00    +0.007 C 
ATOM     14  C   UNL     1       8.464   0.073  -2.619  0.00  0.00    -0.010 C 
ATOM     15  C   UNL     1       7.872  -0.321  -3.973  0.00  0.00    +0.007 C 
ATOM     16  C   UNL     1       7.385   0.743  -1.766  0.00  0.00    +0.012 C 
ENDBRANCH   6   7
ENDBRANCH   1   6
BRANCH   2  17
ATOM     17  C   UNL     1       2.305   1.238  -0.955  0.00  0.00    +0.328 C 
BRANCH  17  18
ATOM     18  O   UNL     1       1.086   1.984  -0.695  0.00  0.00    -0.452 OA
BRANCH  18  19
ATOM     19  C   UNL     1      -0.036   1.268  -0.483  0.00  0.00    +0.340 C 
ATOM     20  O   UNL     1       0.003   0.054  -0.515  0.00  0.00    -0.245 OA
BRANCH  19  21
ATOM     21  C   UNL     1      -1.311   1.958  -0.218  0.00  0.00    +0.061 A 
ATOM     22  C   UNL     1      -1.356   3.355  -0.175  0.00  0.00    +0.017 A 
ATOM     23  C   UNL     1      -2.539   3.994   0.064  0.00  0.00    +0.026 A 
ATOM     24  C   UNL     1      -3.702   3.258   0.277  0.00  0.00    +0.055 A 
ATOM     25  C   UNL     1      -3.665   1.867   0.242  0.00  0.00    +0.147 A 
ATOM     26  C   UNL     1      -2.477   1.217  -0.004  0.00  0.00    +0.049 A 
BRANCH  25  27
ATOM     27  N   UNL     1      -4.903   1.087   0.469  0.00  0.00    +0.058 N 
ATOM     28  O   UNL     1      -4.852  -0.127   0.551  0.00  0.00    -0.126 OA
ATOM     29  O   UNL     1      -5.973   1.660   0.574  0.00  0.00    -0.126 OA
ENDBRANCH  25  27
BRANCH  24  30
ATOM     30  N   UNL     1      -4.902   3.914   0.526  0.00  0.00    -0.356 N 
ATOM     31  H   UNL     1      -5.609   3.464   1.014  0.00  0.00    +0.142 HD
ATOM     32  H   UNL     1      -5.032   4.823   0.212  0.00  0.00    +0.142 HD
ENDBRANCH  24  30
ENDBRANCH  19  21
ENDBRANCH  18  19
ENDBRANCH  17  18
ENDBRANCH   2  17
TORSDOF 8
