REMARK  Name = ZINC09910575
REMARK  8 active torsions:
REMARK  status: ('A' for Active; 'I' for Inactive)
REMARK    1  A    between atoms: C_1  and  C_2
REMARK    2  A    between atoms: C_9  and  N_14
REMARK    3  A    between atoms: C_10  and  C_11
REMARK    4  A    between atoms: C_15  and  C_17
REMARK    5  A    between atoms: C_17  and  C_18
REMARK    6  A    between atoms: C_18  and  C_19
REMARK    7  A    between atoms: C_19  and  S_20
REMARK    8  A    between atoms: S_20  and  C_21
REMARK                            x       y       z     vdW  Elec       q    Type
REMARK                         _______ _______ _______ _____ _____    ______ ____
ROOT
ATOM      1  C   UNL     1      -0.758   1.595  -1.227  0.00  0.00    +0.008 C 
ATOM      2  C   UNL     1      -0.013   1.086   0.008  0.00  0.00    -0.009 C 
ATOM      3  C   UNL     1      -0.714   1.583   1.276  0.00  0.00    +0.008 C 
ATOM      4  C   UNL     1      -0.129   0.881   2.503  0.00  0.00    +0.037 C 
ATOM      5  C   UNL     1       1.387   1.034   2.479  0.00  0.00    -0.023 A 
ATOM      6  C   UNL     1       2.035   1.365   1.342  0.00  0.00    -0.004 A 
ATOM      7  S   UNL     1       3.745   1.426   1.797  0.00  0.00    -0.077 S 
ATOM      8  C   UNL     1       3.602   1.017   3.475  0.00  0.00    +0.084 A 
ATOM      9  C   UNL     1       2.236   0.844   3.643  0.00  0.00    +0.068 A 
ATOM     10  C   UNL     1       1.427   1.620  -0.003  0.00  0.00    +0.046 C 
ENDROOT
BRANCH   9  11
ATOM     11  C   UNL     1       1.670   0.482   4.946  0.00  0.00    +0.244 C 
ATOM     12  O   UNL     1       1.336   1.354   5.727  0.00  0.00    -0.270 OA
ATOM     13  N   UNL     1       1.521  -0.815   5.280  0.00  0.00    -0.325 N 
ATOM     14  H   UNL     1       1.787  -1.509   4.657  0.00  0.00    +0.145 HD
ATOM     15  H   UNL     1       1.147  -1.054   6.142  0.00  0.00    +0.145 HD
ENDBRANCH   9  11
BRANCH   8  16
ATOM     16  N   UNL     1       4.609   0.894   4.420  0.00  0.00    -0.279 N 
ATOM     17  C   UNL     1       5.894   1.103   4.068  0.00  0.00    +0.218 C 
ATOM     18  O   UNL     1       6.168   1.399   2.924  0.00  0.00    -0.275 OA
ATOM     19  H   UNL     1       4.390   0.657   5.334  0.00  0.00    +0.155 HD
BRANCH  17  20
ATOM     20  C   UNL     1       6.988   0.969   5.095  0.00  0.00    +0.097 C 
BRANCH  20  21
ATOM     21  C   UNL     1       8.340   1.256   4.440  0.00  0.00    +0.020 C 
BRANCH  21  22
ATOM     22  C   UNL     1       9.451   1.120   5.482  0.00  0.00    +0.075 C 
BRANCH  22  23
ATOM     23  S   UNL     1      11.055   1.461   4.706  0.00  0.00    -0.125 S 
BRANCH  23  24
ATOM     24  C   UNL     1      12.214   1.266   6.018  0.00  0.00    +0.008 A 
ATOM     25  C   UNL     1      11.774   0.929   7.292  0.00  0.00    +0.016 A 
ATOM     26  C   UNL     1      12.685   0.772   8.317  0.00  0.00    +0.021 A 
ATOM     27  C   UNL     1      14.036   0.961   8.079  0.00  0.00    +0.041 A 
ATOM     28  C   UNL     1      14.477   1.302   6.813  0.00  0.00    +0.021 A 
ATOM     29  C   UNL     1      13.571   1.455   5.782  0.00  0.00    +0.016 A 
ATOM     30 CL   UNL     1      15.178   0.768   9.372  0.00  0.00    -0.084 Cl
ENDBRANCH  23  24
ENDBRANCH  22  23
ENDBRANCH  21  22
ENDBRANCH  20  21
ENDBRANCH  17  20
ENDBRANCH   8  16
TORSDOF 7
