REMARK  Name = ZINC08395552
REMARK  6 active torsions:
REMARK  status: ('A' for Active; 'I' for Inactive)
REMARK    1  A    between atoms: C_1  and  C_2
REMARK    2  A    between atoms: C_9  and  N_14
REMARK    3  A    between atoms: C_10  and  C_11
REMARK    4  A    between atoms: C_15  and  C_17
REMARK    5  A    between atoms: C_19  and  S_24
REMARK    6  A    between atoms: S_24  and  C_25
REMARK                            x       y       z     vdW  Elec       q    Type
REMARK                         _______ _______ _______ _____ _____    ______ ____
ROOT
ATOM      1  C   UNL     1      -4.237  -2.367  -4.655  0.00  0.00    +0.008 C 
ATOM      2  C   UNL     1      -3.567  -1.651  -3.482  0.00  0.00    -0.009 C 
ATOM      3  C   UNL     1      -2.045  -1.718  -3.637  0.00  0.00    +0.008 C 
ATOM      4  C   UNL     1      -1.376  -0.799  -2.613  0.00  0.00    +0.037 C 
ATOM      5  C   UNL     1      -1.920  -1.128  -1.228  0.00  0.00    -0.023 A 
ATOM      6  C   UNL     1      -3.070  -1.821  -1.079  0.00  0.00    -0.004 A 
ATOM      7  S   UNL     1      -3.285  -1.968   0.672  0.00  0.00    -0.077 S 
ATOM      8  C   UNL     1      -1.865  -1.129   1.201  0.00  0.00    +0.085 A 
ATOM      9  C   UNL     1      -1.258  -0.754   0.010  0.00  0.00    +0.068 A 
ATOM     10  C   UNL     1      -3.960  -2.338  -2.166  0.00  0.00    +0.046 C 
ENDROOT
BRANCH   9  11
ATOM     11  C   UNL     1       0.002  -0.004   0.002  0.00  0.00    +0.244 C 
ATOM     12  O   UNL     1       1.064  -0.598  -0.011  0.00  0.00    -0.270 OA
ATOM     13  N   UNL     1      -0.016   1.344   0.009  0.00  0.00    -0.325 N 
ATOM     14  H   UNL     1       0.817   1.840   0.004  0.00  0.00    +0.145 HD
ATOM     15  H   UNL     1      -0.863   1.817   0.016  0.00  0.00    +0.145 HD
ENDBRANCH   9  11
BRANCH   8  16
ATOM     16  N   UNL     1      -1.439  -0.889   2.497  0.00  0.00    -0.275 N 
ATOM     17  C   UNL     1      -2.168  -1.334   3.539  0.00  0.00    +0.250 C 
ATOM     18  O   UNL     1      -3.200  -1.946   3.342  0.00  0.00    -0.270 OA
ATOM     19  H   UNL     1      -0.615  -0.401   2.655  0.00  0.00    +0.156 HD
BRANCH  17  20
ATOM     20  C   UNL     1      -1.713  -1.079   4.921  0.00  0.00    +0.056 A 
ATOM     21  C   UNL     1      -0.529  -0.377   5.151  0.00  0.00    +0.029 A 
ATOM     22  C   UNL     1      -0.110  -0.141   6.451  0.00  0.00    +0.008 A 
ATOM     23  C   UNL     1      -0.868  -0.604   7.522  0.00  0.00    +0.016 A 
ATOM     24  C   UNL     1      -2.040  -1.299   7.296  0.00  0.00    +0.022 A 
ATOM     25  C   UNL     1      -2.471  -1.534   6.004  0.00  0.00    +0.053 A 
ATOM     26 CL   UNL     1      -3.948  -2.403   5.726  0.00  0.00    -0.083 Cl
BRANCH  22  27
ATOM     27  S   UNL     1       1.385   0.745   6.747  0.00  0.00    -0.129 S 
ATOM     28  C   UNL     1       1.510   0.801   8.556  0.00  0.00    +0.090 C 
ENDBRANCH  22  27
ENDBRANCH  17  20
ENDBRANCH   8  16
TORSDOF 4
