REMARK  Name = ZINC09446229
REMARK  4 active torsions:
REMARK  status: ('A' for Active; 'I' for Inactive)
REMARK    1  A    between atoms: C_6  and  C_7
REMARK    2  A    between atoms: C_7  and  C_8
REMARK    3  A    between atoms: C_7  and  N_60
REMARK    4  A    between atoms: C_20  and  C_22
REMARK                            x       y       z     vdW  Elec       q    Type
REMARK                         _______ _______ _______ _____ _____    ______ ____
ROOT
ATOM      1  C   UNL     1      -2.544   3.856   1.473  0.00  0.00    -0.058 C 
ATOM      2  C   UNL     1      -1.621   3.327   0.370  0.00  0.00    +0.089 C 
ATOM      3  N   UNL     1      -1.112   2.009   0.779  0.00  0.00    -0.305 N 
ATOM      4  C   UNL     1      -2.082   0.992   1.211  0.00  0.00    +0.089 C 
ATOM      5  C   UNL     1      -2.987   1.614   2.286  0.00  0.00    -0.058 C 
ATOM      6  C   UNL     1       0.208   1.739   0.752  0.00  0.00    +0.220 C 
ATOM      7  O   UNL     1       1.001   2.614   0.475  0.00  0.00    -0.275 OA
ATOM      8  N   UNL     1      -3.593   2.847   1.739  0.00  0.00    +0.389 N 
ATOM      9  H   UNL     1      -4.068   2.621   0.857  0.00  0.00    -0.080 HD
ENDROOT
BRANCH   6  10
ATOM     10  C   UNL     1       0.699   0.348   1.061  0.00  0.00    +0.093 C 
ATOM     11  C   UNL     1       1.931   0.039   0.207  0.00  0.00    +0.016 C 
ATOM     12  C   UNL     1       2.410  -1.385   0.496  0.00  0.00    +0.020 C 
ATOM     13  C   UNL     1       2.805  -1.497   1.972  0.00  0.00    +0.109 C 
ATOM     14  N   UNL     1       1.671  -1.063   2.799  0.00  0.00    -0.285 N 
ATOM     15  C   UNL     1       1.074   0.255   2.543  0.00  0.00    +0.122 C 
ATOM     16  C   UNL     1       1.188  -1.858   3.773  0.00  0.00    +0.300 C 
ATOM     17  O   UNL     1       0.191  -1.530   4.388  0.00  0.00    -0.253 OA
ATOM     18  N   UNL     1       1.809  -3.018   4.067  0.00  0.00    -0.313 N 
ATOM     19  H   UNL     1       2.561  -3.314   3.531  0.00  0.00    +0.146 HD
ATOM     20  H   UNL     1       1.505  -3.555   4.815  0.00  0.00    +0.146 HD
ENDBRANCH   6  10
BRANCH   8  21
ATOM     21  C   UNL     1      -4.583   3.389   2.692  0.00  0.00    -0.007 C 
BRANCH  21  27
ATOM     22  C   UNL     1      -5.665   4.535   0.748  0.00  0.00    +0.005 A 
ATOM     23  C   UNL     1      -6.287   5.629   0.176  0.00  0.00    +0.038 A 
ATOM     24  C   UNL     1      -6.492   6.777   0.922  0.00  0.00    +0.123 A 
ATOM     25  C   UNL     1      -6.078   6.826   2.243  0.00  0.00    +0.038 A 
ATOM     26  C   UNL     1      -5.461   5.729   2.814  0.00  0.00    +0.005 A 
ATOM     27  C   UNL     1      -5.257   4.584   2.068  0.00  0.00    -0.057 A 
ATOM     28  F   UNL     1      -7.096   7.848   0.363  0.00  0.00    -0.205 F 
ENDBRANCH  21  27
BRANCH  21  29
ATOM     29  C   UNL     1      -5.613   2.327   2.984  0.00  0.00    -0.057 A 
ATOM     30  C   UNL     1      -6.110   1.546   1.957  0.00  0.00    +0.005 A 
ATOM     31  C   UNL     1      -7.051   0.570   2.224  0.00  0.00    +0.038 A 
ATOM     32  C   UNL     1      -7.502   0.381   3.519  0.00  0.00    +0.123 A 
ATOM     33  C   UNL     1      -7.008   1.167   4.546  0.00  0.00    +0.038 A 
ATOM     34  C   UNL     1      -6.063   2.139   4.277  0.00  0.00    +0.005 A 
ATOM     35  F   UNL     1      -8.425  -0.571   3.781  0.00  0.00    -0.205 F 
ENDBRANCH  21  29
ENDBRANCH   8  21
TORSDOF 4
