REMARK  Name = ZINC32668280
REMARK  10 active torsions:
REMARK  status: ('A' for Active; 'I' for Inactive)
REMARK    1  A    between atoms: C_1  and  C_2
REMARK    2  A    between atoms: C_2  and  C_3
REMARK    3  A    between atoms: C_3  and  C_4
REMARK    4  A    between atoms: C_4  and  N_5
REMARK    5  A    between atoms: N_14  and  C_27
REMARK    6  A    between atoms: C_15  and  C_17
REMARK    7  A    between atoms: C_19  and  O_25
REMARK    8  A    between atoms: C_20  and  O_24
REMARK    9  A    between atoms: O_25  and  C_26
REMARK   10  A    between atoms: C_27  and  C_28
REMARK                            x       y       z     vdW  Elec       q    Type
REMARK                         _______ _______ _______ _____ _____    ______ ____
ROOT
ATOM      1  N   UNL     1      -0.748   1.697  -3.813  0.00  0.00    -0.277 N 
ATOM      2  C   UNL     1      -1.752   0.874  -4.301  0.00  0.00    +0.169 A 
ATOM      3  C   UNL     1      -2.489   1.298  -5.402  0.00  0.00    +0.152 A 
ATOM      4  C   UNL     1      -2.188   2.542  -5.994  0.00  0.00    +0.280 A 
ATOM      5  O   UNL     1      -2.816   2.931  -6.962  0.00  0.00    -0.265 OA
ATOM      6  N   UNL     1      -1.196   3.295  -5.476  0.00  0.00    -0.273 N 
ATOM      7  H   UNL     1      -0.950   4.267  -5.928  0.00  0.00    +0.173 HD
ATOM      8  C   UNL     1      -0.494   2.877  -4.409  0.00  0.00    +0.331 A 
ATOM      9  O   UNL     1       0.394   3.583  -3.970  0.00  0.00    -0.246 OA
ATOM     10  N   UNL     1      -3.411   0.301  -5.663  0.00  0.00    -0.318 N 
ATOM     11  C   UNL     1      -3.213  -0.672  -4.730  0.00  0.00    +0.144 A 
ATOM     12  N   UNL     1      -2.228  -0.313  -3.929  0.00  0.00    -0.209 NA
ENDROOT
BRANCH  11  13
ATOM     13  C   UNL     1      -3.981  -1.930  -4.631  0.00  0.00    +0.022 A 
ATOM     14  C   UNL     1      -4.674  -2.416  -5.742  0.00  0.00    +0.061 A 
ATOM     15  C   UNL     1      -5.391  -3.593  -5.644  0.00  0.00    +0.163 A 
ATOM     16  C   UNL     1      -5.421  -4.293  -4.440  0.00  0.00    +0.173 A 
ATOM     17  C   UNL     1      -4.732  -3.810  -3.336  0.00  0.00    +0.064 A 
ATOM     18  C   UNL     1      -4.010  -2.638  -3.428  0.00  0.00    +0.030 A 
ATOM     19 BR   UNL     1      -4.777  -4.764  -1.704  0.00  0.00    -0.046 Br
BRANCH  16  20
ATOM     20  O   UNL     1      -6.126  -5.451  -4.346  0.00  0.00    -0.503 OA
ATOM     21  H   UNL     1      -6.150  -6.005  -3.395  0.00  0.00    +0.292 HD
ENDBRANCH  16  20
BRANCH  15  22
ATOM     22  O   UNL     1      -6.067  -4.069  -6.724  0.00  0.00    -0.491 OA
ATOM     23  C   UNL     1      -5.992  -3.301  -7.926  0.00  0.00    +0.277 C 
ENDBRANCH  15  22
ENDBRANCH  11  13
BRANCH  10  24
ATOM     24  C   UNL     1      -4.408   0.292  -6.736  0.00  0.00    +0.121 C 
ATOM     25  C   UNL     1      -3.775  -0.254  -8.017  0.00  0.00    +0.027 C 
ENDBRANCH  10  24
BRANCH   1  26
ATOM     26  C   UNL     1       0.041   1.279  -2.651  0.00  0.00    +0.128 C 
BRANCH  26  27
ATOM     27  C   UNL     1      -0.632   1.780  -1.371  0.00  0.00    +0.021 C 
BRANCH  27  29
ATOM     28  C   UNL     1      -0.480   1.844   1.122  0.00  0.00    +0.004 C 
ATOM     29  C   UNL     1       0.192   1.343  -0.159  0.00  0.00    -0.002 C 
ENDBRANCH  27  29
ENDBRANCH  26  27
ENDBRANCH   1  26
TORSDOF 7
