REMARK  Name = ZINC06476535
REMARK  2 active torsions:
REMARK  status: ('A' for Active; 'I' for Inactive)
REMARK    1  A    between atoms: C_11  and  C_21
REMARK    2  A    between atoms: C_24  and  O_27
REMARK                            x       y       z     vdW  Elec       q    Type
REMARK                         _______ _______ _______ _____ _____    ______ ____
ROOT
ATOM      1  C   UNL     1      -1.235   1.728   0.017  0.00  0.00    +0.001 A 
ATOM      2  C   UNL     1      -0.013   1.076   0.008  0.00  0.00    +0.002 A 
ATOM      3  C   UNL     1       1.190   1.760   0.000  0.00  0.00    +0.026 A 
ATOM      4  C   UNL     1       1.124   3.152   0.010  0.00  0.00    +0.047 A 
ATOM      5  C   UNL     1      -0.130   3.814   0.026  0.00  0.00    +0.003 A 
ATOM      6  C   UNL     1      -1.330   3.098   0.032  0.00  0.00    +0.010 A 
ATOM      7  C   UNL     1       0.164   5.235   0.034  0.00  0.00    -0.015 A 
ATOM      8  C   UNL     1       1.509   5.355   0.024  0.00  0.00    +0.046 A 
ATOM      9  N   UNL     1       2.091   4.115   0.005  0.00  0.00    -0.356 N 
ATOM     10  H   UNL     1       3.046   3.947  -0.009  0.00  0.00    +0.166 HD
ATOM     11  C   UNL     1       2.235   6.685   0.035  0.00  0.00    +0.157 C 
ATOM     12  N   UNL     1       1.204   7.722  -0.137  0.00  0.00    -0.248 N 
ATOM     13  C   UNL     1      -0.117   7.651   0.523  0.00  0.00    +0.122 C 
ATOM     14  C   UNL     1      -0.821   6.377   0.041  0.00  0.00    +0.063 C 
ATOM     15  C   UNL     1      -0.855   8.885  -0.027  0.00  0.00    +0.256 C 
ATOM     16  O   UNL     1       0.130   9.540  -0.878  0.00  0.00    -0.448 OA
ATOM     17  C   UNL     1       1.266   8.831  -0.874  0.00  0.00    +0.404 C 
ATOM     18  O   UNL     1       2.261   9.168  -1.484  0.00  0.00    -0.226 OA
ENDROOT
BRANCH  11  19
ATOM     19  C   UNL     1       3.223   6.744  -1.102  0.00  0.00    -0.021 A 
ATOM     20  C   UNL     1       2.786   7.034  -2.381  0.00  0.00    +0.009 A 
ATOM     21  C   UNL     1       3.691   7.095  -3.424  0.00  0.00    +0.046 A 
ATOM     22  C   UNL     1       5.036   6.854  -3.188  0.00  0.00    +0.117 A 
ATOM     23  C   UNL     1       5.471   6.557  -1.904  0.00  0.00    +0.046 A 
ATOM     24  C   UNL     1       4.563   6.503  -0.864  0.00  0.00    +0.009 A 
BRANCH  22  25
ATOM     25  O   UNL     1       5.927   6.907  -4.213  0.00  0.00    -0.507 OA
ATOM     26  H   UNL     1       6.058   6.062  -4.665  0.00  0.00    +0.292 HD
ENDBRANCH  22  25
ENDBRANCH  11  19
TORSDOF 2
