REMARK  Name = ZINC14753947
REMARK  10 active torsions:
REMARK  status: ('A' for Active; 'I' for Inactive)
REMARK    1  A    between atoms: C_1  and  C_2
REMARK    2  A    between atoms: C_2  and  N_71
REMARK    3  A    between atoms: C_6  and  C_8
REMARK    4  A    between atoms: C_8  and  N_9
REMARK    5  A    between atoms: C_10  and  C_12
REMARK    6  A    between atoms: N_15  and  C_17
REMARK    7  A    between atoms: C_17  and  C_18
REMARK    8  A    between atoms: C_18  and  O_19
REMARK    9  A    between atoms: O_19  and  C_20
REMARK   10  A    between atoms: C_25  and  C_27
REMARK                            x       y       z     vdW  Elec       q    Type
REMARK                         _______ _______ _______ _____ _____    ______ ____
ROOT
ATOM      1  C   UNL     1       5.856  -4.767  -1.503  0.00  0.00    +0.152 A 
ATOM      2  C   UNL     1       4.875  -3.977  -0.884  0.00  0.00    +0.023 A 
ATOM      3  C   UNL     1       3.690  -4.359  -1.422  0.00  0.00    +0.046 A 
ATOM      4  N   UNL     1       3.957  -5.331  -2.311  0.00  0.00    -0.265 N 
ATOM      5  N   UNL     1       5.224  -5.559  -2.351  0.00  0.00    -0.166 NA
ATOM      6  C   UNL     1       2.358  -3.762  -1.052  0.00  0.00    +0.074 C 
ATOM      7  C   UNL     1       2.501  -3.029   0.294  0.00  0.00    +0.114 C 
ATOM      8  N   UNL     1       3.726  -2.216   0.270  0.00  0.00    -0.293 N 
ATOM      9  C   UNL     1       5.024  -2.909   0.167  0.00  0.00    +0.147 C 
ATOM     10  C   UNL     1       3.665  -0.872   0.346  0.00  0.00    +0.247 C 
ATOM     11  O   UNL     1       2.595  -0.321   0.514  0.00  0.00    -0.270 OA
ENDROOT
BRANCH  10  12
ATOM     12  C   UNL     1       4.898  -0.069   0.226  0.00  0.00    +0.041 A 
ATOM     13  C   UNL     1       4.911   1.081  -0.567  0.00  0.00    +0.017 A 
ATOM     14  C   UNL     1       6.063   1.827  -0.678  0.00  0.00    +0.050 A 
ATOM     15  C   UNL     1       7.215   1.442  -0.004  0.00  0.00    +0.162 A 
ATOM     16  C   UNL     1       7.209   0.298   0.791  0.00  0.00    +0.163 A 
ATOM     17  C   UNL     1       6.055  -0.457   0.905  0.00  0.00    +0.062 A 
ATOM     18  O   UNL     1       8.327  -0.089   1.464  0.00  0.00    -0.485 OA
ATOM     19  C   UNL     1       9.567   0.480   1.032  0.00  0.00    +0.270 C 
ATOM     20  C   UNL     1       9.365   1.990   0.849  0.00  0.00    +0.270 C 
ATOM     21  O   UNL     1       8.343   2.189  -0.135  0.00  0.00    -0.485 OA
ENDBRANCH  10  12
BRANCH   1  23
ATOM     22  N   UNL     1       8.137  -5.545  -1.930  0.00  0.00    -0.312 N 
ATOM     23  C   UNL     1       7.312  -4.721  -1.255  0.00  0.00    +0.264 C 
ATOM     24  O   UNL     1       7.766  -3.939  -0.442  0.00  0.00    -0.268 OA
ATOM     25  H   UNL     1       7.775  -6.169  -2.579  0.00  0.00    +0.149 HD
BRANCH  22  26
ATOM     26  C   UNL     1       9.580  -5.500  -1.684  0.00  0.00    +0.089 C 
BRANCH  26  30
ATOM     27  C   UNL     1      12.248  -7.689  -3.003  0.00  0.00    -0.078 C 
ATOM     28  C   UNL     1      11.174  -8.727  -2.611  0.00  0.00    -0.020 C 
ATOM     29  C   UNL     1       9.888  -7.906  -2.384  0.00  0.00    -0.016 C 
ATOM     30  C   UNL     1      10.293  -6.441  -2.657  0.00  0.00    -0.051 C 
ATOM     31  N   UNL     1      11.744  -6.440  -2.437  0.00  0.00    +0.382 N 
ATOM     32  H   UNL     1      11.947  -6.404  -1.431  0.00  0.00    -0.081 HD
BRANCH  31  34
ATOM     33  C   UNL     1      13.848  -5.160  -2.715  0.00  0.00    -0.017 C 
ATOM     34  C   UNL     1      12.373  -5.258  -3.107  0.00  0.00    -0.082 C 
ENDBRANCH  31  34
ENDBRANCH  26  30
ENDBRANCH  22  26
ENDBRANCH   1  23
BRANCH   4  35
ATOM     35  C   UNL     1       2.953  -6.029  -3.118  0.00  0.00    +0.171 C 
BRANCH  35  36
ATOM     36  C   UNL     1       2.458  -7.263  -2.360  0.00  0.00    +0.182 C 
BRANCH  36  37
ATOM     37  O   UNL     1       1.478  -7.944  -3.147  0.00  0.00    -0.381 OA
ATOM     38  C   UNL     1       0.949  -9.118  -2.527  0.00  0.00    +0.194 C 
ENDBRANCH  36  37
ENDBRANCH  35  36
ENDBRANCH   4  35
TORSDOF 8
