REMARK  Name = ZINC23558658
REMARK  10 active torsions:
REMARK  status: ('A' for Active; 'I' for Inactive)
REMARK    1  A    between atoms: C_1  and  C_2
REMARK    2  A    between atoms: C_2  and  C_4
REMARK    3  A    between atoms: C_2  and  O_20
REMARK    4  A    between atoms: N_6  and  C_7
REMARK    5  A    between atoms: C_10  and  N_17
REMARK    6  A    between atoms: C_12  and  C_13
REMARK    7  A    between atoms: O_20  and  C_21
REMARK    8  A    between atoms: C_21  and  C_23
REMARK    9  A    between atoms: C_23  and  N_24
REMARK   10  A    between atoms: C_25  and  C_27
REMARK                            x       y       z     vdW  Elec       q    Type
REMARK                         _______ _______ _______ _____ _____    ______ ____
ROOT
ATOM      1  C   UNL     1       4.439  -0.585   1.487  0.00  0.00    +0.062 C 
ATOM      2  C   UNL     1       3.744  -0.963   0.178  0.00  0.00    +0.259 C 
ENDROOT
BRANCH   2   3
ATOM      3  C   UNL     1       2.426  -0.238   0.080  0.00  0.00    +0.258 C 
ATOM      4  O   UNL     1       1.388  -0.864   0.087  0.00  0.00    -0.271 OA
ATOM      5  N   UNL     1       2.403   1.107  -0.015  0.00  0.00    -0.282 N 
ATOM      6  H   UNL     1       3.344   1.668  -0.112  0.00  0.00    +0.155 HD
BRANCH   5   7
ATOM      7  C   UNL     1       1.181   1.788   0.011  0.00  0.00    +0.045 A 
ATOM      8  C   UNL     1       0.076   1.214   0.627  0.00  0.00    +0.026 A 
ATOM      9  C   UNL     1      -1.129   1.887   0.646  0.00  0.00    +0.034 A 
ATOM     10  C   UNL     1      -1.235   3.136   0.063  0.00  0.00    +0.127 A 
ATOM     11  C   UNL     1      -0.137   3.711  -0.550  0.00  0.00    +0.047 A 
ATOM     12  C   UNL     1       1.070   3.041  -0.578  0.00  0.00    +0.078 A 
BRANCH  12  13
ATOM     13  C   UNL     1       2.266   3.668  -1.247  0.00  0.00    +0.419 C 
ATOM     14  F   UNL     1       1.910   4.919  -1.762  0.00  0.00    -0.166 F 
ATOM     15  F   UNL     1       3.295   3.825  -0.311  0.00  0.00    -0.166 F 
ATOM     16  F   UNL     1       2.705   2.842  -2.288  0.00  0.00    -0.166 F 
ENDBRANCH  12  13
BRANCH  10  17
ATOM     17  N   UNL     1      -2.527   3.857   0.090  0.00  0.00    +0.056 N 
ATOM     18  O   UNL     1      -2.623   4.955  -0.427  0.00  0.00    -0.126 OA
ATOM     19  O   UNL     1      -3.495   3.352   0.630  0.00  0.00    -0.126 OA
ENDBRANCH  10  17
ENDBRANCH   5   7
ENDBRANCH   2   3
BRANCH   2  20
ATOM     20  O   UNL     1       3.511  -2.396   0.150  0.00  0.00    -0.451 OA
BRANCH  20  21
ATOM     21  C   UNL     1       4.479  -3.160  -0.380  0.00  0.00    +0.325 C 
ATOM     22  O   UNL     1       5.487  -2.649  -0.806  0.00  0.00    -0.249 OA
BRANCH  21  23
ATOM     23  C   UNL     1       4.307  -4.656  -0.443  0.00  0.00    +0.225 C 
BRANCH  23  24
ATOM     24  N   UNL     1       5.492  -5.258  -1.060  0.00  0.00    -0.301 N 
ATOM     25  C   UNL     1       5.563  -6.594  -1.222  0.00  0.00    +0.245 C 
ATOM     26  O   UNL     1       4.643  -7.300  -0.856  0.00  0.00    -0.270 OA
ATOM     27  H   UNL     1       6.324  -4.619  -1.391  0.00  0.00    +0.150 HD
BRANCH  25  28
ATOM     28  C   UNL     1       6.758  -7.201  -1.843  0.00  0.00    +0.037 A 
ATOM     29  C   UNL     1       7.814  -6.392  -2.270  0.00  0.00    +0.014 A 
ATOM     30  C   UNL     1       8.929  -6.965  -2.844  0.00  0.00    +0.021 A 
ATOM     31  C   UNL     1       8.999  -8.338  -3.008  0.00  0.00    +0.041 A 
ATOM     32  C   UNL     1       7.952  -9.145  -2.593  0.00  0.00    +0.021 A 
ATOM     33  C   UNL     1       6.834  -8.585  -2.012  0.00  0.00    +0.014 A 
ATOM     34 CL   UNL     1      10.403  -9.051  -3.738  0.00  0.00    -0.084 Cl
ENDBRANCH  25  28
ENDBRANCH  23  24
ENDBRANCH  21  23
ENDBRANCH  20  21
ENDBRANCH   2  20
TORSDOF 9
