REMARK  Name = ZINC64990338
REMARK  7 active torsions:
REMARK  status: ('A' for Active; 'I' for Inactive)
REMARK    1  A    between atoms: C_1  and  C_2
REMARK    2  A    between atoms: C_5  and  C_8
REMARK    3  A    between atoms: C_16  and  C_19
REMARK    4  A    between atoms: C_19  and  N_20
REMARK    5  A    between atoms: N_23  and  C_24
REMARK    6  A    between atoms: C_27  and  C_31
REMARK    7  A    between atoms: C_29  and  C_30
REMARK                            x       y       z     vdW  Elec       q    Type
REMARK                         _______ _______ _______ _____ _____    ______ ____
ROOT
ATOM      1  C   UNL     1       0.049  -4.273   0.027  0.00  0.00    +0.251 C 
ATOM      2  O   UNL     1      -0.051  -4.871  -1.027  0.00  0.00    -0.270 OA
ATOM      3  N   UNL     1       0.170  -4.959   1.181  0.00  0.00    -0.267 N 
ATOM      4  C   UNL     1       0.176  -4.358   2.518  0.00  0.00    +0.118 C 
ATOM      5  C   UNL     1       0.336  -5.539   3.489  0.00  0.00    +0.056 C 
ATOM      6  C   UNL     1       0.411  -6.758   2.598  0.00  0.00    -0.024 A 
ATOM      7  C   UNL     1       0.303  -6.346   1.278  0.00  0.00    +0.040 A 
ATOM      8  C   UNL     1       0.341  -7.305   0.264  0.00  0.00    +0.029 A 
ATOM      9  C   UNL     1       0.480  -8.641   0.575  0.00  0.00    -0.029 A 
ATOM     10  C   UNL     1       0.583  -9.041   1.895  0.00  0.00    +0.005 A 
ATOM     11  C   UNL     1       0.554  -8.097   2.904  0.00  0.00    +0.006 A 
ENDROOT
BRANCH   1  16
ATOM     12  C   UNL     1      -0.002   1.480   0.088  0.00  0.00    +0.044 C 
ATOM     13  C   UNL     1       0.011  -0.026   0.072  0.00  0.00    -0.050 A 
ATOM     14  C   UNL     1       0.066  -0.702  -1.134  0.00  0.00    +0.004 A 
ATOM     15  C   UNL     1       0.079  -2.081  -1.156  0.00  0.00    +0.013 A 
ATOM     16  C   UNL     1       0.036  -2.795   0.043  0.00  0.00    +0.037 A 
ATOM     17  C   UNL     1      -0.019  -2.108   1.256  0.00  0.00    +0.013 A 
ATOM     18  C   UNL     1      -0.026  -0.728   1.264  0.00  0.00    +0.004 A 
ENDBRANCH   1  16
BRANCH   9  19
ATOM     19  C   UNL     1       0.520  -9.669  -0.526  0.00  0.00    +0.141 C 
BRANCH  19  20
ATOM     20  N   UNL     1       1.906  -9.874  -0.953  0.00  0.00    -0.295 N 
ATOM     21  C   UNL     1       2.186 -10.755  -1.934  0.00  0.00    +0.304 C 
ATOM     22  O   UNL     1       1.288 -11.379  -2.465  0.00  0.00    -0.252 OA
ATOM     23  N   UNL     1       3.462 -10.944  -2.326  0.00  0.00    -0.269 N 
ATOM     24  H   UNL     1       2.623  -9.377  -0.529  0.00  0.00    +0.151 HD
ATOM     25  H   UNL     1       4.184 -10.497  -1.858  0.00  0.00    +0.156 HD
BRANCH  23  26
ATOM     26  C   UNL     1       3.743 -11.786  -3.408  0.00  0.00    +0.038 A 
ATOM     27  C   UNL     1       2.970 -12.919  -3.628  0.00  0.00    +0.024 A 
ATOM     28  C   UNL     1       3.251 -13.747  -4.697  0.00  0.00    +0.005 A 
ATOM     29  C   UNL     1       4.300 -13.450  -5.547  0.00  0.00    -0.050 A 
ATOM     30  C   UNL     1       5.072 -12.324  -5.330  0.00  0.00    +0.008 A 
ATOM     31  C   UNL     1       4.793 -11.488  -4.266  0.00  0.00    -0.029 A 
ATOM     32  C   UNL     1       5.630 -10.257  -4.035  0.00  0.00    +0.045 C 
ATOM     33  C   UNL     1       4.604 -14.357  -6.712  0.00  0.00    +0.044 C 
ENDBRANCH  23  26
ENDBRANCH  19  20
ENDBRANCH   9  19
TORSDOF 4
