REMARK  Name = ZINC11752579
REMARK  6 active torsions:
REMARK  status: ('A' for Active; 'I' for Inactive)
REMARK    1  A    between atoms: C_1  and  C_2
REMARK    2  A    between atoms: C_2  and  C_3
REMARK    3  A    between atoms: C_2  and  C_4
REMARK    4  A    between atoms: C_4  and  C_6
REMARK    5  A    between atoms: C_4  and  N_22
REMARK    6  A    between atoms: C_23  and  C_25
REMARK                            x       y       z     vdW  Elec       q    Type
REMARK                         _______ _______ _______ _____ _____    ______ ____
ROOT
ATOM      1  C   UNL     1      -2.125  -0.137  -1.266  0.00  0.00    +0.239 C 
ATOM      2  O   UNL     1      -3.122   0.552  -1.228  0.00  0.00    -0.273 OA
ATOM      3  N   UNL     1      -1.635  -0.549  -2.452  0.00  0.00    -0.263 N 
ATOM      4  C   UNL     1      -2.271  -0.184  -3.629  0.00  0.00    +0.165 A 
ATOM      5  N   UNL     1      -3.345   0.552  -3.790  0.00  0.00    -0.224 NA
ATOM      6  C   UNL     1      -3.860   0.830  -5.009  0.00  0.00    +0.084 A 
ATOM      7  C   UNL     1      -5.003   1.603  -5.316  0.00  0.00    +0.078 A 
ATOM      8  C   UNL     1      -5.401   1.794  -6.620  0.00  0.00    +0.164 A 
ATOM      9  C   UNL     1      -4.686   1.230  -7.676  0.00  0.00    +0.163 A 
ATOM     10  C   UNL     1      -3.562   0.465  -7.407  0.00  0.00    +0.066 A 
ATOM     11  C   UNL     1      -3.165   0.275  -6.106  0.00  0.00    +0.044 A 
ATOM     12  S   UNL     1      -1.832  -0.591  -5.313  0.00  0.00    -0.052 S 
ATOM     13  O   UNL     1      -5.071   1.420  -8.967  0.00  0.00    -0.485 OA
ATOM     14  C   UNL     1      -6.409   1.885  -9.177  0.00  0.00    +0.270 C 
ATOM     15  C   UNL     1      -6.674   3.038  -8.201  0.00  0.00    +0.270 C 
ATOM     16  O   UNL     1      -6.513   2.545  -6.867  0.00  0.00    -0.485 OA
ATOM     17  H   UNL     1      -0.837  -1.100  -2.483  0.00  0.00    +0.157 HD
ENDROOT
BRANCH   1  18
ATOM     18  C   UNL     1      -1.433  -0.534   0.013  0.00  0.00    +0.162 C 
BRANCH  18  19
ATOM     19  N   UNL     1      -2.155   0.035   1.154  0.00  0.00    -0.304 N 
ATOM     20  C   UNL     1      -2.067  -0.550   2.366  0.00  0.00    +0.217 C 
ATOM     21  O   UNL     1      -1.391  -1.546   2.511  0.00  0.00    -0.275 OA
ATOM     22  H   UNL     1      -2.696   0.831   1.038  0.00  0.00    +0.149 HD
BRANCH  20  23
ATOM     23  C   UNL     1      -2.809   0.034   3.540  0.00  0.00    +0.075 C 
ATOM     24  C   UNL     1      -2.330   1.466   3.785  0.00  0.00    +0.013 C 
ATOM     25  C   UNL     1      -3.083   2.060   4.977  0.00  0.00    +0.001 C 
ATOM     26  C   UNL     1      -2.816   1.212   6.222  0.00  0.00    +0.000 C 
ATOM     27  C   UNL     1      -3.296  -0.220   5.977  0.00  0.00    +0.001 C 
ATOM     28  C   UNL     1      -2.542  -0.813   4.785  0.00  0.00    +0.013 C 
ENDBRANCH  20  23
ENDBRANCH  18  19
BRANCH  18  30
ATOM     29  C   UNL     1      -0.019   1.526   0.010  0.00  0.00    +0.009 C 
ATOM     30  C   UNL     1       0.002  -0.004   0.002  0.00  0.00    +0.012 C 
ATOM     31  C   UNL     1       0.742  -0.511   1.242  0.00  0.00    +0.009 C 
ENDBRANCH  18  30
ENDBRANCH   1  18
TORSDOF 4
