REMARK  Name = ZINC66022215
REMARK  5 active torsions:
REMARK  status: ('A' for Active; 'I' for Inactive)
REMARK    1  A    between atoms: C_1  and  C_2
REMARK    2  A    between atoms: C_3  and  C_13
REMARK    3  A    between atoms: C_5  and  C_7
REMARK    4  A    between atoms: N_15  and  C_16
REMARK    5  A    between atoms: C_20  and  N_21
REMARK                            x       y       z     vdW  Elec       q    Type
REMARK                         _______ _______ _______ _____ _____    ______ ____
ROOT
ATOM      1  C   UNL     1      -1.056  -0.773  -2.784  0.00  0.00    +0.253 C 
ATOM      2  O   UNL     1      -1.264   0.421  -2.890  0.00  0.00    -0.270 OA
ATOM      3  N   UNL     1      -0.615  -1.477  -3.845  0.00  0.00    -0.306 N 
ATOM      4  H   UNL     1      -0.449  -2.429  -3.761  0.00  0.00    +0.149 HD
ENDROOT
BRANCH   1   7
ATOM      5  C   UNL     1      -2.055   0.542  -0.170  0.00  0.00    +0.067 C 
ATOM      6  C   UNL     1      -1.728  -0.924  -0.294  0.00  0.00    +0.058 A 
ATOM      7  C   UNL     1      -1.283  -1.445  -1.503  0.00  0.00    +0.097 A 
ATOM      8  S   UNL     1      -1.066  -3.164  -1.060  0.00  0.00    -0.062 S 
ATOM      9  C   UNL     1      -1.577  -3.018   0.647  0.00  0.00    +0.116 A 
ATOM     10  N   UNL     1      -1.854  -1.717   0.732  0.00  0.00    -0.243 NA
BRANCH   9  11
ATOM     11  C   UNL     1      -1.663  -4.055   1.682  0.00  0.00    +0.046 A 
ATOM     12  C   UNL     1      -2.065  -3.939   3.001  0.00  0.00    +0.019 A 
ATOM     13  C   UNL     1      -2.061  -5.066   3.787  0.00  0.00    +0.028 A 
ATOM     14  C   UNL     1      -1.666  -6.252   3.248  0.00  0.00    +0.079 A 
ATOM     15  S   UNL     1      -1.285  -5.796   1.565  0.00  0.00    -0.075 S 
ATOM     16 CL   UNL     1      -1.566  -7.812   4.003  0.00  0.00    -0.076 Cl
ENDBRANCH   9  11
ENDBRANCH   1   7
BRANCH   3  17
ATOM     17  C   UNL     1      -0.388  -0.805  -5.127  0.00  0.00    +0.096 C 
ATOM     18  C   UNL     1      -1.664  -0.870  -5.991  0.00  0.00    +0.024 C 
ATOM     19  C   UNL     1      -1.136  -1.064  -7.434  0.00  0.00    +0.004 C 
ATOM     20  C   UNL     1       0.070  -2.015  -7.232  0.00  0.00    +0.027 C 
ATOM     21  C   UNL     1       0.715  -1.533  -5.915  0.00  0.00    +0.108 C 
BRANCH  21  22
ATOM     22  N   UNL     1       1.206  -2.680  -5.148  0.00  0.00    -0.334 N 
ATOM     23  C   UNL     1       0.575  -3.884  -4.993  0.00  0.00    +0.105 A 
ATOM     24  C   UNL     1       1.371  -4.645  -4.218  0.00  0.00    +0.101 A 
ATOM     25  N   UNL     1       2.460  -3.925  -3.910  0.00  0.00    -0.352 N 
ATOM     26  C   UNL     1       2.371  -2.749  -4.467  0.00  0.00    +0.174 A 
ATOM     27  H   UNL     1       3.199  -4.232  -3.361  0.00  0.00    +0.166 HD
ENDBRANCH  21  22
ENDBRANCH   3  17
TORSDOF 4
