REMARK  Name = ZINC07094672
REMARK  8 active torsions:
REMARK  status: ('A' for Active; 'I' for Inactive)
REMARK    1  A    between atoms: C_1  and  C_2
REMARK    2  A    between atoms: C_4  and  N_25
REMARK    3  A    between atoms: C_6  and  S_8
REMARK    4  A    between atoms: S_8  and  C_9
REMARK    5  A    between atoms: C_9  and  C_10
REMARK    6  A    between atoms: N_12  and  C_13
REMARK    7  A    between atoms: C_13  and  C_15
REMARK    8  A    between atoms: C_13  and  C_16
REMARK                            x       y       z     vdW  Elec       q    Type
REMARK                         _______ _______ _______ _____ _____    ______ ____
ROOT
ATOM      1  C   UNL     1      -0.014   1.209   0.009  0.00  0.00    +0.224 C 
ATOM      2  O   UNL     1       0.002  -0.004   0.002  0.00  0.00    -0.275 OA
ATOM      3  N   UNL     1      -1.191   1.867   0.018  0.00  0.00    -0.305 N 
ATOM      4  H   UNL     1      -1.204   2.837   0.023  0.00  0.00    +0.149 HD
ENDROOT
BRANCH   3   5
ATOM      5  C   UNL     1      -2.449   1.117   0.020  0.00  0.00    +0.136 C 
ATOM      6  C   UNL     1      -2.830   0.756  -1.417  0.00  0.00    +0.036 C 
BRANCH   5   7
ATOM      7  C   UNL     1      -3.537   1.963   0.630  0.00  0.00    +0.126 A 
ATOM      8  C   UNL     1      -4.487   1.510   1.459  0.00  0.00    +0.055 A 
ATOM      9  C   UNL     1      -5.319   2.670   1.800  0.00  0.00    +0.020 A 
ATOM     10  C   UNL     1      -6.444   2.860   2.602  0.00  0.00    +0.011 A 
ATOM     11  C   UNL     1      -6.995   4.107   2.710  0.00  0.00    +0.001 A 
ATOM     12  C   UNL     1      -6.443   5.181   2.027  0.00  0.00    +0.004 A 
ATOM     13  C   UNL     1      -5.332   5.011   1.230  0.00  0.00    +0.047 A 
ATOM     14  C   UNL     1      -4.756   3.753   1.106  0.00  0.00    +0.135 A 
ATOM     15  O   UNL     1      -3.691   3.283   0.426  0.00  0.00    -0.458 OA
ENDBRANCH   5   7
ENDBRANCH   3   5
BRANCH   1  16
ATOM     16  C   UNL     1       1.280   1.980   0.001  0.00  0.00    +0.173 C 
BRANCH  16  17
ATOM     17  S   UNL     1       2.672   0.823  -0.019  0.00  0.00    -0.077 S 
BRANCH  17  23
ATOM     18  C   UNL     1       7.700   1.777  -0.061  0.00  0.00    +0.066 C 
ATOM     19  C   UNL     1       6.294   2.320  -0.046  0.00  0.00    +0.044 A 
ATOM     20  C   UNL     1       6.073   3.684  -0.036  0.00  0.00    +0.066 A 
ATOM     21  C   UNL     1       4.755   4.145  -0.021  0.00  0.00    +0.121 A 
ATOM     22  N   UNL     1       3.762   3.261  -0.022  0.00  0.00    -0.207 NA
ATOM     23  C   UNL     1       4.017   1.961  -0.026  0.00  0.00    +0.191 A 
ATOM     24  N   UNL     1       5.258   1.495  -0.040  0.00  0.00    -0.227 NA
BRANCH  21  25
ATOM     25  N   UNL     1       4.486   5.504  -0.012  0.00  0.00    -0.343 N 
ATOM     26  H   UNL     1       5.216   6.143  -0.015  0.00  0.00    +0.144 HD
ATOM     27  H   UNL     1       3.568   5.817  -0.001  0.00  0.00    +0.144 HD
ENDBRANCH  21  25
ENDBRANCH  17  23
ENDBRANCH  16  17
ENDBRANCH   1  16
TORSDOF 6
