REMARK  Name = ZINC16567813
REMARK  9 active torsions:
REMARK  status: ('A' for Active; 'I' for Inactive)
REMARK    1  A    between atoms: C_1  and  C_2
REMARK    2  A    between atoms: C_2  and  C_4
REMARK    3  A    between atoms: C_2  and  N_26
REMARK    4  A    between atoms: C_7  and  S_18
REMARK    5  A    between atoms: N_8  and  C_9
REMARK    6  A    between atoms: C_12  and  N_15
REMARK    7  A    between atoms: S_18  and  C_19
REMARK    8  A    between atoms: C_19  and  C_20
REMARK    9  A    between atoms: N_29  and  C_30
REMARK                            x       y       z     vdW  Elec       q    Type
REMARK                         _______ _______ _______ _____ _____    ______ ____
ROOT
ATOM      1  C   UNL     1       0.095   0.521  -7.118  0.00  0.00    +0.159 A 
ATOM      2  N   UNL     1       1.260  -0.055  -7.219  0.00  0.00    -0.131 NA
ATOM      3  N   UNL     1       1.808   0.249  -8.341  0.00  0.00    -0.122 NA
ATOM      4  C   UNL     1       1.022   1.052  -9.020  0.00  0.00    +0.196 A 
ATOM      5  N   UNL     1      -0.098   1.252  -8.261  0.00  0.00    -0.273 N 
ENDROOT
BRANCH   5   6
ATOM      6  C   UNL     1      -1.212   2.040  -8.585  0.00  0.00    +0.050 A 
ATOM      7  C   UNL     1      -2.452   1.446  -8.778  0.00  0.00    +0.028 A 
ATOM      8  C   UNL     1      -3.548   2.226  -9.092  0.00  0.00    +0.035 A 
ATOM      9  C   UNL     1      -3.409   3.596  -9.224  0.00  0.00    +0.126 A 
ATOM     10  C   UNL     1      -2.174   4.189  -9.037  0.00  0.00    +0.035 A 
ATOM     11  C   UNL     1      -1.075   3.415  -8.718  0.00  0.00    +0.028 A 
BRANCH   9  12
ATOM     12  N   UNL     1      -4.584   4.428  -9.567  0.00  0.00    +0.056 N 
ATOM     13  O   UNL     1      -4.463   5.634  -9.684  0.00  0.00    -0.126 OA
ATOM     14  O   UNL     1      -5.672   3.906  -9.731  0.00  0.00    -0.126 OA
ENDBRANCH   9  12
ENDBRANCH   5   6
BRANCH   1  16
ATOM     15  C   UNL     1      -1.547  -0.955  -5.990  0.00  0.00    +0.036 C 
ATOM     16  C   UNL     1      -0.859   0.411  -5.957  0.00  0.00    +0.140 C 
BRANCH  16  17
ATOM     17  N   UNL     1      -0.118   0.554  -4.701  0.00  0.00    -0.290 N 
ATOM     18  C   UNL     1      -0.749   0.989  -3.592  0.00  0.00    +0.300 C 
ATOM     19  O   UNL     1      -1.933   1.262  -3.634  0.00  0.00    -0.253 OA
ATOM     20  N   UNL     1      -0.067   1.120  -2.437  0.00  0.00    -0.297 N 
ATOM     21  H   UNL     1       0.827   0.336  -4.668  0.00  0.00    +0.151 HD
ATOM     22  H   UNL     1       0.878   0.902  -2.404  0.00  0.00    +0.151 HD
BRANCH  20  23
ATOM     23  C   UNL     1      -0.753   1.593  -1.232  0.00  0.00    +0.074 C 
ATOM     24  C   UNL     1      -0.013   1.086   0.008  0.00  0.00    +0.022 C 
ATOM     25  C   UNL     1      -0.729   1.579   1.267  0.00  0.00    +0.002 C 
ATOM     26  C   UNL     1      -0.750   3.109   1.275  0.00  0.00    +0.000 C 
ATOM     27  C   UNL     1      -1.490   3.616   0.036  0.00  0.00    +0.002 C 
ATOM     28  C   UNL     1      -0.773   3.123  -1.223  0.00  0.00    +0.022 C 
ENDBRANCH  20  23
ENDBRANCH  16  17
ENDBRANCH   1  16
BRANCH   4  29
ATOM     29  S   UNL     1       1.348   1.740 -10.609  0.00  0.00    -0.081 S 
BRANCH  29  30
ATOM     30  C   UNL     1       2.978   1.023 -10.934  0.00  0.00    +0.112 C 
BRANCH  30  31
ATOM     31  C   UNL     1       3.471   1.487 -12.280  0.00  0.00    -0.037 A 
ATOM     32  C   UNL     1       3.183   0.750 -13.414  0.00  0.00    +0.004 A 
ATOM     33  C   UNL     1       3.631   1.179 -14.649  0.00  0.00    +0.000 A 
ATOM     34  C   UNL     1       4.377   2.338 -14.750  0.00  0.00    +0.000 A 
ATOM     35  C   UNL     1       4.670   3.072 -13.616  0.00  0.00    +0.000 A 
ATOM     36  C   UNL     1       4.217   2.647 -12.381  0.00  0.00    +0.004 A 
ENDBRANCH  30  31
ENDBRANCH  29  30
ENDBRANCH   4  29
TORSDOF 8
