REMARK  Name = ZINC05752151
REMARK  8 active torsions:
REMARK  status: ('A' for Active; 'I' for Inactive)
REMARK    1  A    between atoms: C_1  and  C_2
REMARK    2  A    between atoms: C_6  and  N_9
REMARK    3  A    between atoms: C_7  and  C_8
REMARK    4  A    between atoms: N_9  and  C_10
REMARK    5  A    between atoms: C_11  and  C_12
REMARK    6  A    between atoms: C_11  and  C_14
REMARK    7  A    between atoms: C_16  and  C_19
REMARK    8  A    between atoms: C_23  and  N_25
REMARK                            x       y       z     vdW  Elec       q    Type
REMARK                         _______ _______ _______ _____ _____    ______ ____
ROOT
ATOM      1  C   UNL     1       1.820   9.646  -0.073  0.00  0.00    +0.093 C 
ATOM      2  C   UNL     1       2.077   8.283   0.217  0.00  0.00    +0.098 C 
ENDROOT
BRANCH   2   3
ATOM      3  C   UNL     1       1.049   7.465   0.699  0.00  0.00    +0.120 A 
ATOM      4  N   UNL     1       1.063   6.139   0.901  0.00  0.00    -0.238 NA
ATOM      5  C   UNL     1       0.017   5.524   1.357  0.00  0.00    +0.079 A 
ATOM      6  C   UNL     1      -1.177   6.351   1.631  0.00  0.00    +0.075 A 
ATOM      7  S   UNL     1      -0.602   7.930   1.193  0.00  0.00    -0.074 S 
BRANCH   5   8
ATOM      8  C   UNL     1       0.015   4.067   1.586  0.00  0.00    +0.003 A 
ATOM      9  C   UNL     1      -1.132   3.432   2.079  0.00  0.00    +0.010 A 
ATOM     10  C   UNL     1      -1.126   2.070   2.285  0.00  0.00    +0.003 A 
ATOM     11  C   UNL     1       0.014   1.330   2.016  0.00  0.00    +0.033 A 
ATOM     12  C   UNL     1       1.152   1.949   1.528  0.00  0.00    +0.127 A 
ATOM     13  C   UNL     1       1.161   3.310   1.311  0.00  0.00    +0.042 A 
BRANCH  12  14
ATOM     14  N   UNL     1       2.362   1.148   1.238  0.00  0.00    +0.056 N 
ATOM     15  O   UNL     1       2.356  -0.153   1.445  0.00  0.00    -0.126 OA
ATOM     16  O   UNL     1       3.446   1.735   0.773  0.00  0.00    -0.126 OA
ENDBRANCH  12  14
ENDBRANCH   5   8
ENDBRANCH   2   3
BRANCH   1  17
ATOM     17  N   UNL     1       0.573  10.108  -0.051  0.00  0.00    -0.319 N 
ATOM     18  H   UNL     1      -0.266   9.418   0.123  0.00  0.00    +0.152 HD
BRANCH  17  24
ATOM     19  C   UNL     1      -2.633  13.784  -0.620  0.00  0.00    +0.044 C 
ATOM     20  C   UNL     1      -1.217  13.275  -0.530  0.00  0.00    -0.046 A 
ATOM     21  C   UNL     1      -0.157  14.158  -0.645  0.00  0.00    +0.004 A 
ATOM     22  C   UNL     1       1.145  13.696  -0.564  0.00  0.00    +0.002 A 
ATOM     23  C   UNL     1       1.392  12.354  -0.361  0.00  0.00    +0.023 A 
ATOM     24  C   UNL     1       0.329  11.461  -0.250  0.00  0.00    +0.034 A 
ATOM     25  C   UNL     1      -0.980  11.931  -0.333  0.00  0.00    -0.026 A 
ATOM     26  C   UNL     1      -2.135  10.971  -0.207  0.00  0.00    +0.046 C 
ENDBRANCH  17  24
ENDBRANCH   1  17
BRANCH   2  27
ATOM     27  C   UNL     1       3.388   7.743   0.018  0.00  0.00    +0.103 C 
ATOM     28  N   UNL     1       4.428   7.314  -0.140  0.00  0.00    -0.191 NA
ENDBRANCH   2  27
TORSDOF 6
