REMARK  Name = ZINC40175191
REMARK  8 active torsions:
REMARK  status: ('A' for Active; 'I' for Inactive)
REMARK    1  A    between atoms: C_1  and  C_2
REMARK    2  A    between atoms: N_6  and  C_19
REMARK    3  A    between atoms: C_9  and  C_18
REMARK    4  A    between atoms: N_11  and  C_12
REMARK    5  A    between atoms: C_19  and  C_21
REMARK    6  A    between atoms: C_19  and  C_22
REMARK    7  A    between atoms: N_24  and  C_25
REMARK    8  A    between atoms: C_26  and  C_34
REMARK                            x       y       z     vdW  Elec       q    Type
REMARK                         _______ _______ _______ _____ _____    ______ ____
ROOT
ATOM      1  C   UNL     1      -0.576  -4.231  -0.065  0.00  0.00    +0.175 C 
ATOM      2  C   UNL     1      -2.007  -4.653  -0.404  0.00  0.00    +0.041 C 
ENDROOT
BRANCH   1   8
ATOM      3  C   UNL     1      -0.271   1.509   0.006  0.00  0.00    +0.045 C 
ATOM      4  C   UNL     1      -0.349   0.004  -0.009  0.00  0.00    -0.033 A 
ATOM      5  C   UNL     1      -0.848  -0.649  -1.091  0.00  0.00    +0.074 A 
ATOM      6  C   UNL     1      -0.917  -2.054  -1.094  0.00  0.00    +0.254 A 
ATOM      7  O   UNL     1      -1.366  -2.633  -2.070  0.00  0.00    -0.268 OA
ATOM      8  N   UNL     1      -0.493  -2.768  -0.035  0.00  0.00    -0.281 N 
ATOM      9  C   UNL     1       0.015  -2.140   1.070  0.00  0.00    +0.148 A 
ATOM     10  C   UNL     1       0.101  -0.747   1.101  0.00  0.00    +0.043 A 
ATOM     11  C   UNL     1       0.664  -0.393   2.350  0.00  0.00    +0.070 A 
ATOM     12  N   UNL     1       0.903  -1.487   3.016  0.00  0.00    -0.169 NA
ATOM     13  N   UNL     1       0.504  -2.592   2.254  0.00  0.00    -0.215 N 
ATOM     14  C   UNL     1       0.940   1.010   2.828  0.00  0.00    +0.068 C 
BRANCH  13  15
ATOM     15  C   UNL     1       0.607  -3.935   2.641  0.00  0.00    +0.068 A 
ATOM     16  C   UNL     1       1.333  -4.829   1.865  0.00  0.00    +0.028 A 
ATOM     17  C   UNL     1       1.432  -6.152   2.249  0.00  0.00    +0.002 A 
ATOM     18  C   UNL     1       0.808  -6.587   3.405  0.00  0.00    +0.000 A 
ATOM     19  C   UNL     1       0.085  -5.699   4.179  0.00  0.00    +0.002 A 
ATOM     20  C   UNL     1      -0.013  -4.373   3.804  0.00  0.00    +0.028 A 
ENDBRANCH  13  15
ENDBRANCH   1   8
BRANCH   1  21
ATOM     21  C   UNL     1       0.367  -4.766  -1.111  0.00  0.00    +0.240 C 
ATOM     22  O   UNL     1       1.042  -4.001  -1.767  0.00  0.00    -0.273 OA
ATOM     23  N   UNL     1       0.461  -6.095  -1.317  0.00  0.00    -0.278 N 
ATOM     24  H   UNL     1      -0.079  -6.706  -0.793  0.00  0.00    +0.155 HD
BRANCH  23  25
ATOM     25  C   UNL     1       1.329  -6.587  -2.280  0.00  0.00    +0.084 A 
ATOM     26  C   UNL     1       1.550  -7.910  -2.631  0.00  0.00    +0.068 A 
ATOM     27  C   UNL     1       2.521  -8.164  -3.681  0.00  0.00    -0.023 A 
ATOM     28  C   UNL     1       3.092  -7.050  -4.188  0.00  0.00    -0.004 A 
ATOM     29  S   UNL     1       2.347  -5.718  -3.294  0.00  0.00    -0.077 S 
ATOM     30  C   UNL     1       4.123  -6.981  -5.271  0.00  0.00    +0.043 C 
ATOM     31  C   UNL     1       4.715  -8.385  -5.464  0.00  0.00    +0.005 C 
ATOM     32  C   UNL     1       3.569  -9.397  -5.560  0.00  0.00    +0.005 C 
ATOM     33  C   UNL     1       2.891  -9.547  -4.197  0.00  0.00    +0.037 C 
BRANCH  26  34
ATOM     34  C   UNL     1       0.835  -9.005  -1.969  0.00  0.00    +0.244 C 
ATOM     35  O   UNL     1      -0.227  -9.397  -2.417  0.00  0.00    -0.270 OA
ATOM     36  N   UNL     1       1.354  -9.579  -0.865  0.00  0.00    -0.325 N 
ATOM     37  H   UNL     1       2.200  -9.267  -0.509  0.00  0.00    +0.145 HD
ATOM     38  H   UNL     1       0.881 -10.304  -0.427  0.00  0.00    +0.145 HD
ENDBRANCH  26  34
ENDBRANCH  23  25
ENDBRANCH   1  21
TORSDOF 5
