REMARK  Name = ZINC18599746
REMARK  6 active torsions:
REMARK  status: ('A' for Active; 'I' for Inactive)
REMARK    1  A    between atoms: C_1  and  C_2
REMARK    2  A    between atoms: C_2  and  C_4
REMARK    3  A    between atoms: C_2  and  S_15
REMARK    4  A    between atoms: N_9  and  C_10
REMARK    5  A    between atoms: S_15  and  C_16
REMARK    6  A    between atoms: C_22  and  C_27
REMARK                            x       y       z     vdW  Elec       q    Type
REMARK                         _______ _______ _______ _____ _____    ______ ____
ROOT
ATOM      1  C   UNL     1      -3.072   1.788  -0.131  0.00  0.00    +0.171 A 
ATOM      2  N   UNL     1      -4.371   1.587  -0.498  0.00  0.00    -0.301 N 
ATOM      3  H   UNL     1      -4.925   0.985   0.024  0.00  0.00    +0.171 HD
ATOM      4  C   UNL     1      -4.899   2.213  -1.565  0.00  0.00    +0.261 A 
ATOM      5  O   UNL     1      -6.063   2.026  -1.877  0.00  0.00    -0.267 OA
ATOM      6  C   UNL     1      -4.077   3.093  -2.334  0.00  0.00    +0.080 A 
ATOM      7  C   UNL     1      -4.418   3.870  -3.522  0.00  0.00    +0.004 A 
ATOM      8  C   UNL     1      -3.465   4.646  -4.088  0.00  0.00    +0.056 A 
ATOM      9  S   UNL     1      -2.041   4.376  -3.050  0.00  0.00    -0.076 S 
ATOM     10  C   UNL     1      -2.751   3.238  -1.890  0.00  0.00    +0.117 A 
ATOM     11  N   UNL     1      -2.292   2.595  -0.822  0.00  0.00    -0.216 NA
ENDROOT
BRANCH   7  12
ATOM     12  C   UNL     1      -5.783   3.810  -4.097  0.00  0.00    -0.016 A 
ATOM     13  C   UNL     1      -6.379   2.577  -4.355  0.00  0.00    +0.011 A 
ATOM     14  C   UNL     1      -7.652   2.526  -4.885  0.00  0.00    +0.039 A 
ATOM     15  C   UNL     1      -8.333   3.698  -5.172  0.00  0.00    +0.123 A 
ATOM     16  C   UNL     1      -7.742   4.926  -4.923  0.00  0.00    +0.039 A 
ATOM     17  C   UNL     1      -6.472   4.987  -4.387  0.00  0.00    +0.011 A 
ATOM     18  F   UNL     1      -9.576   3.643  -5.697  0.00  0.00    -0.205 F 
ENDBRANCH   7  12
BRANCH   1  19
ATOM     19  S   UNL     1      -2.427   0.953   1.280  0.00  0.00    -0.075 S 
BRANCH  19  21
ATOM     20  C   UNL     1      -0.013   1.086   0.008  0.00  0.00    +0.029 C 
ATOM     21  C   UNL     1      -0.729   1.579   1.267  0.00  0.00    +0.137 C 
BRANCH  21  22
ATOM     22  C   UNL     1       0.000   1.080   2.488  0.00  0.00    +0.233 C 
ATOM     23  O   UNL     1      -0.360   0.059   3.034  0.00  0.00    -0.274 OA
ATOM     24  N   UNL     1       1.052   1.768   2.973  0.00  0.00    -0.239 N 
ATOM     25  C   UNL     1       1.704   1.322   4.065  0.00  0.00    +0.306 C 
ATOM     26  O   UNL     1       1.343   0.299   4.612  0.00  0.00    -0.252 OA
ATOM     27  N   UNL     1       2.756   2.010   4.550  0.00  0.00    -0.296 N 
ATOM     28  H   UNL     1       1.340   2.585   2.536  0.00  0.00    +0.159 HD
ATOM     29  H   UNL     1       3.044   2.827   4.113  0.00  0.00    +0.151 HD
BRANCH  27  30
ATOM     30  C   UNL     1       3.465   1.525   5.737  0.00  0.00    +0.074 C 
ATOM     31  C   UNL     1       2.795   2.074   7.013  0.00  0.00    +0.022 C 
ATOM     32  C   UNL     1       3.978   2.357   7.972  0.00  0.00    +0.002 C 
ATOM     33  C   UNL     1       5.069   2.900   7.017  0.00  0.00    +0.002 C 
ATOM     34  C   UNL     1       4.911   2.051   5.739  0.00  0.00    +0.022 C 
ENDBRANCH  27  30
ENDBRANCH  21  22
ENDBRANCH  19  21
ENDBRANCH   1  19
TORSDOF 5
