REMARK  Name = ZINC66396691
REMARK  15 active torsions:
REMARK  status: ('A' for Active; 'I' for Inactive)
REMARK    1  A    between atoms: C_1  and  C_2
REMARK    2  A    between atoms: C_2  and  C_3
REMARK    3  A    between atoms: C_2  and  C_4
REMARK    4  A    between atoms: C_2  and  C_5
REMARK    5  A    between atoms: C_8  and  C_11
REMARK    6  A    between atoms: C_11  and  C_13
REMARK    7  A    between atoms: C_11  and  N_15
REMARK    8  A    between atoms: C_16  and  C_18
REMARK    9  A    between atoms: C_18  and  C_19
REMARK   10  A    between atoms: C_19  and  C_20
REMARK   11  A    between atoms: C_20  and  C_21
REMARK   12  A    between atoms: C_23  and  C_26
REMARK   13  A    between atoms: C_26  and  C_27
REMARK   14  A    between atoms: C_26  and  C_28
REMARK   15  A    between atoms: C_26  and  C_29
REMARK                            x       y       z     vdW  Elec       q    Type
REMARK                         _______ _______ _______ _____ _____    ______ ____
ROOT
ATOM      1  N   UNL     1       3.548  -0.795  -5.289  0.00  0.00    -0.296 N 
ATOM      2  C   UNL     1       3.868  -0.781  -6.598  0.00  0.00    +0.214 C 
ATOM      3  O   UNL     1       3.460  -1.656  -7.332  0.00  0.00    -0.276 OA
ATOM      4  H   UNL     1       3.874  -0.095  -4.702  0.00  0.00    +0.150 HD
ENDROOT
BRANCH   1   5
ATOM      5  C   UNL     1       2.707  -1.868  -4.752  0.00  0.00    +0.207 C 
BRANCH   5   9
ATOM      6  C   UNL     1       0.707  -0.490  -1.238  0.00  0.00    -0.042 A 
ATOM      7  C   UNL     1       0.036  -1.284  -2.148  0.00  0.00    +0.004 A 
ATOM      8  C   UNL     1       0.683  -1.730  -3.286  0.00  0.00    +0.007 A 
ATOM      9  C   UNL     1       2.001  -1.381  -3.513  0.00  0.00    -0.013 A 
ATOM     10  C   UNL     1       2.672  -0.586  -2.603  0.00  0.00    +0.007 A 
ATOM     11  C   UNL     1       2.024  -0.137  -1.467  0.00  0.00    +0.004 A 
BRANCH   6  13
ATOM     12  C   UNL     1      -0.019   1.526   0.010  0.00  0.00    +0.015 C 
ATOM     13  C   UNL     1       0.002  -0.004   0.002  0.00  0.00    -0.013 C 
ATOM     14  C   UNL     1       0.742  -0.511   1.242  0.00  0.00    +0.015 C 
ATOM     15  C   UNL     1      -1.433  -0.534   0.013  0.00  0.00    +0.015 C 
ENDBRANCH   6  13
ENDBRANCH   5   9
BRANCH   5  16
ATOM     16  C   UNL     1       3.548  -3.028  -4.414  0.00  0.00    +0.090 C 
ATOM     17  N   UNL     1       4.197  -3.923  -4.154  0.00  0.00    -0.194 NA
ENDBRANCH   5  16
ENDBRANCH   1   5
BRANCH   2  18
ATOM     18  C   UNL     1       4.733   0.323  -7.150  0.00  0.00    +0.096 C 
BRANCH  18  19
ATOM     19  C   UNL     1       4.943   0.104  -8.649  0.00  0.00    +0.019 C 
BRANCH  19  20
ATOM     20  C   UNL     1       5.821   1.225  -9.210  0.00  0.00    +0.099 C 
BRANCH  20  21
ATOM     21  C   UNL     1       6.029   1.010 -10.687  0.00  0.00    +0.227 A 
ATOM     22  N   UNL     1       5.274   1.479 -11.641  0.00  0.00    -0.196 NA
ATOM     23  C   UNL     1       5.747   1.095 -12.832  0.00  0.00    +0.177 A 
ATOM     24  N   UNL     1       6.816   0.374 -12.649  0.00  0.00    -0.061 NA
ATOM     25  O   UNL     1       7.024   0.309 -11.246  0.00  0.00    -0.338 OA
BRANCH  23  26
ATOM     26  C   UNL     1       5.143   1.442 -14.168  0.00  0.00    +0.025 C 
ATOM     27  C   UNL     1       5.122   2.962 -14.340  0.00  0.00    +0.019 C 
ATOM     28  C   UNL     1       5.980   0.814 -15.285  0.00  0.00    +0.019 C 
ATOM     29  C   UNL     1       3.713   0.901 -14.237  0.00  0.00    +0.019 C 
ENDBRANCH  23  26
ENDBRANCH  20  21
ENDBRANCH  19  20
ENDBRANCH  18  19
ENDBRANCH   2  18
TORSDOF 9
