REMARK  Name = ZINC07884877
REMARK  5 active torsions:
REMARK  status: ('A' for Active; 'I' for Inactive)
REMARK    1  A    between atoms: C_1  and  C_2
REMARK    2  A    between atoms: C_5  and  C_7
REMARK    3  A    between atoms: N_18  and  C_19
REMARK    4  A    between atoms: C_24  and  O_25
REMARK    5  A    between atoms: O_25  and  C_26
REMARK                            x       y       z     vdW  Elec       q    Type
REMARK                         _______ _______ _______ _____ _____    ______ ____
ROOT
ATOM      1  C   UNL     1      -1.178   3.391  -0.130  0.00  0.00    +0.234 C 
ATOM      2  N   UNL     1       0.026   4.009   0.438  0.00  0.00    -0.319 N 
ATOM      3  C   UNL     1       1.261   3.420   0.190  0.00  0.00    +0.041 A 
ATOM      4  C   UNL     1       2.429   4.163   0.161  0.00  0.00    +0.024 A 
ATOM      5  C   UNL     1       3.635   3.532  -0.076  0.00  0.00    +0.002 A 
ATOM      6  C   UNL     1       3.685   2.163  -0.285  0.00  0.00    +0.001 A 
ATOM      7  C   UNL     1       2.530   1.409  -0.264  0.00  0.00    +0.015 A 
ATOM      8  C   UNL     1       1.306   2.033  -0.029  0.00  0.00    +0.058 A 
ATOM      9  C   UNL     1       0.044   1.273  -0.005  0.00  0.00    +0.255 C 
ATOM     10  O   UNL     1       0.059   0.057  -0.020  0.00  0.00    -0.270 OA
ATOM     11  N   UNL     1      -1.128   1.938   0.027  0.00  0.00    -0.238 N 
ATOM     12  H   UNL     1      -0.039   4.813   0.977  0.00  0.00    +0.148 HD
ENDROOT
BRANCH   1  17
ATOM     13  C   UNL     1       0.043   3.818  -5.005  0.00  0.00    +0.086 C 
ATOM     14  C   UNL     1      -0.734   3.909  -3.717  0.00  0.00    +0.102 A 
ATOM     15  C   UNL     1      -1.966   4.431  -3.577  0.00  0.00    +0.045 A 
ATOM     16  C   UNL     1      -2.310   4.306  -2.211  0.00  0.00    +0.048 A 
ATOM     17  C   UNL     1      -1.265   3.723  -1.597  0.00  0.00    +0.144 A 
ATOM     18  O   UNL     1      -0.315   3.482  -2.514  0.00  0.00    -0.461 OA
ENDBRANCH   1  17
BRANCH  11  19
ATOM     19  C   UNL     1      -2.319   1.226   0.219  0.00  0.00    +0.080 A 
ATOM     20  C   UNL     1      -2.853   1.094   1.492  0.00  0.00    +0.027 A 
ATOM     21  C   UNL     1      -4.031   0.395   1.678  0.00  0.00    +0.002 A 
ATOM     22  C   UNL     1      -4.673  -0.183   0.599  0.00  0.00    +0.004 A 
ATOM     23  C   UNL     1      -4.144  -0.060  -0.672  0.00  0.00    +0.047 A 
ATOM     24  C   UNL     1      -2.967   0.643  -0.868  0.00  0.00    +0.141 A 
BRANCH  24  25
ATOM     25  O   UNL     1      -2.445   0.765  -2.118  0.00  0.00    -0.493 OA
ATOM     26  C   UNL     1      -3.098   0.046  -3.166  0.00  0.00    +0.277 C 
ENDBRANCH  24  25
ENDBRANCH  11  19
TORSDOF 3
