REMARK  Name = ZINC15605740
REMARK  7 active torsions:
REMARK  status: ('A' for Active; 'I' for Inactive)
REMARK    1  A    between atoms: C_1  and  C_2
REMARK    2  A    between atoms: C_2  and  C_3
REMARK    3  A    between atoms: C_3  and  C_4
REMARK    4  A    between atoms: C_4  and  C_5
REMARK    5  A    between atoms: C_11  and  C_13
REMARK    6  A    between atoms: N_18  and  S_20
REMARK    7  A    between atoms: S_20  and  C_23
REMARK                            x       y       z     vdW  Elec       q    Type
REMARK                         _______ _______ _______ _____ _____    ______ ____
ROOT
ATOM      1  C   UNL     1       0.506  -4.392  -0.027  0.00  0.00    +0.091 C 
ATOM      2  C   UNL     1       1.303  -4.798   1.214  0.00  0.00    +0.015 C 
ATOM      3  C   UNL     1       1.558  -6.307   1.188  0.00  0.00    +0.018 C 
ATOM      4  C   UNL     1       0.217  -7.047   1.211  0.00  0.00    +0.109 C 
ATOM      5  N   UNL     1      -0.614  -6.556   0.103  0.00  0.00    -0.176 NA
ATOM      6  C   UNL     1      -0.847  -5.110  -0.018  0.00  0.00    +0.122 C 
ENDROOT
BRANCH   1  13
ATOM      7  C   UNL     1       1.110   1.945   0.002  0.00  0.00    +0.104 A 
ATOM      8  N   UNL     1      -0.015   1.258   0.009  0.00  0.00    -0.145 NA
ATOM      9  N   UNL     1       0.002  -0.004   0.002  0.00  0.00    -0.126 NA
ATOM     10  C   UNL     1       1.134  -0.687  -0.013  0.00  0.00    +0.188 A 
ATOM     11  S   UNL     1       2.296   0.607  -0.017  0.00  0.00    -0.035 S 
ATOM     12  N   UNL     1       1.339  -2.063  -0.022  0.00  0.00    -0.263 N 
ATOM     13  C   UNL     1       0.284  -2.901  -0.017  0.00  0.00    +0.223 C 
ATOM     14  O   UNL     1      -0.845  -2.456  -0.003  0.00  0.00    -0.275 OA
ATOM     15  H   UNL     1       2.241  -2.419  -0.033  0.00  0.00    +0.157 HD
BRANCH   7  16
ATOM     16  C   UNL     1       1.333   3.436   0.008  0.00  0.00    +0.065 C 
BRANCH  16  17
ATOM     17  C   UNL     1       1.423   3.932   1.452  0.00  0.00    +0.006 C 
BRANCH  17  19
ATOM     18  C   UNL     1       1.739   5.942   2.902  0.00  0.00    +0.004 C 
ATOM     19  C   UNL     1       1.649   5.445   1.458  0.00  0.00    -0.003 C 
ENDBRANCH  17  19
ENDBRANCH  16  17
ENDBRANCH   7  16
ENDBRANCH   1  13
BRANCH   5  20
ATOM     20  S   UNL     1      -1.274  -7.611  -0.989  0.00  0.00    +0.061 S 
ATOM     21  O   UNL     1      -1.361  -8.870  -0.336  0.00  0.00    -0.153 OA
ATOM     22  O   UNL     1      -2.409  -6.962  -1.546  0.00  0.00    -0.153 OA
BRANCH  20  23
ATOM     23  C   UNL     1      -0.110  -7.803  -2.298  0.00  0.00    +0.106 A 
ATOM     24  C   UNL     1      -0.161  -6.964  -3.396  0.00  0.00    +0.031 A 
ATOM     25  C   UNL     1       0.755  -7.110  -4.420  0.00  0.00    +0.040 A 
ATOM     26  C   UNL     1       1.717  -8.104  -4.352  0.00  0.00    +0.124 A 
ATOM     27  C   UNL     1       1.763  -8.947  -3.255  0.00  0.00    +0.040 A 
ATOM     28  C   UNL     1       0.850  -8.795  -2.229  0.00  0.00    +0.031 A 
ATOM     29  F   UNL     1       2.609  -8.251  -5.356  0.00  0.00    -0.205 F 
ENDBRANCH  20  23
ENDBRANCH   5  20
TORSDOF 6
