REMARK  Name = ZINC13149680
REMARK  10 active torsions:
REMARK  status: ('A' for Active; 'I' for Inactive)
REMARK    1  A    between atoms: C_1  and  C_2
REMARK    2  A    between atoms: C_3  and  N_15
REMARK    3  A    between atoms: N_6  and  C_9
REMARK    4  A    between atoms: N_7  and  C_8
REMARK    5  A    between atoms: C_16  and  C_18
REMARK    6  A    between atoms: C_18  and  C_20
REMARK    7  A    between atoms: C_18  and  O_21
REMARK    8  A    between atoms: O_21  and  C_22
REMARK    9  A    between atoms: C_22  and  C_24
REMARK   10  A    between atoms: C_27  and  C_30
REMARK                            x       y       z     vdW  Elec       q    Type
REMARK                         _______ _______ _______ _____ _____    ______ ____
ROOT
ATOM      1  N   UNL     1      -2.435   1.638  -0.176  0.00  0.00    -0.277 N 
ATOM      2  C   UNL     1      -2.563   0.296  -0.182  0.00  0.00    +0.258 C 
ATOM      3  O   UNL     1      -1.574  -0.407  -0.196  0.00  0.00    -0.271 OA
ATOM      4  H   UNL     1      -3.223   2.200  -0.237  0.00  0.00    +0.155 HD
ENDROOT
BRANCH   1   7
ATOM      5  C   UNL     1      -1.223   3.527  -2.268  0.00  0.00    +0.067 C 
ATOM      6  C   UNL     1      -0.591   3.059  -0.983  0.00  0.00    +0.059 A 
ATOM      7  C   UNL     1      -1.157   2.224  -0.083  0.00  0.00    +0.121 A 
ATOM      8  C   UNL     1      -0.197   2.045   1.007  0.00  0.00    +0.293 A 
ATOM      9  O   UNL     1      -0.351   1.363   2.004  0.00  0.00    -0.264 OA
ATOM     10  N   UNL     1       0.893   2.775   0.694  0.00  0.00    -0.216 N 
ATOM     11  N   UNL     1       0.657   3.404  -0.534  0.00  0.00    -0.282 N 
ATOM     12  C   UNL     1       1.594   4.290  -1.228  0.00  0.00    +0.171 C 
BRANCH  10  13
ATOM     13  C   UNL     1       2.057   2.884   1.462  0.00  0.00    +0.067 A 
ATOM     14  C   UNL     1       3.301   2.865   0.846  0.00  0.00    +0.028 A 
ATOM     15  C   UNL     1       4.448   2.978   1.607  0.00  0.00    +0.002 A 
ATOM     16  C   UNL     1       4.359   3.099   2.982  0.00  0.00    +0.000 A 
ATOM     17  C   UNL     1       3.121   3.113   3.598  0.00  0.00    +0.002 A 
ATOM     18  C   UNL     1       1.970   3.006   2.843  0.00  0.00    +0.028 A 
ENDBRANCH  10  13
ENDBRANCH   1   7
BRANCH   2  19
ATOM     19  C   UNL     1      -3.933  -0.330  -0.171  0.00  0.00    +0.259 C 
ATOM     20  C   UNL     1      -4.664   0.018  -1.469  0.00  0.00    +0.062 C 
BRANCH  19  21
ATOM     21  O   UNL     1      -3.805  -1.772  -0.060  0.00  0.00    -0.449 OA
BRANCH  21  22
ATOM     22  C   UNL     1      -4.801  -2.429   0.565  0.00  0.00    +0.340 C 
ATOM     23  O   UNL     1      -5.752  -1.813   1.006  0.00  0.00    -0.245 OA
BRANCH  22  24
ATOM     24  C   UNL     1      -4.739  -3.897   0.715  0.00  0.00    +0.059 A 
ATOM     25  C   UNL     1      -3.651  -4.608   0.205  0.00  0.00    +0.015 A 
ATOM     26  C   UNL     1      -3.597  -5.979   0.352  0.00  0.00    +0.005 A 
ATOM     27  C   UNL     1      -4.622  -6.650   0.995  0.00  0.00    -0.044 A 
ATOM     28  C   UNL     1      -5.706  -5.952   1.499  0.00  0.00    +0.005 A 
ATOM     29  C   UNL     1      -5.770  -4.580   1.363  0.00  0.00    +0.015 A 
BRANCH  27  30
ATOM     30  C   UNL     1      -4.559  -8.148   1.147  0.00  0.00    +0.019 C 
ATOM     31  C   UNL     1      -3.309  -8.527   1.945  0.00  0.00    +0.008 C 
ATOM     32  C   UNL     1      -3.244 -10.047   2.099  0.00  0.00    +0.001 C 
ATOM     33  C   UNL     1      -3.184 -10.699   0.716  0.00  0.00    +0.000 C 
ATOM     34  C   UNL     1      -4.434 -10.320  -0.081  0.00  0.00    +0.001 C 
ATOM     35  C   UNL     1      -4.498  -8.799  -0.236  0.00  0.00    +0.008 C 
ENDBRANCH  27  30
ENDBRANCH  22  24
ENDBRANCH  21  22
ENDBRANCH  19  21
ENDBRANCH   2  19
TORSDOF 7
