REMARK  Name = ZINC49449172
REMARK  4 active torsions:
REMARK  status: ('A' for Active; 'I' for Inactive)
REMARK    1  A    between atoms: C_1  and  S_2
REMARK    2  A    between atoms: S_2  and  C_3
REMARK    3  A    between atoms: C_6  and  C_9
REMARK    4  A    between atoms: C_15  and  C_17
REMARK                            x       y       z     vdW  Elec       q    Type
REMARK                         _______ _______ _______ _____ _____    ______ ____
ROOT
ATOM      1  C   UNL     1       2.885  -1.389  -5.078  0.00  0.00    +0.252 C 
ATOM      2  O   UNL     1       3.293  -0.505  -5.806  0.00  0.00    -0.270 OA
ATOM      3  N   UNL     1       3.080  -2.681  -5.411  0.00  0.00    -0.234 N 
ATOM      4  C   UNL     1       3.746  -3.001  -6.584  0.00  0.00    +0.315 A 
ATOM      5  N   UNL     1       4.239  -2.152  -7.452  0.00  0.00    -0.092 NA
ATOM      6  N   UNL     1       4.788  -2.797  -8.419  0.00  0.00    -0.106 NA
ATOM      7  C   UNL     1       4.667  -4.086  -8.207  0.00  0.00    +0.251 A 
ATOM      8  O   UNL     1       4.009  -4.241  -7.038  0.00  0.00    -0.405 OA
ATOM      9  H   UNL     1       2.755  -3.386  -4.830  0.00  0.00    +0.160 HD
ENDROOT
BRANCH   1  13
ATOM     10  C   UNL     1       0.848  -0.411  -1.489  0.00  0.00    +0.008 A 
ATOM     11  C   UNL     1       1.315   0.604  -2.322  0.00  0.00    +0.015 A 
ATOM     12  C   UNL     1       1.974   0.290  -3.483  0.00  0.00    +0.014 A 
ATOM     13  C   UNL     1       2.177  -1.049  -3.830  0.00  0.00    +0.037 A 
ATOM     14  C   UNL     1       1.708  -2.065  -2.991  0.00  0.00    +0.014 A 
ATOM     15  C   UNL     1       1.055  -1.746  -1.829  0.00  0.00    +0.015 A 
BRANCH  10  17
ATOM     16  C   UNL     1      -0.022   1.810   0.012  0.00  0.00    +0.090 C 
ATOM     17  S   UNL     1       0.002  -0.004   0.002  0.00  0.00    -0.129 S 
ENDBRANCH  10  17
ENDBRANCH   1  13
BRANCH   7  18
ATOM     18  C   UNL     1       5.164  -5.167  -9.082  0.00  0.00    +0.046 A 
ATOM     19  C   UNL     1       5.842  -4.875 -10.264  0.00  0.00    +0.021 A 
ATOM     20  C   UNL     1       6.281  -5.892 -11.037  0.00  0.00    +0.046 A 
ATOM     21  S   UNL     1       5.750  -7.326 -10.118  0.00  0.00    -0.104 S 
ATOM     22  C   UNL     1       4.975  -6.482  -8.749  0.00  0.00    +0.058 A 
ENDBRANCH   7  18
TORSDOF 3
