REMARK  Name = ZINC12608865
REMARK  7 active torsions:
REMARK  status: ('A' for Active; 'I' for Inactive)
REMARK    1  A    between atoms: C_1  and  N_2
REMARK    2  A    between atoms: C_3  and  C_5
REMARK    3  A    between atoms: C_8  and  N_11
REMARK    4  A    between atoms: N_11  and  C_12
REMARK    5  A    between atoms: C_12  and  C_13
REMARK    6  A    between atoms: C_16  and  C_30
REMARK    7  A    between atoms: C_19  and  C_21
REMARK                            x       y       z     vdW  Elec       q    Type
REMARK                         _______ _______ _______ _____ _____    ______ ____
ROOT
ATOM      1  C   UNL     1      -7.424  -3.247   0.015  0.00  0.00    +0.252 C 
ATOM      2  O   UNL     1      -8.357  -2.471   0.024  0.00  0.00    -0.272 OA
ATOM      3  N   UNL     1      -7.652  -4.575   0.008  0.00  0.00    -0.181 N 
ATOM      4  C   UNL     1      -8.977  -5.216   0.016  0.00  0.00    +0.173 C 
ATOM      5  C   UNL     1      -8.652  -6.723   0.001  0.00  0.00    +0.093 C 
ATOM      6  C   UNL     1      -7.141  -6.769  -0.006  0.00  0.00    +0.104 C 
ATOM      7  N   UNL     1      -6.673  -5.566  -0.002  0.00  0.00    -0.178 NA
ENDROOT
BRANCH   6   8
ATOM      8  C   UNL     1      -6.331  -7.992  -0.016  0.00  0.00    +0.152 A 
ATOM      9  C   UNL     1      -4.972  -8.031  -0.027  0.00  0.00    +0.059 A 
ATOM     10  C   UNL     1      -4.608  -9.448  -0.032  0.00  0.00    +0.021 A 
ATOM     11  C   UNL     1      -3.396 -10.141  -0.041  0.00  0.00    +0.011 A 
ATOM     12  C   UNL     1      -3.397 -11.508  -0.049  0.00  0.00    +0.001 A 
ATOM     13  C   UNL     1      -4.594 -12.210  -0.048  0.00  0.00    +0.004 A 
ATOM     14  C   UNL     1      -5.801 -11.544  -0.038  0.00  0.00    +0.047 A 
ATOM     15  C   UNL     1      -5.825 -10.155  -0.030  0.00  0.00    +0.136 A 
ATOM     16  O   UNL     1      -6.823  -9.248  -0.021  0.00  0.00    -0.454 OA
ENDBRANCH   6   8
BRANCH   4  17
ATOM     17  C   UNL     1      -9.759  -4.832  -1.214  0.00  0.00    +0.128 A 
ATOM     18  C   UNL     1     -11.078  -4.575  -1.259  0.00  0.00    +0.046 A 
ATOM     19  C   UNL     1     -11.388  -4.258  -2.602  0.00  0.00    +0.041 A 
ATOM     20  C   UNL     1     -10.240  -4.341  -3.297  0.00  0.00    +0.195 A 
ATOM     21  O   UNL     1      -9.255  -4.684  -2.450  0.00  0.00    -0.466 OA
ENDBRANCH   4  17
BRANCH   1  22
ATOM     22  C   UNL     1      -6.010  -2.725   0.012  0.00  0.00    +0.199 C 
BRANCH  22  23
ATOM     23  N   UNL     1      -6.030  -1.261   0.021  0.00  0.00    -0.335 N 
ATOM     24  H   UNL     1      -6.877  -0.787   0.028  0.00  0.00    +0.147 HD
BRANCH  23  28
ATOM     25  C   UNL     1      -2.455   0.869   0.018  0.00  0.00    +0.037 A 
ATOM     26  C   UNL     1      -2.438  -0.529   0.005  0.00  0.00    +0.015 A 
ATOM     27  C   UNL     1      -3.621  -1.230   0.011  0.00  0.00    +0.023 A 
ATOM     28  C   UNL     1      -4.836  -0.549   0.021  0.00  0.00    +0.028 A 
ATOM     29  C   UNL     1      -4.856   0.843   0.029  0.00  0.00    +0.023 A 
ATOM     30  C   UNL     1      -3.676   1.550   0.028  0.00  0.00    +0.015 A 
BRANCH  25  33
ATOM     31  C   UNL     1       1.248   1.716  -0.001  0.00  0.00    +0.128 C 
ATOM     32  N   UNL     1      -0.011   0.966   0.007  0.00  0.00    -0.314 N 
ATOM     33  C   UNL     1      -1.187   1.624   0.017  0.00  0.00    +0.244 C 
ATOM     34  O   UNL     1      -1.204   2.840   0.023  0.00  0.00    -0.270 OA
ATOM     35  H   UNL     1       0.002  -0.004   0.002  0.00  0.00    +0.149 HD
ENDBRANCH  25  33
ENDBRANCH  23  28
ENDBRANCH  22  23
ENDBRANCH   1  22
TORSDOF 6
