REMARK  Name = ZINC14468043
REMARK  6 active torsions:
REMARK  status: ('A' for Active; 'I' for Inactive)
REMARK    1  A    between atoms: C_1  and  C_2
REMARK    2  A    between atoms: C_2  and  C_3
REMARK    3  A    between atoms: C_3  and  N_4
REMARK    4  A    between atoms: C_5  and  C_7
REMARK    5  A    between atoms: C_20  and  C_23
REMARK    6  A    between atoms: C_28  and  O_29
REMARK                            x       y       z     vdW  Elec       q    Type
REMARK                         _______ _______ _______ _____ _____    ______ ____
ROOT
ATOM      1  C   UNL     1      -0.056   0.256  -4.705  0.00  0.00    +0.037 A 
ATOM      2  C   UNL     1       1.320   0.020  -4.628  0.00  0.00    +0.015 A 
ATOM      3  C   UNL     1       2.001   0.302  -3.468  0.00  0.00    +0.024 A 
ATOM      4  C   UNL     1       1.332   0.825  -2.363  0.00  0.00    +0.031 A 
ATOM      5  C   UNL     1      -0.046   1.072  -2.446  0.00  0.00    -0.019 A 
ATOM      6  C   UNL     1      -0.731   0.784  -3.602  0.00  0.00    +0.019 A 
ATOM      7  C   UNL     1      -0.706   1.665  -1.262  0.00  0.00    +0.049 C 
ATOM      8  C   UNL     1      -2.149   1.441  -0.993  0.00  0.00    -0.023 C 
ATOM      9  C   UNL     1      -2.340   1.438   0.321  0.00  0.00    -0.030 C 
ATOM     10  C   UNL     1      -0.985   1.630   1.063  0.00  0.00    +0.033 C 
ATOM     11  C   UNL     1      -0.013   1.086   0.008  0.00  0.00    +0.029 C 
ATOM     12  C   UNL     1       1.393   1.659  -0.002  0.00  0.00    +0.109 C 
ATOM     13  N   UNL     1       2.049   1.085  -1.196  0.00  0.00    -0.336 N 
ATOM     14  H   UNL     1       2.998   0.885  -1.167  0.00  0.00    +0.147 HD
ENDROOT
BRANCH  12  15
ATOM     15  C   UNL     1       1.341   3.162  -0.109  0.00  0.00    +0.017 A 
ATOM     16  C   UNL     1       1.453   3.771  -1.344  0.00  0.00    +0.029 A 
ATOM     17  C   UNL     1       1.400   5.150  -1.444  0.00  0.00    +0.043 A 
ATOM     18  C   UNL     1       1.246   5.923  -0.306  0.00  0.00    +0.043 A 
ATOM     19  C   UNL     1       1.140   5.317   0.932  0.00  0.00    +0.084 A 
ATOM     20  C   UNL     1       1.188   3.933   1.033  0.00  0.00    +0.140 A 
ATOM     21 CL   UNL     1       0.948   6.286   2.360  0.00  0.00    -0.080 Cl
ATOM     22 CL   UNL     1       1.534   5.913  -2.997  0.00  0.00    -0.083 Cl
BRANCH  20  23
ATOM     23  O   UNL     1       1.083   3.335   2.249  0.00  0.00    -0.505 OA
ATOM     24  H   UNL     1       1.930   3.199   2.695  0.00  0.00    +0.292 HD
ENDBRANCH  20  23
ENDBRANCH  12  15
BRANCH   1  26
ATOM     25  N   UNL     1      -0.138  -0.563  -7.008  0.00  0.00    -0.311 N 
ATOM     26  C   UNL     1      -0.792  -0.053  -5.946  0.00  0.00    +0.244 C 
ATOM     27  O   UNL     1      -1.989   0.153  -6.011  0.00  0.00    -0.270 OA
ATOM     28  H   UNL     1       0.817  -0.727  -6.957  0.00  0.00    +0.149 HD
BRANCH  25  29
ATOM     29  C   UNL     1      -0.869  -0.869  -8.241  0.00  0.00    +0.104 C 
BRANCH  29  31
ATOM     30  C   UNL     1      -0.663  -1.752 -10.569  0.00  0.00    +0.005 C 
ATOM     31  C   UNL     1       0.101  -1.432  -9.282  0.00  0.00    +0.015 C 
ENDBRANCH  29  31
ENDBRANCH  25  29
ENDBRANCH   1  26
TORSDOF 5
