REMARK  Name = ZINC33021521
REMARK  7 active torsions:
REMARK  status: ('A' for Active; 'I' for Inactive)
REMARK    1  A    between atoms: C_1  and  C_2
REMARK    2  A    between atoms: C_5  and  C_34
REMARK    3  A    between atoms: C_6  and  N_8
REMARK    4  A    between atoms: C_9  and  C_11
REMARK    5  A    between atoms: N_16  and  S_18
REMARK    6  A    between atoms: S_18  and  C_21
REMARK    7  A    between atoms: C_30  and  C_33
REMARK                            x       y       z     vdW  Elec       q    Type
REMARK                         _______ _______ _______ _____ _____    ______ ____
ROOT
ATOM      1  C   UNL     1      -6.693  -1.809  -1.391  0.00  0.00    +0.091 C 
ATOM      2  C   UNL     1      -7.581  -1.020  -2.355  0.00  0.00    +0.015 C 
ATOM      3  C   UNL     1      -7.946   0.328  -1.729  0.00  0.00    +0.018 C 
ATOM      4  C   UNL     1      -6.671   1.132  -1.478  0.00  0.00    +0.109 C 
ATOM      5  N   UNL     1      -5.746   0.322  -0.673  0.00  0.00    -0.176 NA
ATOM      6  C   UNL     1      -5.399  -1.028  -1.139  0.00  0.00    +0.122 C 
ENDROOT
BRANCH   1   8
ATOM      7  N   UNL     1      -7.349  -4.013  -2.303  0.00  0.00    -0.285 N 
ATOM      8  C   UNL     1      -6.361  -3.150  -1.994  0.00  0.00    +0.222 C 
ATOM      9  O   UNL     1      -5.205  -3.451  -2.203  0.00  0.00    -0.275 OA
ATOM     10  H   UNL     1      -8.389  -3.778  -2.031  0.00  0.00    +0.155 HD
BRANCH   7  16
ATOM     11  C   UNL     1      -4.378  -6.587  -5.256  0.00  0.00    +0.044 C 
ATOM     12  C   UNL     1      -5.619  -6.483  -4.406  0.00  0.00    -0.049 A 
ATOM     13  C   UNL     1      -6.465  -7.570  -4.284  0.00  0.00    +0.004 A 
ATOM     14  C   UNL     1      -7.605  -7.478  -3.506  0.00  0.00    +0.005 A 
ATOM     15  C   UNL     1      -7.901  -6.300  -2.848  0.00  0.00    -0.029 A 
ATOM     16  C   UNL     1      -7.052  -5.207  -2.968  0.00  0.00    +0.037 A 
ATOM     17  C   UNL     1      -5.912  -5.301  -3.754  0.00  0.00    +0.027 A 
ATOM     18  C   UNL     1      -9.143  -6.201  -2.001  0.00  0.00    +0.045 C 
ENDBRANCH   7  16
ENDBRANCH   1   8
BRANCH   5  19
ATOM     19  S   UNL     1      -5.110   0.917   0.736  0.00  0.00    +0.061 S 
ATOM     20  O   UNL     1      -4.758  -0.208   1.529  0.00  0.00    -0.153 OA
ATOM     21  O   UNL     1      -6.006   1.921   1.193  0.00  0.00    -0.153 OA
BRANCH  19  22
ATOM     22  C   UNL     1      -3.605   1.734   0.324  0.00  0.00    +0.107 A 
ATOM     23  C   UNL     1      -3.616   3.079   0.001  0.00  0.00    +0.032 A 
ATOM     24  C   UNL     1      -2.438   3.727  -0.323  0.00  0.00    +0.049 A 
ATOM     25  C   UNL     1      -1.244   3.028  -0.324  0.00  0.00    +0.143 A 
ATOM     26  C   UNL     1      -1.232   1.673  -0.003  0.00  0.00    +0.078 A 
ATOM     27  C   UNL     1      -2.415   1.029   0.326  0.00  0.00    +0.055 A 
ATOM     28  N   UNL     1      -0.015   0.977  -0.004  0.00  0.00    -0.279 N 
ATOM     29  C   UNL     1       1.140   1.677  -0.012  0.00  0.00    +0.258 C 
ATOM     30  O   UNL     1       2.204   1.097  -0.048  0.00  0.00    -0.271 OA
ATOM     31  C   UNL     1       1.101   3.184   0.024  0.00  0.00    +0.256 C 
ATOM     32  O   UNL     1      -0.077   3.650  -0.640  0.00  0.00    -0.478 OA
ATOM     33  C   UNL     1       1.086   3.659   1.478  0.00  0.00    +0.062 C 
ATOM     34  H   UNL     1      -0.011  -0.123   0.003  0.00  0.00    +0.155 HD
ENDBRANCH  19  22
ENDBRANCH   5  19
TORSDOF 4
