REMARK  Name = ZINC39687839
REMARK  8 active torsions:
REMARK  status: ('A' for Active; 'I' for Inactive)
REMARK    1  A    between atoms: C_1  and  C_2
REMARK    2  A    between atoms: C_2  and  C_3
REMARK    3  A    between atoms: C_3  and  C_4
REMARK    4  A    between atoms: C_4  and  C_5
REMARK    5  A    between atoms: C_5  and  C_7
REMARK    6  A    between atoms: C_5  and  C_8
REMARK    7  A    between atoms: C_12  and  C_21
REMARK    8  A    between atoms: N_23  and  C_24
REMARK                            x       y       z     vdW  Elec       q    Type
REMARK                         _______ _______ _______ _____ _____    ______ ____
ROOT
ATOM      1  C   UNL     1      -2.920  -3.765  -0.001  0.00  0.00    +0.218 C 
ATOM      2  O   UNL     1      -1.824  -4.282  -0.050  0.00  0.00    -0.275 OA
ATOM      3  N   UNL     1      -4.028  -4.531  -0.040  0.00  0.00    -0.300 N 
ATOM      4  C   UNL     1      -5.441  -4.086   0.002  0.00  0.00    +0.121 C 
ATOM      5  C   UNL     1      -6.171  -5.009  -1.000  0.00  0.00    +0.100 C 
ATOM      6  C   UNL     1      -5.293  -6.269  -1.082  0.00  0.00    -0.004 C 
ATOM      7  C   UNL     1      -4.109  -6.008  -0.140  0.00  0.00    +0.115 C 
ATOM      8  C   UNL     1      -6.079  -7.492  -0.619  0.00  0.00    -0.010 C 
ATOM      9  C   UNL     1      -5.204  -8.741  -0.765  0.00  0.00    -0.082 C 
ATOM     10  N   UNL     1      -4.801  -8.896  -2.168  0.00  0.00    +0.379 N 
ATOM     11  C   UNL     1      -3.967  -7.760  -2.579  0.00  0.00    -0.082 C 
ATOM     12  C   UNL     1      -4.790  -6.470  -2.509  0.00  0.00    -0.010 C 
ATOM     13  H   UNL     1      -4.276  -9.752  -2.273  0.00  0.00    -0.086 HD
ATOM     14  H   UNL     1      -5.624  -8.936  -2.751  0.00  0.00    -0.086 HD
ENDROOT
BRANCH   5  15
ATOM     15  C   UNL     1      -6.269  -4.346  -2.349  0.00  0.00    +0.218 C 
ATOM     16  O   UNL     1      -5.410  -3.568  -2.707  0.00  0.00    -0.275 OA
ATOM     17  N   UNL     1      -7.312  -4.617  -3.159  0.00  0.00    -0.312 N 
ATOM     18  H   UNL     1      -7.999  -5.239  -2.873  0.00  0.00    +0.149 HD
BRANCH  17  19
ATOM     19  C   UNL     1      -7.407  -3.972  -4.471  0.00  0.00    +0.076 C 
ATOM     20  C   UNL     1      -8.069  -2.600  -4.318  0.00  0.00    +0.041 C 
ATOM     21  C   UNL     1      -8.136  -1.915  -5.686  0.00  0.00    +0.108 C 
ATOM     22  N   UNL     1      -8.816  -2.811  -6.631  0.00  0.00    -0.314 N 
ATOM     23  C   UNL     1      -8.316  -4.183  -6.788  0.00  0.00    +0.108 C 
ATOM     24  C   UNL     1      -8.247  -4.844  -5.407  0.00  0.00    +0.041 C 
ATOM     25  C   UNL     1      -9.913  -2.368  -7.363  0.00  0.00    +0.140 A 
ATOM     26  C   UNL     1      -9.724  -1.841  -8.638  0.00  0.00    +0.081 A 
ATOM     27  C   UNL     1     -10.824  -1.405  -9.355  0.00  0.00    +0.025 A 
ATOM     28  C   UNL     1     -12.080  -1.511  -8.771  0.00  0.00    +0.021 A 
ATOM     29  C   UNL     1     -12.193  -2.044  -7.503  0.00  0.00    +0.113 A 
ATOM     30  N   UNL     1     -11.127  -2.457  -6.844  0.00  0.00    -0.239 NA
ATOM     31 CL   UNL     1      -8.131  -1.732  -9.319  0.00  0.00    -0.080 Cl
ENDBRANCH  17  19
ENDBRANCH   5  15
BRANCH   1  32
ATOM     32  C   UNL     1      -3.042  -2.267   0.103  0.00  0.00    +0.072 C 
ATOM     33  C   UNL     1      -3.787  -1.904   1.389  0.00  0.00    +0.017 C 
BRANCH  32  34
ATOM     34  C   UNL     1      -1.646  -1.641   0.128  0.00  0.00    +0.012 C 
BRANCH  34  35
ATOM     35  C   UNL     1      -1.770  -0.117   0.108  0.00  0.00    +0.000 C 
BRANCH  35  37
ATOM     36  C   UNL     1      -0.497   2.034   0.113  0.00  0.00    +0.004 C 
ATOM     37  C   UNL     1      -0.373   0.509   0.134  0.00  0.00    -0.003 C 
ENDBRANCH  35  37
ENDBRANCH  34  35
ENDBRANCH  32  34
ENDBRANCH   1  32
TORSDOF 6
