REMARK  Name = ZINC49521285
REMARK  6 active torsions:
REMARK  status: ('A' for Active; 'I' for Inactive)
REMARK    1  A    between atoms: C_3  and  C_6
REMARK    2  A    between atoms: C_6  and  C_12
REMARK    3  A    between atoms: C_12  and  N_13
REMARK    4  A    between atoms: C_14  and  C_16
REMARK    5  A    between atoms: N_18  and  C_19
REMARK    6  A    between atoms: C_22  and  N_25
REMARK                            x       y       z     vdW  Elec       q    Type
REMARK                         _______ _______ _______ _____ _____    ______ ____
ROOT
ATOM      1  C   UNL     1       1.999   5.954   1.968  0.00  0.00    +0.303 C 
ATOM      2  O   UNL     1       1.125   5.933   1.126  0.00  0.00    -0.265 OA
ATOM      3  N   UNL     1       2.051   6.963   2.861  0.00  0.00    -0.278 N 
ATOM      4  H   UNL     1       2.708   6.946   3.574  0.00  0.00    +0.155 HD
ENDROOT
BRANCH   3   5
ATOM      5  C   UNL     1       1.157   8.034   2.758  0.00  0.00    +0.034 A 
ATOM      6  C   UNL     1       1.571   9.318   3.090  0.00  0.00    +0.025 A 
ATOM      7  C   UNL     1       0.689  10.375   2.988  0.00  0.00    +0.026 A 
ATOM      8  C   UNL     1      -0.613  10.155   2.554  0.00  0.00    +0.051 A 
ATOM      9  C   UNL     1      -1.026   8.870   2.222  0.00  0.00    +0.026 A 
ATOM     10  C   UNL     1      -0.142   7.814   2.318  0.00  0.00    +0.025 A 
BRANCH   8  11
ATOM     11  N   UNL     1      -1.506  11.225   2.452  0.00  0.00    -0.207 N 
ATOM     12  C   UNL     1      -1.454  12.499   3.192  0.00  0.00    +0.133 C 
ATOM     13  C   UNL     1      -2.081  13.638   2.365  0.00  0.00    +0.045 C 
ATOM     14  C   UNL     1      -3.407  13.046   1.800  0.00  0.00    +0.190 C 
ATOM     15  S   UNL     1      -2.852  11.326   1.457  0.00  0.00    +0.046 S 
ATOM     16  O   UNL     1      -2.354  11.211   0.132  0.00  0.00    -0.155 OA
ATOM     17  O   UNL     1      -3.781  10.386   1.979  0.00  0.00    -0.155 OA
ENDBRANCH   8  11
ENDBRANCH   3   5
BRANCH   1  19
ATOM     18  N   UNL     1       2.966   3.854   1.123  0.00  0.00    -0.307 N 
ATOM     19  C   UNL     1       3.018   4.863   2.015  0.00  0.00    +0.299 C 
ATOM     20  O   UNL     1       3.892   4.884   2.857  0.00  0.00    -0.265 OA
ATOM     21  H   UNL     1       2.267   3.837   0.450  0.00  0.00    +0.149 HD
BRANCH  18  22
ATOM     22  C   UNL     1       3.965   2.783   1.169  0.00  0.00    +0.116 C 
BRANCH  22  23
ATOM     23  C   UNL     1       3.757   1.840  -0.017  0.00  0.00    +0.017 C 
ATOM     24  C   UNL     1       4.027   2.593  -1.321  0.00  0.00    +0.013 C 
ATOM     25  C   UNL     1       5.469   3.107  -1.324  0.00  0.00    +0.001 C 
ATOM     26  C   UNL     1       6.431   1.923  -1.210  0.00  0.00    +0.000 C 
ATOM     27  C   UNL     1       6.161   1.170   0.094  0.00  0.00    +0.001 C 
ATOM     28  C   UNL     1       4.720   0.656   0.097  0.00  0.00    +0.013 C 
BRANCH  23  31
ATOM     29  C   UNL     1       0.389   0.206   0.691  0.00  0.00    +0.008 A 
ATOM     30  C   UNL     1       1.713   0.547   0.896  0.00  0.00    +0.012 A 
ATOM     31  C   UNL     1       2.337   1.335  -0.014  0.00  0.00    -0.003 A 
ATOM     32  S   UNL     1       1.040   1.618  -1.208  0.00  0.00    -0.101 S 
ATOM     33  C   UNL     1      -0.246   0.668  -0.414  0.00  0.00    +0.045 A 
ENDBRANCH  23  31
ENDBRANCH  22  23
ENDBRANCH  18  22
ENDBRANCH   1  19
TORSDOF 6
