REMARK  Name = ZINC03516644
REMARK  9 active torsions:
REMARK  status: ('A' for Active; 'I' for Inactive)
REMARK    1  A    between atoms: C_1  and  C_2
REMARK    2  A    between atoms: N_13  and  C_33
REMARK    3  A    between atoms: C_14  and  S_16
REMARK    4  A    between atoms: S_16  and  C_17
REMARK    5  A    between atoms: C_17  and  C_19
REMARK    6  A    between atoms: C_17  and  C_20
REMARK    7  A    between atoms: N_22  and  C_23
REMARK    8  A    between atoms: C_23  and  C_24
REMARK    9  A    between atoms: C_33  and  C_34
REMARK                            x       y       z     vdW  Elec       q    Type
REMARK                         _______ _______ _______ _____ _____    ______ ____
ROOT
ATOM      1  C   UNL     1       1.271   3.852   8.826  0.00  0.00    +0.008 C 
ATOM      2  C   UNL     1       0.782   3.234   7.515  0.00  0.00    -0.009 C 
ATOM      3  C   UNL     1       1.726   3.624   6.375  0.00  0.00    +0.008 C 
ATOM      4  C   UNL     1       1.391   2.816   5.122  0.00  0.00    +0.037 C 
ATOM      5  C   UNL     1      -0.099   2.964   4.824  0.00  0.00    -0.023 A 
ATOM      6  C   UNL     1      -0.953   3.388   5.777  0.00  0.00    -0.004 A 
ATOM      7  S   UNL     1      -2.543   3.407   4.995  0.00  0.00    -0.073 S 
ATOM      8  C   UNL     1      -2.055   2.844   3.384  0.00  0.00    +0.117 A 
ATOM      9  C   UNL     1      -0.668   2.660   3.509  0.00  0.00    +0.076 A 
ATOM     10  C   UNL     1       0.008   2.199   2.335  0.00  0.00    +0.263 A 
ATOM     11  O   UNL     1       1.213   2.011   2.349  0.00  0.00    -0.267 OA
ATOM     12  N   UNL     1      -0.704   1.975   1.216  0.00  0.00    -0.283 N 
ATOM     13  C   UNL     1      -2.052   2.186   1.180  0.00  0.00    +0.174 A 
ATOM     14  N   UNL     1      -2.700   2.605   2.248  0.00  0.00    -0.216 NA
ATOM     15  C   UNL     1      -0.624   3.759   7.191  0.00  0.00    +0.046 C 
ENDROOT
BRANCH  13  16
ATOM     16  S   UNL     1      -2.939   1.885  -0.313  0.00  0.00    -0.075 S 
BRANCH  16  17
ATOM     17  C   UNL     1      -4.613   2.320   0.224  0.00  0.00    +0.137 C 
ATOM     18  C   UNL     1      -5.075   1.336   1.301  0.00  0.00    +0.029 C 
BRANCH  17  19
ATOM     19  C   UNL     1      -5.551   2.253  -0.954  0.00  0.00    +0.226 C 
ATOM     20  O   UNL     1      -5.287   1.541  -1.900  0.00  0.00    -0.275 OA
ATOM     21  N   UNL     1      -6.684   2.983  -0.955  0.00  0.00    -0.310 N 
ATOM     22  H   UNL     1      -6.895   3.552  -0.199  0.00  0.00    +0.149 HD
BRANCH  21  23
ATOM     23  C   UNL     1      -7.596   2.918  -2.100  0.00  0.00    +0.139 C 
BRANCH  23  24
ATOM     24  C   UNL     1      -8.776   3.821  -1.854  0.00  0.00    -0.027 A 
ATOM     25  C   UNL     1      -9.905   3.326  -1.227  0.00  0.00    +0.009 A 
ATOM     26  C   UNL     1     -10.989   4.152  -0.994  0.00  0.00    +0.050 A 
ATOM     27  C   UNL     1     -10.950   5.476  -1.399  0.00  0.00    +0.166 A 
ATOM     28  C   UNL     1      -9.816   5.974  -2.034  0.00  0.00    +0.167 A 
ATOM     29  C   UNL     1      -8.731   5.142  -2.259  0.00  0.00    +0.054 A 
ATOM     30  O   UNL     1     -10.023   7.290  -2.330  0.00  0.00    -0.453 OA
ATOM     31  C   UNL     1     -11.447   7.485  -2.237  0.00  0.00    +0.466 C 
ATOM     32  O   UNL     1     -11.869   6.481  -1.296  0.00  0.00    -0.453 OA
ENDBRANCH  23  24
ENDBRANCH  21  23
ENDBRANCH  17  19
ENDBRANCH  16  17
ENDBRANCH  13  16
BRANCH  12  33
ATOM     33  C   UNL     1      -0.018   1.503   0.010  0.00  0.00    +0.154 C 
BRANCH  33  34
ATOM     34  C   UNL     1       0.002  -0.004   0.002  0.00  0.00    -0.013 C 
ATOM     35  C   UNL     1      -0.478  -0.660  -1.025  0.00  0.00    +0.005 C 
ENDBRANCH  33  34
ENDBRANCH  12  33
TORSDOF 7
