REMARK  Name = ZINC14062010
REMARK  8 active torsions:
REMARK  status: ('A' for Active; 'I' for Inactive)
REMARK    1  A    between atoms: C_1  and  C_2
REMARK    2  A    between atoms: C_5  and  C_8
REMARK    3  A    between atoms: C_14  and  C_16
REMARK    4  A    between atoms: C_16  and  S_17
REMARK    5  A    between atoms: S_17  and  C_18
REMARK    6  A    between atoms: C_21  and  C_30
REMARK    7  A    between atoms: N_22  and  C_23
REMARK    8  A    between atoms: C_23  and  C_24
REMARK                            x       y       z     vdW  Elec       q    Type
REMARK                         _______ _______ _______ _____ _____    ______ ____
ROOT
ATOM      1  C   UNL     1      -1.135  -2.201   0.001  0.00  0.00    +0.173 C 
ENDROOT
BRANCH   1   8
ATOM      2  C   UNL     1       0.792   3.543   0.013  0.00  0.00    +0.080 A 
ATOM      3  C   UNL     1      -0.487   4.025   0.027  0.00  0.00    +0.076 A 
ATOM      4  S   UNL     1      -1.416   2.497   0.021  0.00  0.00    -0.060 S 
ATOM      5  C   UNL     1      -0.017   1.385   0.010  0.00  0.00    +0.165 A 
ATOM      6  N   UNL     1       0.994   2.234   0.005  0.00  0.00    -0.225 NA
ATOM      7  N   UNL     1       0.002  -0.004   0.002  0.00  0.00    -0.264 N 
ATOM      8  C   UNL     1      -1.156  -0.694   0.009  0.00  0.00    +0.229 C 
ATOM      9  O   UNL     1      -2.214  -0.102   0.023  0.00  0.00    -0.275 OA
ATOM     10  H   UNL     1       0.849  -0.478  -0.009  0.00  0.00    +0.157 HD
BRANCH   2  15
ATOM     11  C   UNL     1       5.264   7.172  -0.012  0.00  0.00    +0.044 C 
ATOM     12  C   UNL     1       4.094   6.223  -0.005  0.00  0.00    -0.050 A 
ATOM     13  C   UNL     1       4.315   4.857  -0.014  0.00  0.00    +0.004 A 
ATOM     14  C   UNL     1       3.247   3.983  -0.008  0.00  0.00    +0.010 A 
ATOM     15  C   UNL     1       1.944   4.478   0.006  0.00  0.00    +0.001 A 
ATOM     16  C   UNL     1       1.728   5.855   0.009  0.00  0.00    +0.010 A 
ATOM     17  C   UNL     1       2.803   6.720   0.009  0.00  0.00    +0.004 A 
ENDBRANCH   2  15
ENDBRANCH   1   8
BRANCH   1  18
ATOM     18  S   UNL     1      -2.833  -2.827   0.014  0.00  0.00    -0.077 S 
BRANCH  18  19
ATOM     19  C   UNL     1      -2.520  -4.561   0.002  0.00  0.00    +0.192 A 
ATOM     20  N   UNL     1      -1.341  -5.139  -0.012  0.00  0.00    -0.122 NA
ATOM     21  N   UNL     1      -1.474  -6.417  -0.018  0.00  0.00    -0.128 NA
ATOM     22  C   UNL     1      -2.750  -6.735  -0.008  0.00  0.00    +0.172 A 
ATOM     23  N   UNL     1      -3.459  -5.555   0.011  0.00  0.00    -0.299 N 
BRANCH  22  24
ATOM     24  C   UNL     1      -3.313  -8.095  -0.011  0.00  0.00    +0.056 A 
ATOM     25  C   UNL     1      -2.690  -9.290   0.248  0.00  0.00    +0.019 A 
ATOM     26  C   UNL     1      -3.432 -10.448   0.190  0.00  0.00    +0.008 A 
ATOM     27  C   UNL     1      -4.749 -10.375  -0.132  0.00  0.00    +0.046 A 
ATOM     28  S   UNL     1      -4.984  -8.620  -0.358  0.00  0.00    -0.094 S 
ENDBRANCH  22  24
BRANCH  23  29
ATOM     29  C   UNL     1      -4.915  -5.397   0.033  0.00  0.00    +0.157 C 
BRANCH  29  30
ATOM     30  C   UNL     1      -5.443  -5.336  -1.402  0.00  0.00    +0.138 C 
ATOM     31  C   UNL     1      -6.960  -5.049  -1.390  0.00  0.00    +0.035 C 
ATOM     32  C   UNL     1      -7.476  -5.960  -2.540  0.00  0.00    +0.031 C 
ATOM     33  C   UNL     1      -6.513  -7.167  -2.414  0.00  0.00    +0.160 C 
ATOM     34  O   UNL     1      -5.245  -6.599  -2.047  0.00  0.00    -0.375 OA
ENDBRANCH  29  30
ENDBRANCH  23  29
ENDBRANCH  18  19
ENDBRANCH   1  18
TORSDOF 7
