REMARK  Name = ZINC22240169
REMARK  5 active torsions:
REMARK  status: ('A' for Active; 'I' for Inactive)
REMARK    1  A    between atoms: C_1  and  C_2
REMARK    2  A    between atoms: C_2  and  C_29
REMARK    3  A    between atoms: N_5  and  C_9
REMARK    4  A    between atoms: C_9  and  C_10
REMARK    5  A    between atoms: C_23  and  C_25
REMARK                            x       y       z     vdW  Elec       q    Type
REMARK                         _______ _______ _______ _____ _____    ______ ____
ROOT
ATOM      1  C   UNL     1      -1.881   4.019   0.933  0.00  0.00    +0.238 C 
ATOM      2  O   UNL     1      -2.881   3.407   0.622  0.00  0.00    -0.273 OA
ATOM      3  N   UNL     1      -0.760   3.352   1.271  0.00  0.00    -0.256 N 
ATOM      4  C   UNL     1       0.404   4.045   1.632  0.00  0.00    +0.058 A 
ATOM      5  C   UNL     1       1.157   4.704   0.674  0.00  0.00    +0.025 A 
ATOM      6  C   UNL     1       2.324   5.349   1.042  0.00  0.00    +0.002 A 
ATOM      7  C   UNL     1       2.741   5.340   2.360  0.00  0.00    +0.002 A 
ATOM      8  C   UNL     1       1.988   4.694   3.324  0.00  0.00    +0.025 A 
ATOM      9  C   UNL     1       0.814   4.055   2.965  0.00  0.00    +0.055 A 
ATOM     10  N   UNL     1       0.019   3.417   3.926  0.00  0.00    -0.284 N 
ATOM     11  C   UNL     1      -0.424   2.156   3.723  0.00  0.00    +0.219 C 
ATOM     12  O   UNL     1      -1.174   1.646   4.528  0.00  0.00    -0.275 OA
ATOM     13  C   UNL     1       0.008   1.381   2.507  0.00  0.00    +0.128 C 
ATOM     14  C   UNL     1      -0.733   1.888   1.268  0.00  0.00    +0.194 C 
ATOM     15  H   UNL     1      -0.249   3.942   4.854  0.00  0.00    +0.155 HD
ENDROOT
BRANCH  14  16
ATOM     16  C   UNL     1      -0.017   1.395   0.010  0.00  0.00    +0.409 C 
ATOM     17  F   UNL     1       0.002  -0.004   0.002  0.00  0.00    -0.169 F 
ATOM     18  F   UNL     1       1.296   1.879  -0.000  0.00  0.00    -0.169 F 
ATOM     19  F   UNL     1      -0.694   1.858  -1.124  0.00  0.00    -0.169 F 
ENDBRANCH  14  16
BRANCH   1  20
ATOM     20  C   UNL     1      -1.892   5.526   0.940  0.00  0.00    +0.214 C 
BRANCH  20  25
ATOM     21  C   UNL     1      -5.924   5.786  -1.455  0.00  0.00    +0.047 C 
ATOM     22  C   UNL     1      -5.014   6.732  -0.670  0.00  0.00    +0.135 C 
ATOM     23  C   UNL     1      -3.572   6.268  -0.735  0.00  0.00    +0.251 C 
ATOM     24  O   UNL     1      -2.884   6.154  -1.726  0.00  0.00    -0.272 OA
ATOM     25  N   UNL     1      -3.216   6.006   0.538  0.00  0.00    -0.215 N 
ATOM     26  C   UNL     1      -4.219   6.246   1.391  0.00  0.00    +0.310 C 
ATOM     27  O   UNL     1      -4.136   6.088   2.593  0.00  0.00    -0.252 OA
ATOM     28  N   UNL     1      -5.330   6.681   0.768  0.00  0.00    -0.281 N 
ATOM     29  H   UNL     1      -6.329   6.973   1.122  0.00  0.00    +0.152 HD
BRANCH  22  30
ATOM     30  C   UNL     1      -5.140   8.141  -1.190  0.00  0.00    -0.015 A 
ATOM     31  C   UNL     1      -4.327   8.572  -2.222  0.00  0.00    +0.007 A 
ATOM     32  C   UNL     1      -4.446   9.862  -2.704  0.00  0.00    +0.020 A 
ATOM     33  C   UNL     1      -5.372  10.725  -2.146  0.00  0.00    +0.041 A 
ATOM     34  C   UNL     1      -6.181  10.295  -1.109  0.00  0.00    +0.020 A 
ATOM     35  C   UNL     1      -6.065   9.003  -0.632  0.00  0.00    +0.007 A 
ATOM     36 CL   UNL     1      -5.518  12.348  -2.745  0.00  0.00    -0.084 Cl
ENDBRANCH  22  30
ENDBRANCH  20  25
ENDBRANCH   1  20
TORSDOF 4
