REMARK  Name = ZINC01374382
REMARK  17 active torsions:
REMARK  status: ('A' for Active; 'I' for Inactive)
REMARK    1  A    between atoms: C_1  and  C_2
REMARK    2  A    between atoms: C_2  and  C_3
REMARK    3  A    between atoms: C_3  and  C_5
REMARK    4  A    between atoms: C_3  and  N_15
REMARK    5  A    between atoms: N_9  and  C_10
REMARK    6  A    between atoms: C_10  and  C_11
REMARK    7  A    between atoms: C_10  and  C_12
REMARK    8  A    between atoms: C_10  and  C_13
REMARK    9  A    between atoms: C_13  and  C_14
REMARK   10  A    between atoms: N_15  and  C_16
REMARK   11  A    between atoms: N_15  and  C_25
REMARK   12  A    between atoms: C_16  and  C_17
REMARK   13  A    between atoms: C_20  and  O_23
REMARK   14  A    between atoms: O_23  and  C_24
REMARK   15  A    between atoms: C_25  and  C_26
REMARK   16  A    between atoms: C_30  and  O_38
REMARK   17  A    between atoms: O_38  and  C_39
REMARK                            x       y       z     vdW  Elec       q    Type
REMARK                         _______ _______ _______ _____ _____    ______ ____
ROOT
ATOM      1  N   UNL     1      -2.476  -0.207  -0.718  0.00  0.00    -0.284 NA
ENDROOT
BRANCH   1   2
ATOM      2  C   UNL     1      -1.731  -0.288  -1.982  0.00  0.00    +0.127 C 
BRANCH   2   3
ATOM      3  C   UNL     1      -1.465   1.102  -2.499  0.00  0.00    +0.169 A 
ATOM      4  N   UNL     1      -2.213   2.162  -2.314  0.00  0.00    -0.112 NA
ATOM      5  N   UNL     1      -1.649   3.156  -2.910  0.00  0.00    -0.023 NA
ATOM      6  N   UNL     1      -0.561   2.757  -3.470  0.00  0.00    -0.043 NA
ATOM      7  N   UNL     1      -0.410   1.497  -3.235  0.00  0.00    -0.222 N 
BRANCH   7   8
ATOM      8  C   UNL     1       0.700   0.655  -3.687  0.00  0.00    +0.061 C 
ATOM      9  C   UNL     1       1.597   0.310  -2.497  0.00  0.00    +0.036 C 
ATOM     10  C   UNL     1       0.147  -0.633  -4.299  0.00  0.00    +0.036 C 
BRANCH   8  11
ATOM     11  C   UNL     1       1.517   1.409  -4.739  0.00  0.00    +0.026 C 
ATOM     12  C   UNL     1       2.676   0.529  -5.211  0.00  0.00    +0.006 C 
ENDBRANCH   8  11
ENDBRANCH   7   8
ENDBRANCH   2   3
BRANCH   2  14
ATOM     13  C   UNL     1      -2.729  -2.510  -2.537  0.00  0.00    +0.006 C 
ATOM     14  C   UNL     1      -2.554  -1.066  -3.010  0.00  0.00    +0.023 C 
ENDBRANCH   2  14
ENDBRANCH   1   2
BRANCH   1  15
ATOM     15  C   UNL     1      -3.924  -0.179  -0.962  0.00  0.00    +0.120 C 
BRANCH  15  16
ATOM     16  C   UNL     1      -4.322   1.182  -1.472  0.00  0.00    -0.033 A 
ATOM     17  C   UNL     1      -4.609   2.197  -0.577  0.00  0.00    +0.008 A 
ATOM     18  C   UNL     1      -4.974   3.446  -1.042  0.00  0.00    +0.046 A 
ATOM     19  C   UNL     1      -5.053   3.681  -2.407  0.00  0.00    +0.120 A 
ATOM     20  C   UNL     1      -4.764   2.661  -3.302  0.00  0.00    +0.046 A 
ATOM     21  C   UNL     1      -4.394   1.416  -2.832  0.00  0.00    +0.008 A 
BRANCH  19  22
ATOM     22  O   UNL     1      -5.412   4.909  -2.866  0.00  0.00    -0.495 OA
ATOM     23  C   UNL     1      -5.472   5.079  -4.284  0.00  0.00    +0.277 C 
ENDBRANCH  19  22
ENDBRANCH  15  16
ENDBRANCH   1  15
BRANCH   1  24
ATOM     24  C   UNL     1      -2.114  -1.312   0.179  0.00  0.00    +0.126 C 
BRANCH  24  25
ATOM     25  C   UNL     1      -0.793  -1.012   0.839  0.00  0.00    +0.031 A 
ATOM     26  C   UNL     1      -0.766  -0.411   2.054  0.00  0.00    +0.020 A 
ATOM     27  C   UNL     1       0.533  -0.133   2.669  0.00  0.00    +0.002 A 
ATOM     28  C   UNL     1       0.622   0.484   3.921  0.00  0.00    +0.055 A 
ATOM     29  C   UNL     1       1.863   0.732   4.472  0.00  0.00    +0.121 A 
ATOM     30  C   UNL     1       3.021   0.370   3.787  0.00  0.00    +0.047 A 
ATOM     31  C   UNL     1       2.947  -0.238   2.554  0.00  0.00    +0.030 A 
ATOM     32  C   UNL     1       1.706  -0.496   1.981  0.00  0.00    +0.049 A 
ATOM     33  N   UNL     1       1.610  -1.105   0.746  0.00  0.00    -0.322 N 
ATOM     34  H   UNL     1       2.419  -1.356   0.272  0.00  0.00    +0.169 HD
ATOM     35  C   UNL     1       0.412  -1.362   0.192  0.00  0.00    +0.254 A 
ATOM     36  O   UNL     1       0.365  -1.906  -0.897  0.00  0.00    -0.268 OA
BRANCH  29  37
ATOM     37  O   UNL     1       1.956   1.332   5.689  0.00  0.00    -0.495 OA
ATOM     38  C   UNL     1       3.270   1.559   6.201  0.00  0.00    +0.277 C 
ENDBRANCH  29  37
ENDBRANCH  24  25
ENDBRANCH   1  24
TORSDOF 11
