REMARK  Name = ZINC59293162
REMARK  19 active torsions:
REMARK  status: ('A' for Active; 'I' for Inactive)
REMARK    1  A    between atoms: C_1  and  C_2
REMARK    2  A    between atoms: C_2  and  C_3
REMARK    3  A    between atoms: C_3  and  C_4
REMARK    4  A    between atoms: C_4  and  O_5
REMARK    5  A    between atoms: O_5  and  C_6
REMARK    6  A    between atoms: C_6  and  C_8
REMARK    7  A    between atoms: C_9  and  N_38
REMARK    8  A    between atoms: C_13  and  C_37
REMARK    9  A    between atoms: C_17  and  C_32
REMARK   10  A    between atoms: C_18  and  C_20
REMARK   11  A    between atoms: C_23  and  O_28
REMARK   12  A    between atoms: C_24  and  O_26
REMARK   13  A    between atoms: O_26  and  C_27
REMARK   14  A    between atoms: O_28  and  C_29
REMARK   15  A    between atoms: C_29  and  C_30
REMARK   16  A    between atoms: C_29  and  C_31
REMARK   17  A    between atoms: C_32  and  O_34
REMARK   18  A    between atoms: O_34  and  C_35
REMARK   19  A    between atoms: C_35  and  C_36
REMARK                            x       y       z     vdW  Elec       q    Type
REMARK                         _______ _______ _______ _____ _____    ______ ____
ROOT
ATOM      1  C   UNL     1      -4.382  -4.602   0.299  0.00  0.00    +0.084 C 
ATOM      2  C   UNL     1      -4.604  -5.942   0.262  0.00  0.00    +0.106 C 
ATOM      3  N   UNL     1      -5.920  -6.413   0.137  0.00  0.00    -0.220 N 
ATOM      4  C   UNL     1      -6.280  -7.666   0.423  0.00  0.00    +0.239 C 
ATOM      5  O   UNL     1      -5.487  -8.470   0.863  0.00  0.00    -0.274 OA
ATOM      6  C   UNL     1      -7.734  -8.034   0.170  0.00  0.00    +0.136 C 
ATOM      7  S   UNL     1      -8.300  -6.503  -0.690  0.00  0.00    -0.096 S 
ATOM      8  C   UNL     1      -6.895  -5.502  -0.277  0.00  0.00    +0.088 C 
ATOM      9  C   UNL     1      -6.749  -4.159  -0.299  0.00  0.00    +0.077 C 
ATOM     10  C   UNL     1      -5.479  -3.578   0.288  0.00  0.00    +0.098 C 
ATOM     11  C   UNL     1      -8.491  -8.249   1.482  0.00  0.00    +0.029 C 
ENDROOT
BRANCH  10  12
ATOM     12  C   UNL     1      -5.745  -3.121   1.700  0.00  0.00    -0.031 A 
ATOM     13  C   UNL     1      -6.138  -4.036   2.659  0.00  0.00    +0.008 A 
ATOM     14  C   UNL     1      -6.383  -3.621   3.955  0.00  0.00    +0.050 A 
ATOM     15  C   UNL     1      -6.233  -2.286   4.295  0.00  0.00    +0.162 A 
ATOM     16  C   UNL     1      -5.837  -1.366   3.330  0.00  0.00    +0.162 A 
ATOM     17  C   UNL     1      -5.589  -1.788   2.034  0.00  0.00    +0.054 A 
BRANCH  16  18
ATOM     18  O   UNL     1      -5.689  -0.054   3.659  0.00  0.00    -0.491 OA
ATOM     19  C   UNL     1      -5.279   0.834   2.618  0.00  0.00    +0.277 C 
ENDBRANCH  16  18
BRANCH  15  20
ATOM     20  O   UNL     1      -6.474  -1.877   5.569  0.00  0.00    -0.486 OA
BRANCH  20  21
ATOM     21  C   UNL     1      -6.743  -2.893   6.537  0.00  0.00    +0.167 C 
ATOM     22  C   UNL     1      -6.181  -2.466   7.895  0.00  0.00    +0.051 C 
ATOM     23  C   UNL     1      -8.254  -3.100   6.654  0.00  0.00    +0.051 C 
ENDBRANCH  20  21
ENDBRANCH  15  20
ENDBRANCH  10  12
BRANCH   2  24
ATOM     24  N   UNL     1      -3.557  -6.821   0.345  0.00  0.00    -0.345 N 
ATOM     25  H   UNL     1      -2.660  -6.493   0.511  0.00  0.00    +0.143 HD
ATOM     26  H   UNL     1      -3.713  -7.773   0.237  0.00  0.00    +0.143 HD
ENDBRANCH   2  24
BRANCH   1  27
ATOM     27  C   UNL     1      -3.055  -4.151   0.356  0.00  0.00    +0.339 C 
ATOM     28  O   UNL     1      -2.501  -3.757  -0.655  0.00  0.00    -0.245 OA
BRANCH  27  29
ATOM     29  O   UNL     1      -2.391  -4.153   1.532  0.00  0.00    -0.461 OA
BRANCH  29  30
ATOM     30  C   UNL     1      -1.042  -3.680   1.517  0.00  0.00    +0.232 C 
BRANCH  30  31
ATOM     31  C   UNL     1      -0.459  -3.757   2.929  0.00  0.00    +0.041 C 
BRANCH  31  33
ATOM     32  C   UNL     1       1.568  -3.328   4.325  0.00  0.00    +0.004 C 
ATOM     33  C   UNL     1       0.985  -3.251   2.913  0.00  0.00    -0.000 C 
ENDBRANCH  31  33
ENDBRANCH  30  31
ENDBRANCH  29  30
ENDBRANCH  27  29
ENDBRANCH   1  27
BRANCH   9  34
ATOM     34  C   UNL     1      -7.741  -3.332  -0.845  0.00  0.00    +0.338 C 
ATOM     35  O   UNL     1      -8.755  -3.822  -1.309  0.00  0.00    -0.245 OA
BRANCH  34  36
ATOM     36  O   UNL     1      -7.571  -1.992  -0.856  0.00  0.00    -0.462 OA
BRANCH  36  37
ATOM     37  C   UNL     1      -8.622  -1.210  -1.427  0.00  0.00    +0.229 C 
ATOM     38  C   UNL     1      -8.254   0.273  -1.351  0.00  0.00    +0.048 C 
ENDBRANCH  36  37
ENDBRANCH  34  36
ENDBRANCH   9  34
TORSDOF 13
