REMARK  Name = ZINC33810531
REMARK  11 active torsions:
REMARK  status: ('A' for Active; 'I' for Inactive)
REMARK    1  A    between atoms: C_1  and  C_2
REMARK    2  A    between atoms: C_2  and  C_3
REMARK    3  A    between atoms: C_3  and  S_4
REMARK    4  A    between atoms: S_4  and  C_5
REMARK    5  A    between atoms: C_12  and  C_24
REMARK    6  A    between atoms: C_18  and  C_22
REMARK    7  A    between atoms: C_18  and  C_23
REMARK    8  A    between atoms: C_28  and  O_32
REMARK    9  A    between atoms: C_29  and  O_30
REMARK   10  A    between atoms: O_30  and  C_31
REMARK   11  A    between atoms: O_32  and  C_33
REMARK                            x       y       z     vdW  Elec       q    Type
REMARK                         _______ _______ _______ _____ _____    ______ ____
ROOT
ATOM      1  C   UNL     1       1.500   3.208   8.753  0.00  0.00    +0.171 A 
ATOM      2  N   UNL     1       1.583   1.852   8.857  0.00  0.00    -0.208 NA
ATOM      3  C   UNL     1       0.804   1.053   8.062  0.00  0.00    +0.135 A 
ATOM      4  C   UNL     1      -0.049   1.628   7.172  0.00  0.00    +0.069 A 
ATOM      5  C   UNL     1      -0.108   3.037   7.098  0.00  0.00    +0.258 A 
ATOM      6  O   UNL     1      -0.869   3.580   6.311  0.00  0.00    -0.267 OA
ATOM      7  N   UNL     1       0.676   3.776   7.897  0.00  0.00    -0.302 N 
ATOM      8  C   UNL     1      -0.914   0.789   6.279  0.00  0.00    +0.096 C 
ATOM      9  C   UNL     1      -1.017  -0.626   6.789  0.00  0.00    +0.024 C 
ATOM     10  C   UNL     1      -0.129  -1.109   7.684  0.00  0.00    +0.017 C 
ATOM     11  N   UNL     1       0.880  -0.317   8.162  0.00  0.00    -0.302 N 
ATOM     12  C   UNL     1      -0.218  -2.531   8.178  0.00  0.00    +0.058 C 
ATOM     13  C   UNL     1      -1.680  -2.982   8.190  0.00  0.00    -0.023 C 
ATOM     14  C   UNL     1      -2.240  -2.848   6.770  0.00  0.00    +0.086 C 
ATOM     15  C   UNL     1      -2.065  -1.428   6.306  0.00  0.00    +0.162 C 
ATOM     16  O   UNL     1      -2.846  -0.965   5.498  0.00  0.00    -0.292 OA
ATOM     17  C   UNL     1      -2.483  -2.096   9.146  0.00  0.00    +0.011 C 
ATOM     18  C   UNL     1      -1.770  -4.440   8.643  0.00  0.00    +0.011 C 
ATOM     19  H   UNL     1       1.757  -0.786   8.631  0.00  0.00    +0.153 HD
ATOM     20  H   UNL     1       0.624   4.873   7.830  0.00  0.00    +0.171 HD
ENDROOT
BRANCH   8  21
ATOM     21  C   UNL     1      -0.324   0.773   4.893  0.00  0.00    +0.010 A 
ATOM     22  C   UNL     1      -1.132   1.002   3.795  0.00  0.00    +0.008 A 
ATOM     23  C   UNL     1      -0.594   0.987   2.522  0.00  0.00    +0.004 A 
ATOM     24  C   UNL     1       0.756   0.743   2.341  0.00  0.00    +0.049 A 
ATOM     25  C   UNL     1       1.571   0.513   3.437  0.00  0.00    +0.162 A 
ATOM     26  C   UNL     1       1.028   0.523   4.719  0.00  0.00    +0.166 A 
BRANCH  26  27
ATOM     27  O   UNL     1       1.823   0.292   5.798  0.00  0.00    -0.491 OA
ATOM     28  C   UNL     1       2.715   1.340   6.182  0.00  0.00    +0.277 C 
ENDBRANCH  26  27
BRANCH  25  29
ATOM     29  O   UNL     1       2.898   0.274   3.261  0.00  0.00    -0.491 OA
ATOM     30  C   UNL     1       3.385   0.273   1.918  0.00  0.00    +0.277 C 
ENDBRANCH  25  29
ENDBRANCH   8  21
BRANCH   1  31
ATOM     31  S   UNL     1       2.513   4.219   9.782  0.00  0.00    -0.088 S 
BRANCH  31  32
ATOM     32  C   UNL     1       1.991   5.859   9.222  0.00  0.00    +0.077 C 
BRANCH  32  34
ATOM     33  C   UNL     1       2.318   8.318   9.525  0.00  0.00    +0.004 C 
ATOM     34  C   UNL     1       2.759   6.931   9.998  0.00  0.00    +0.008 C 
ENDBRANCH  32  34
ENDBRANCH  31  32
ENDBRANCH   1  31
TORSDOF 6
