REMARK  Name = ZINC67060380
REMARK  10 active torsions:
REMARK  status: ('A' for Active; 'I' for Inactive)
REMARK    1  A    between atoms: C_1  and  C_2
REMARK    2  A    between atoms: C_2  and  C_3
REMARK    3  A    between atoms: C_3  and  C_5
REMARK    4  A    between atoms: C_3  and  N_6
REMARK    5  A    between atoms: C_7  and  C_9
REMARK    6  A    between atoms: C_12  and  C_15
REMARK    7  A    between atoms: C_15  and  N_16
REMARK    8  A    between atoms: N_19  and  N_20
REMARK    9  A    between atoms: C_21  and  C_23
REMARK   10  A    between atoms: C_27  and  C_29
REMARK                            x       y       z     vdW  Elec       q    Type
REMARK                         _______ _______ _______ _____ _____    ______ ____
ROOT
ATOM      1  N   UNL     1      -6.100   2.865   6.354  0.00  0.00    -0.294 N 
ATOM      2  C   UNL     1      -6.671   3.439   7.432  0.00  0.00    +0.316 C 
ATOM      3  O   UNL     1      -7.078   2.748   8.345  0.00  0.00    -0.251 OA
ATOM      4  N   UNL     1      -6.790   4.780   7.497  0.00  0.00    -0.218 N 
ATOM      5  H   UNL     1      -5.775   3.417   5.626  0.00  0.00    +0.151 HD
ATOM      6  H   UNL     1      -7.201   5.194   8.272  0.00  0.00    +0.174 HD
ENDROOT
BRANCH   4   7
ATOM      7  N   UNL     1      -6.322   5.577   6.444  0.00  0.00    -0.229 N 
ATOM      8  C   UNL     1      -6.441   6.918   6.509  0.00  0.00    +0.260 C 
ATOM      9  O   UNL     1      -6.956   7.436   7.481  0.00  0.00    -0.269 OA
ATOM     10  H   UNL     1      -5.910   5.164   5.669  0.00  0.00    +0.173 HD
BRANCH   8  11
ATOM     11  C   UNL     1      -5.946   7.759   5.399  0.00  0.00    +0.038 A 
ATOM     12  C   UNL     1      -5.360   7.167   4.279  0.00  0.00    +0.013 A 
ATOM     13  C   UNL     1      -4.900   7.958   3.246  0.00  0.00    +0.001 A 
ATOM     14  C   UNL     1      -5.020   9.335   3.318  0.00  0.00    +0.003 A 
ATOM     15  C   UNL     1      -5.599   9.927   4.425  0.00  0.00    -0.050 A 
ATOM     16  C   UNL     1      -6.069   9.148   5.463  0.00  0.00    +0.016 A 
ATOM     17  C   UNL     1      -5.724  11.428   4.496  0.00  0.00    +0.044 C 
ENDBRANCH   8  11
ENDBRANCH   4   7
BRANCH   1  18
ATOM     18  C   UNL     1      -5.970   1.408   6.284  0.00  0.00    +0.141 C 
BRANCH  18  22
ATOM     19  C   UNL     1      -4.078   0.322   2.606  0.00  0.00    +0.037 A 
ATOM     20  C   UNL     1      -3.308   0.570   3.743  0.00  0.00    +0.013 A 
ATOM     21  C   UNL     1      -3.925   0.921   4.927  0.00  0.00    +0.006 A 
ATOM     22  C   UNL     1      -5.303   1.025   4.987  0.00  0.00    -0.030 A 
ATOM     23  C   UNL     1      -6.072   0.780   3.864  0.00  0.00    +0.006 A 
ATOM     24  C   UNL     1      -5.467   0.435   2.672  0.00  0.00    +0.013 A 
BRANCH  19  26
ATOM     25  N   UNL     1      -2.082  -0.162   1.273  0.00  0.00    -0.309 N 
ATOM     26  C   UNL     1      -3.424  -0.053   1.334  0.00  0.00    +0.244 C 
ATOM     27  O   UNL     1      -4.096  -0.264   0.344  0.00  0.00    -0.270 OA
ATOM     28  H   UNL     1      -1.545   0.006   2.063  0.00  0.00    +0.149 HD
BRANCH  25  29
ATOM     29  C   UNL     1      -1.433  -0.534   0.013  0.00  0.00    +0.070 C 
ATOM     30  C   UNL     1      -1.416  -2.058  -0.121  0.00  0.00    +0.028 C 
BRANCH  29  32
ATOM     31  C   UNL     1      -0.019   1.526   0.010  0.00  0.00    +0.005 C 
ATOM     32  C   UNL     1       0.002  -0.004   0.002  0.00  0.00    +0.018 C 
ENDBRANCH  29  32
ENDBRANCH  25  29
ENDBRANCH  19  26
ENDBRANCH  18  22
ENDBRANCH   1  18
TORSDOF 7
