REMARK  Name = ZINC43225519
REMARK  7 active torsions:
REMARK  status: ('A' for Active; 'I' for Inactive)
REMARK    1  A    between atoms: C_1  and  C_2
REMARK    2  A    between atoms: C_2  and  C_3
REMARK    3  A    between atoms: C_4  and  C_20
REMARK    4  A    between atoms: C_5  and  C_17
REMARK    5  A    between atoms: C_6  and  C_16
REMARK    6  A    between atoms: N_7  and  C_8
REMARK    7  A    between atoms: C_23  and  C_26
REMARK                            x       y       z     vdW  Elec       q    Type
REMARK                         _______ _______ _______ _____ _____    ______ ____
ROOT
ATOM      1  C   UNL     1       0.724  -0.578   1.200  0.00  0.00    +0.027 A 
ATOM      2  C   UNL     1       2.016  -0.992   1.258  0.00  0.00    +0.015 A 
ATOM      3  C   UNL     1       2.288  -1.278   2.678  0.00  0.00    +0.065 A 
ATOM      4  C   UNL     1       1.128  -1.007   3.347  0.00  0.00    +0.029 A 
ATOM      5  N   UNL     1       0.207  -0.586   2.460  0.00  0.00    -0.344 N 
ATOM      6  C   UNL     1       0.917  -1.150   4.832  0.00  0.00    +0.064 C 
ENDROOT
BRANCH   5   7
ATOM      7  C   UNL     1      -1.163  -0.195   2.801  0.00  0.00    +0.087 C 
ATOM      8  C   UNL     1      -1.130   0.881   3.889  0.00  0.00    +0.025 C 
ATOM      9  C   UNL     1      -2.495   1.569   3.968  0.00  0.00    +0.002 C 
ATOM     10  C   UNL     1      -2.999   1.865   2.554  0.00  0.00    +0.000 C 
ATOM     11  C   UNL     1      -4.233   1.008   2.263  0.00  0.00    +0.000 C 
ATOM     12  C   UNL     1      -3.798  -0.431   1.979  0.00  0.00    +0.000 C 
ATOM     13  C   UNL     1      -3.430  -1.121   3.294  0.00  0.00    +0.002 C 
ATOM     14  C   UNL     1      -1.929  -1.416   3.315  0.00  0.00    +0.025 C 
ENDBRANCH   5   7
BRANCH   2  15
ATOM     15  C   UNL     1       2.960  -1.131   0.123  0.00  0.00    -0.015 A 
ATOM     16  C   UNL     1       2.715  -2.066  -0.881  0.00  0.00    +0.009 A 
ATOM     17  C   UNL     1       3.597  -2.190  -1.935  0.00  0.00    +0.004 A 
ATOM     18  C   UNL     1       4.723  -1.389  -1.996  0.00  0.00    -0.050 A 
ATOM     19  C   UNL     1       4.971  -0.459  -1.003  0.00  0.00    +0.004 A 
ATOM     20  C   UNL     1       4.093  -0.322   0.053  0.00  0.00    +0.009 A 
ATOM     21  C   UNL     1       5.683  -1.531  -3.149  0.00  0.00    +0.044 C 
ENDBRANCH   2  15
BRANCH   3  22
ATOM     22  C   UNL     1       3.553  -1.758   3.257  0.00  0.00    +0.244 C 
ATOM     23  O   UNL     1       4.389  -0.961   3.636  0.00  0.00    -0.270 OA
ATOM     24  N   UNL     1       3.784  -3.081   3.367  0.00  0.00    -0.325 N 
ATOM     25  H   UNL     1       3.116  -3.717   3.065  0.00  0.00    +0.145 HD
ATOM     26  H   UNL     1       4.617  -3.398   3.749  0.00  0.00    +0.145 HD
ENDBRANCH   3  22
BRANCH   1  28
ATOM     27  C   UNL     1       0.174   1.330  -0.286  0.00  0.00    +0.010 C 
ATOM     28  C   UNL     1      -0.012  -0.170  -0.050  0.00  0.00    +0.050 C 
ENDBRANCH   1  28
TORSDOF 4
