REMARK  Name = ZINC09637517
REMARK  11 active torsions:
REMARK  status: ('A' for Active; 'I' for Inactive)
REMARK    1  A    between atoms: C_1  and  C_2
REMARK    2  A    between atoms: C_2  and  C_3
REMARK    3  A    between atoms: C_3  and  C_4
REMARK    4  A    between atoms: C_4  and  C_5
REMARK    5  A    between atoms: C_8  and  C_11
REMARK    6  A    between atoms: N_13  and  C_14
REMARK    7  A    between atoms: C_17  and  S_20
REMARK    8  A    between atoms: S_20  and  N_23
REMARK    9  A    between atoms: N_23  and  C_24
REMARK   10  A    between atoms: N_23  and  C_25
REMARK   11  A    between atoms: C_30  and  N_70
REMARK                            x       y       z     vdW  Elec       q    Type
REMARK                         _______ _______ _______ _____ _____    ______ ____
ROOT
ATOM      1  C   UNL     1      -1.030  -5.761  -0.050  0.00  0.00    +0.034 A 
ATOM      2  C   UNL     1      -2.135  -5.130   0.504  0.00  0.00    +0.025 A 
ATOM      3  C   UNL     1      -2.417  -3.818   0.175  0.00  0.00    +0.030 A 
ATOM      4  C   UNL     1      -1.599  -3.134  -0.705  0.00  0.00    +0.106 A 
ATOM      5  C   UNL     1      -0.500  -3.761  -1.263  0.00  0.00    +0.030 A 
ATOM      6  C   UNL     1      -0.210  -5.071  -0.934  0.00  0.00    +0.025 A 
ENDROOT
BRANCH   1   9
ATOM      7  C   UNL     1      -1.746  -7.954   0.533  0.00  0.00    +0.220 C 
ATOM      8  O   UNL     1      -2.897  -7.606   0.380  0.00  0.00    -0.275 OA
ATOM      9  N   UNL     1      -0.742  -7.090   0.281  0.00  0.00    -0.285 N 
ATOM     10  H   UNL     1       0.179  -7.389   0.329  0.00  0.00    +0.155 HD
BRANCH   7  14
ATOM     11  C   UNL     1      -2.664 -10.902  -1.156  0.00  0.00    -0.011 C 
ATOM     12  C   UNL     1      -3.513 -10.185  -0.105  0.00  0.00    +0.004 C 
ATOM     13  C   UNL     1      -2.742 -10.119   1.215  0.00  0.00    +0.013 C 
ATOM     14  C   UNL     1      -1.436  -9.351   1.004  0.00  0.00    +0.075 C 
ATOM     15  C   UNL     1      -0.587 -10.068  -0.047  0.00  0.00    +0.013 C 
ATOM     16  C   UNL     1      -1.358 -10.134  -1.367  0.00  0.00    +0.004 C 
BRANCH  11  17
ATOM     17  C   UNL     1      -3.436 -10.968  -2.476  0.00  0.00    +0.003 C 
BRANCH  17  18
ATOM     18  C   UNL     1      -2.640 -11.792  -3.491  0.00  0.00    +0.000 C 
BRANCH  18  20
ATOM     19  C   UNL     1      -2.616 -12.683  -5.825  0.00  0.00    +0.004 C 
ATOM     20  C   UNL     1      -3.412 -11.859  -4.811  0.00  0.00    -0.003 C 
ENDBRANCH  18  20
ENDBRANCH  17  18
ENDBRANCH  11  17
ENDBRANCH   7  14
ENDBRANCH   1   9
BRANCH   4  21
ATOM     21  S   UNL     1      -1.961  -1.461  -1.123  0.00  0.00    +0.061 S 
ATOM     22  O   UNL     1      -3.352  -1.278  -0.896  0.00  0.00    -0.153 OA
ATOM     23  O   UNL     1      -1.357  -1.217  -2.385  0.00  0.00    -0.153 OA
BRANCH  21  24
ATOM     24  N   UNL     1      -1.173  -0.501  -0.027  0.00  0.00    -0.177 NA
ATOM     25  C   UNL     1      -1.841  -0.107   1.216  0.00  0.00    +0.132 C 
BRANCH  24  26
ATOM     26  C   UNL     1       0.192  -0.045  -0.302  0.00  0.00    +0.076 C 
ATOM     27  C   UNL     1       0.224   1.485  -0.334  0.00  0.00    +0.002 C 
ATOM     28  C   UNL     1       1.662   1.956  -0.560  0.00  0.00    -0.078 C 
ATOM     29  C   UNL     1       2.541  -0.014   0.543  0.00  0.00    -0.078 C 
ATOM     30  C   UNL     1       1.129  -0.544   0.802  0.00  0.00    +0.002 C 
ATOM     31  C   UNL     1       3.878   2.000   0.414  0.00  0.00    -0.096 C 
ATOM     32  N   UNL     1       2.508   1.464   0.548  0.00  0.00    +0.378 N 
ATOM     33  H   UNL     1       2.110   1.785   1.438  0.00  0.00    -0.082 HD
ENDBRANCH  24  26
ENDBRANCH  21  24
ENDBRANCH   4  21
TORSDOF 8
