REMARK  Name = ZINC35337834
REMARK  11 active torsions:
REMARK  status: ('A' for Active; 'I' for Inactive)
REMARK    1  A    between atoms: C_1  and  C_2
REMARK    2  A    between atoms: C_3  and  C_33
REMARK    3  A    between atoms: C_4  and  C_13
REMARK    4  A    between atoms: C_16  and  N_19
REMARK    5  A    between atoms: N_19  and  S_20
REMARK    6  A    between atoms: S_20  and  C_23
REMARK    7  A    between atoms: C_26  and  C_29
REMARK    8  A    between atoms: C_29  and  C_30
REMARK    9  A    between atoms: C_29  and  C_31
REMARK   10  A    between atoms: C_29  and  C_32
REMARK   11  A    between atoms: N_35  and  C_36
REMARK                            x       y       z     vdW  Elec       q    Type
REMARK                         _______ _______ _______ _____ _____    ______ ____
ROOT
ATOM      1  C   UNL     1      -1.317  -2.736   1.467  0.00  0.00    -0.022 A 
ATOM      2  C   UNL     1      -0.182  -2.757   2.257  0.00  0.00    +0.007 A 
ATOM      3  C   UNL     1      -0.267  -3.146   3.579  0.00  0.00    +0.025 A 
ATOM      4  C   UNL     1      -1.494  -3.517   4.115  0.00  0.00    +0.048 A 
ATOM      5  C   UNL     1      -2.632  -3.494   3.318  0.00  0.00    +0.025 A 
ATOM      6  C   UNL     1      -2.541  -3.099   1.998  0.00  0.00    +0.007 A 
ENDROOT
BRANCH   1  10
ATOM      7  C   UNL     1       0.079   1.334  -0.122  0.00  0.00    +0.064 C 
ATOM      8  C   UNL     1       0.029  -0.172  -0.104  0.00  0.00    +0.025 C 
ATOM      9  C   UNL     1      -1.176  -0.805  -0.058  0.00  0.00    +0.058 C 
ATOM     10  C   UNL     1      -1.221  -2.311   0.024  0.00  0.00    +0.142 C 
ATOM     11  N   UNL     1       0.014  -2.852  -0.574  0.00  0.00    -0.300 N 
ATOM     12  C   UNL     1      -0.084  -4.043  -1.397  0.00  0.00    +0.109 C 
ATOM     13  C   UNL     1       1.099  -4.980  -1.365  0.00  0.00    +0.030 C 
ATOM     14  C   UNL     1       2.401  -4.268  -1.738  0.00  0.00    +0.078 C 
ATOM     15  S   UNL     1       2.724  -3.021  -0.450  0.00  0.00    -0.092 S 
ATOM     16  C   UNL     1       1.179  -2.168  -0.369  0.00  0.00    +0.135 C 
ATOM     17  N   UNL     1       1.165  -0.867  -0.139  0.00  0.00    -0.341 N 
ATOM     18  H   UNL     1       2.005  -0.406   0.012  0.00  0.00    +0.167 HD
BRANCH   9  19
ATOM     19  C   UNL     1      -2.369  -0.060  -0.087  0.00  0.00    +0.244 C 
ATOM     20  O   UNL     1      -2.327   1.157  -0.154  0.00  0.00    -0.270 OA
ATOM     21  N   UNL     1      -3.559  -0.691  -0.042  0.00  0.00    -0.315 N 
ATOM     22  C   UNL     1      -4.801   0.085  -0.072  0.00  0.00    +0.128 C 
ATOM     23  H   UNL     1      -3.593  -1.659   0.012  0.00  0.00    +0.149 HD
ENDBRANCH   9  19
ENDBRANCH   1  10
BRANCH   4  24
ATOM     24  N   UNL     1      -1.583  -3.911   5.452  0.00  0.00    -0.216 N 
ATOM     25  H   UNL     1      -0.940  -4.539   5.816  0.00  0.00    +0.174 HD
BRANCH  24  26
ATOM     26  S   UNL     1      -2.788  -3.307   6.415  0.00  0.00    +0.072 S 
ATOM     27  O   UNL     1      -4.010  -3.529   5.724  0.00  0.00    -0.150 OA
ATOM     28  O   UNL     1      -2.551  -3.807   7.724  0.00  0.00    -0.150 OA
BRANCH  26  29
ATOM     29  C   UNL     1      -2.564  -1.561   6.495  0.00  0.00    +0.109 A 
ATOM     30  C   UNL     1      -1.688  -1.018   7.416  0.00  0.00    +0.029 A 
ATOM     31  C   UNL     1      -1.513   0.352   7.479  0.00  0.00    +0.006 A 
ATOM     32  C   UNL     1      -2.213   1.178   6.620  0.00  0.00    -0.042 A 
ATOM     33  C   UNL     1      -3.089   0.635   5.699  0.00  0.00    +0.006 A 
ATOM     34  C   UNL     1      -3.261  -0.735   5.633  0.00  0.00    +0.029 A 
BRANCH  32  35
ATOM     35  C   UNL     1      -2.023   2.672   6.690  0.00  0.00    -0.013 C 
ATOM     36  C   UNL     1      -0.557   3.012   6.416  0.00  0.00    +0.015 C 
ATOM     37  C   UNL     1      -2.908   3.348   5.641  0.00  0.00    +0.015 C 
ATOM     38  C   UNL     1      -2.411   3.171   8.083  0.00  0.00    +0.015 C 
ENDBRANCH  32  35
ENDBRANCH  26  29
ENDBRANCH  24  26
ENDBRANCH   4  24
TORSDOF 6
