REMARK  Name = ZINC35163866
REMARK  8 active torsions:
REMARK  status: ('A' for Active; 'I' for Inactive)
REMARK    1  A    between atoms: C_6  and  N_7
REMARK    2  A    between atoms: C_12  and  S_14
REMARK    3  A    between atoms: S_14  and  C_15
REMARK    4  A    between atoms: C_15  and  C_16
REMARK    5  A    between atoms: C_19  and  C_21
REMARK    6  A    between atoms: C_21  and  S_22
REMARK    7  A    between atoms: S_22  and  C_23
REMARK    8  A    between atoms: C_28  and  N_33
REMARK                            x       y       z     vdW  Elec       q    Type
REMARK                         _______ _______ _______ _____ _____    ______ ____
ROOT
ATOM      1  C   UNL     1       8.096   2.837  -0.057  0.00  0.00    +0.230 C 
ATOM      2  O   UNL     1       8.837   1.878  -0.069  0.00  0.00    -0.274 OA
ATOM      3  N   UNL     1       8.607   4.084  -0.056  0.00  0.00    -0.255 N 
ATOM      4  C   UNL     1       9.943   4.264  -0.067  0.00  0.00    +0.230 C 
ATOM      5  O   UNL     1      10.684   3.305  -0.078  0.00  0.00    -0.274 OA
ATOM      6  H   UNL     1       8.014   4.852  -0.046  0.00  0.00    +0.158 HD
ENDROOT
BRANCH   1   7
ATOM      7  C   UNL     1       6.602   2.635  -0.045  0.00  0.00    +0.173 C 
BRANCH   7   8
ATOM      8  S   UNL     1       6.232   0.860  -0.051  0.00  0.00    -0.079 S 
BRANCH   8  17
ATOM      9  C   UNL     1      -0.017   1.383   0.010  0.00  0.00    +0.035 A 
ATOM     10  C   UNL     1       1.160   2.098   0.002  0.00  0.00    +0.032 A 
ATOM     11  C   UNL     1       2.383   1.421  -0.013  0.00  0.00    +0.090 A 
ATOM     12  C   UNL     1       2.396   0.017  -0.021  0.00  0.00    +0.069 A 
ATOM     13  C   UNL     1       1.201  -0.687  -0.013  0.00  0.00    +0.060 A 
ATOM     14  C   UNL     1       0.002  -0.004   0.002  0.00  0.00    +0.128 A 
ATOM     15  N   UNL     1       3.730  -0.356  -0.035  0.00  0.00    -0.333 N 
ATOM     16  H   UNL     1       4.074  -1.263  -0.043  0.00  0.00    +0.168 HD
ATOM     17  C   UNL     1       4.471   0.791  -0.036  0.00  0.00    +0.168 A 
ATOM     18  N   UNL     1       3.677   1.834  -0.023  0.00  0.00    -0.222 NA
BRANCH  14  19
ATOM     19  N   UNL     1      -1.272  -0.757   0.010  0.00  0.00    +0.056 N 
ATOM     20  O   UNL     1      -2.325  -0.163   0.023  0.00  0.00    -0.126 OA
ATOM     21  O   UNL     1      -1.261  -1.966   0.004  0.00  0.00    -0.126 OA
ENDBRANCH  14  19
ENDBRANCH   8  17
ENDBRANCH   7   8
ENDBRANCH   1   7
BRANCH   4  22
ATOM     22  C   UNL     1      10.515   5.659  -0.064  0.00  0.00    +0.173 C 
BRANCH  22  23
ATOM     23  S   UNL     1      12.327   5.569  -0.081  0.00  0.00    -0.079 S 
BRANCH  23  24
ATOM     24  C   UNL     1      12.837   7.255  -0.077  0.00  0.00    +0.168 A 
ATOM     25  N   UNL     1      14.135   7.683  -0.092  0.00  0.00    -0.333 N 
ATOM     26  H   UNL     1      14.925   7.121  -0.106  0.00  0.00    +0.168 HD
ATOM     27  C   UNL     1      14.111   9.068  -0.083  0.00  0.00    +0.069 A 
ATOM     28  C   UNL     1      15.093  10.046  -0.090  0.00  0.00    +0.060 A 
ATOM     29  C   UNL     1      14.735  11.379  -0.077  0.00  0.00    +0.128 A 
ATOM     30  C   UNL     1      13.398  11.747  -0.057  0.00  0.00    +0.035 A 
ATOM     31  C   UNL     1      12.409  10.789  -0.049  0.00  0.00    +0.032 A 
ATOM     32  C   UNL     1      12.755   9.435  -0.063  0.00  0.00    +0.090 A 
ATOM     33  N   UNL     1      12.029   8.287  -0.065  0.00  0.00    -0.222 NA
BRANCH  29  34
ATOM     34  N   UNL     1      15.785  12.423  -0.084  0.00  0.00    +0.056 N 
ATOM     35  O   UNL     1      16.951  12.106  -0.101  0.00  0.00    -0.126 OA
ATOM     36  O   UNL     1      15.476  13.591  -0.072  0.00  0.00    -0.126 OA
ENDBRANCH  29  34
ENDBRANCH  23  24
ENDBRANCH  22  23
ENDBRANCH   4  22
TORSDOF 8
