REMARK  Name = ZINC20617321
REMARK  5 active torsions:
REMARK  status: ('A' for Active; 'I' for Inactive)
REMARK    1  A    between atoms: C_1  and  C_2
REMARK    2  A    between atoms: C_6  and  C_10
REMARK    3  A    between atoms: N_15  and  C_16
REMARK    4  A    between atoms: C_26  and  C_29
REMARK    5  A    between atoms: C_29  and  O_30
REMARK                            x       y       z     vdW  Elec       q    Type
REMARK                         _______ _______ _______ _____ _____    ______ ____
ROOT
ATOM      1  C   UNL     1      -1.501  -4.738  -0.329  0.00  0.00    +0.141 A 
ATOM      2  N   UNL     1      -0.294  -4.188  -0.244  0.00  0.00    -0.139 NA
ATOM      3  N   UNL     1      -0.137  -2.940  -0.143  0.00  0.00    -0.125 NA
ATOM      4  C   UNL     1      -1.169  -2.104  -0.102  0.00  0.00    +0.186 A 
ATOM      5  S   UNL     1      -2.521  -3.269  -0.241  0.00  0.00    -0.030 S 
ATOM      6  N   UNL     1      -1.192  -0.724   0.010  0.00  0.00    -0.292 N 
ATOM      7  H   UNL     1      -2.145  -0.181  -0.073  0.00  0.00    +0.154 HD
ENDROOT
BRANCH   1  13
ATOM      8  C   UNL     1      -4.608 -10.489  -0.898  0.00  0.00    +0.069 C 
ATOM      9  C   UNL     1      -3.143 -10.142  -0.823  0.00  0.00    +0.081 A 
ATOM     10  C   UNL     1      -2.753  -8.814  -0.701  0.00  0.00    +0.160 A 
ATOM     11  C   UNL     1      -1.378  -8.524  -0.633  0.00  0.00    +0.027 A 
ATOM     12  C   UNL     1      -0.932  -7.137  -0.512  0.00  0.00    +0.029 A 
ATOM     13  C   UNL     1      -1.889  -6.155  -0.457  0.00  0.00    +0.094 A 
ATOM     14  C   UNL     1      -3.305  -6.537  -0.533  0.00  0.00    +0.347 A 
ATOM     15  O   UNL     1      -4.162  -5.674  -0.490  0.00  0.00    -0.244 OA
ATOM     16  O   UNL     1      -3.667  -7.824  -0.650  0.00  0.00    -0.420 OA
ATOM     17  C   UNL     1      -0.463  -9.584  -0.691  0.00  0.00    +0.007 A 
ATOM     18  C   UNL     1      -0.943 -10.859  -0.811  0.00  0.00    +0.117 A 
ATOM     19  N   UNL     1      -2.241 -11.100  -0.872  0.00  0.00    -0.256 NA
BRANCH  17  20
ATOM     20  C   UNL     1       1.020  -9.325  -0.621  0.00  0.00    +0.193 C 
BRANCH  20  21
ATOM     21  O   UNL     1       1.725 -10.565  -0.701  0.00  0.00    -0.390 OA
ATOM     22  H   UNL     1       2.824 -10.576  -0.666  0.00  0.00    +0.210 HD
ENDBRANCH  20  21
ENDBRANCH  17  20
ENDBRANCH   1  13
BRANCH   6  23
ATOM     23  C   UNL     1      -0.007  -0.023   0.228  0.00  0.00    +0.041 A 
ATOM     24  C   UNL     1       1.162  -0.700   0.504  0.00  0.00    +0.024 A 
ATOM     25  C   UNL     1       2.350  -0.010   0.724  0.00  0.00    +0.002 A 
ATOM     26  C   UNL     1       2.392   1.351   0.673  0.00  0.00    +0.008 A 
ATOM     27  C   UNL     1       1.223   2.079   0.395  0.00  0.00    -0.016 A 
ATOM     28  C   UNL     1       0.007   1.388   0.169  0.00  0.00    +0.003 A 
ATOM     29  C   UNL     1      -1.158   2.117  -0.114  0.00  0.00    +0.010 A 
ATOM     30  C   UNL     1      -1.108   3.477  -0.158  0.00  0.00    +0.001 A 
ATOM     31  C   UNL     1       0.087   4.158   0.064  0.00  0.00    +0.001 A 
ATOM     32  C   UNL     1       1.237   3.484   0.336  0.00  0.00    +0.008 A 
ENDBRANCH   6  23
TORSDOF 4
