REMARK  Name = ZINC22681271
REMARK  7 active torsions:
REMARK  status: ('A' for Active; 'I' for Inactive)
REMARK    1  A    between atoms: C_1  and  C_2
REMARK    2  A    between atoms: N_5  and  C_8
REMARK    3  A    between atoms: C_8  and  C_10
REMARK    4  A    between atoms: C_8  and  C_27
REMARK    5  A    between atoms: C_10  and  N_11
REMARK    6  A    between atoms: C_12  and  C_14
REMARK    7  A    between atoms: C_14  and  C_15
REMARK                            x       y       z     vdW  Elec       q    Type
REMARK                         _______ _______ _______ _____ _____    ______ ____
ROOT
ATOM      1  N   UNL     1      -0.407   1.904   1.171  0.00  0.00    -0.316 N 
ATOM      2  C   UNL     1       0.302   1.957   2.316  0.00  0.00    +0.215 C 
ATOM      3  O   UNL     1       1.466   1.617   2.324  0.00  0.00    -0.276 OA
ATOM      4  H   UNL     1      -1.463   2.212   1.163  0.00  0.00    +0.149 HD
ENDROOT
BRANCH   1   5
ATOM      5  C   UNL     1       0.229   1.436  -0.064  0.00  0.00    +0.094 C 
BRANCH   5   6
ATOM      6  C   UNL     1      -0.747   1.593  -1.231  0.00  0.00    -0.013 C 
BRANCH   6  11
ATOM      7  C   UNL     1      -2.111   7.015  -2.421  0.00  0.00    +0.007 C 
ATOM      8  C   UNL     1      -1.578   5.584  -2.520  0.00  0.00    -0.018 C 
ATOM      9  C   UNL     1      -0.540   5.348  -1.418  0.00  0.00    -0.015 C 
ATOM     10  C   UNL     1      -0.054   3.898  -1.485  0.00  0.00    -0.078 C 
ATOM     11  N   UNL     1      -1.195   2.990  -1.311  0.00  0.00    +0.386 N 
ATOM     12  C   UNL     1      -2.182   3.166  -2.384  0.00  0.00    -0.078 C 
ATOM     13  C   UNL     1      -2.732   4.593  -2.344  0.00  0.00    -0.015 C 
ATOM     14  H   UNL     1      -1.684   3.244  -0.360  0.00  0.00    -0.081 HD
ENDBRANCH   6  11
BRANCH   6  15
ATOM     15  C   UNL     1      -0.059   1.211  -2.516  0.00  0.00    -0.022 A 
ATOM     16  C   UNL     1      -0.359   0.212  -3.381  0.00  0.00    +0.009 A 
ATOM     17  C   UNL     1       0.420   0.047  -4.511  0.00  0.00    +0.008 A 
ATOM     18  C   UNL     1       1.461   0.889  -4.721  0.00  0.00    +0.045 A 
ATOM     19  S   UNL     1       1.359   1.963  -3.298  0.00  0.00    -0.103 S 
ENDBRANCH   6  15
ENDBRANCH   5   6
ENDBRANCH   1   5
BRANCH   2  20
ATOM     20  C   UNL     1      -0.352   2.438   3.585  0.00  0.00    +0.119 C 
BRANCH  20  21
ATOM     21  C   UNL     1       0.664   2.400   4.728  0.00  0.00    +0.146 C 
ATOM     22  C   UNL     1      -0.010   2.788   6.019  0.00  0.00    +0.231 C 
ATOM     23  O   UNL     1      -0.373   1.905   6.767  0.00  0.00    -0.274 OA
ATOM     24  N   UNL     1      -0.227   4.049   6.376  0.00  0.00    -0.284 N 
ATOM     25  C   UNL     1       0.216   5.189   5.712  0.00  0.00    +0.047 A 
ATOM     26  C   UNL     1      -0.378   6.415   5.997  0.00  0.00    +0.024 A 
ATOM     27  C   UNL     1       0.031   7.556   5.338  0.00  0.00    +0.002 A 
ATOM     28  C   UNL     1       1.034   7.496   4.388  0.00  0.00    +0.001 A 
ATOM     29  C   UNL     1       1.636   6.286   4.097  0.00  0.00    +0.016 A 
ATOM     30  C   UNL     1       1.232   5.138   4.758  0.00  0.00    +0.030 A 
ATOM     31  S   UNL     1       2.001   3.590   4.398  0.00  0.00    -0.110 S 
ATOM     32  H   UNL     1      -0.812   4.271   7.281  0.00  0.00    +0.155 HD
ENDBRANCH  20  21
ENDBRANCH   2  20
TORSDOF 6
