REMARK  Name = ZINC06442044
REMARK  8 active torsions:
REMARK  status: ('A' for Active; 'I' for Inactive)
REMARK    1  A    between atoms: C_1  and  C_2
REMARK    2  A    between atoms: C_7  and  C_15
REMARK    3  A    between atoms: C_13  and  C_14
REMARK    4  A    between atoms: C_15  and  C_17
REMARK    5  A    between atoms: C_15  and  N_69
REMARK    6  A    between atoms: N_21  and  C_22
REMARK    7  A    between atoms: C_22  and  C_23
REMARK    8  A    between atoms: N_31  and  C_34
REMARK                            x       y       z     vdW  Elec       q    Type
REMARK                         _______ _______ _______ _____ _____    ______ ____
ROOT
ATOM      1  C   UNL     1       1.665   6.426  -1.703  0.00  0.00    +0.039 C 
ENDROOT
BRANCH   1   8
ATOM      2  C   UNL     1       5.998  12.707   0.619  0.00  0.00    +0.044 C 
ATOM      3  C   UNL     1       5.114  11.506   0.404  0.00  0.00    -0.046 A 
ATOM      4  C   UNL     1       4.427  10.957   1.479  0.00  0.00    +0.004 A 
ATOM      5  C   UNL     1       3.620   9.868   1.306  0.00  0.00    +0.010 A 
ATOM      6  C   UNL     1       3.485   9.301   0.034  0.00  0.00    -0.001 A 
ATOM      7  C   UNL     1       2.629   8.134  -0.187  0.00  0.00    +0.017 A 
ATOM      8  C   UNL     1       2.537   7.627  -1.441  0.00  0.00    +0.011 A 
ATOM      9  C   UNL     1       3.260   8.216  -2.501  0.00  0.00    +0.251 A 
ATOM     10  O   UNL     1       3.166   7.741  -3.619  0.00  0.00    -0.268 OA
ATOM     11  N   UNL     1       4.043   9.291  -2.308  0.00  0.00    -0.322 N 
ATOM     12  H   UNL     1       4.523   9.674  -3.060  0.00  0.00    +0.169 HD
ATOM     13  C   UNL     1       4.180   9.855  -1.058  0.00  0.00    +0.052 A 
ATOM     14  C   UNL     1       4.995  10.964  -0.857  0.00  0.00    -0.024 A 
ATOM     15  C   UNL     1       5.745  11.570  -2.015  0.00  0.00    +0.046 C 
ENDBRANCH   1   8
BRANCH   1  21
ATOM     16  C   UNL     1      -0.092   7.927  -2.425  0.00  0.00    -0.058 C 
ATOM     17  C   UNL     1      -1.022   8.269  -3.591  0.00  0.00    +0.086 C 
ATOM     18  N   UNL     1      -1.891   7.118  -3.874  0.00  0.00    -0.331 N 
ATOM     19  C   UNL     1      -1.095   5.932  -4.218  0.00  0.00    +0.086 C 
ATOM     20  C   UNL     1      -0.164   5.590  -3.051  0.00  0.00    -0.058 C 
ATOM     21  N   UNL     1       0.719   6.747  -2.792  0.00  0.00    +0.391 N 
ATOM     22  H   UNL     1       1.250   6.959  -3.644  0.00  0.00    -0.080 HD
BRANCH  18  23
ATOM     23  C   UNL     1      -2.806   7.418  -4.889  0.00  0.00    +0.065 A 
ATOM     24  C   UNL     1      -3.768   6.487  -5.256  0.00  0.00    +0.026 A 
ATOM     25  C   UNL     1      -4.673   6.788  -6.256  0.00  0.00    +0.002 A 
ATOM     26  C   UNL     1      -4.616   8.012  -6.898  0.00  0.00    +0.003 A 
ATOM     27  C   UNL     1      -3.657   8.941  -6.538  0.00  0.00    +0.040 A 
ATOM     28  C   UNL     1      -2.751   8.648  -5.535  0.00  0.00    +0.144 A 
ATOM     29  F   UNL     1      -1.813   9.556  -5.185  0.00  0.00    -0.204 F 
ENDBRANCH  18  23
ENDBRANCH   1  21
BRANCH   1  30
ATOM     30  C   UNL     1       2.525   5.264  -2.130  0.00  0.00    +0.143 A 
ATOM     31  N   UNL     1       3.095   5.100  -3.299  0.00  0.00    -0.115 NA
ATOM     32  N   UNL     1       3.742   3.986  -3.273  0.00  0.00    -0.023 NA
ATOM     33  N   UNL     1       3.606   3.439  -2.116  0.00  0.00    -0.044 NA
ATOM     34  N   UNL     1       2.858   4.194  -1.384  0.00  0.00    -0.226 N 
BRANCH  34  35
ATOM     35  C   UNL     1       2.451   3.937  -0.001  0.00  0.00    +0.182 C 
BRANCH  35  36
ATOM     36  C   UNL     1       1.156   3.165   0.008  0.00  0.00    -0.026 A 
ATOM     37  C   UNL     1       1.175   1.783   0.000  0.00  0.00    +0.005 A 
ATOM     38  C   UNL     1      -0.013   1.076   0.008  0.00  0.00    +0.000 A 
ATOM     39  C   UNL     1      -1.219   1.751   0.017  0.00  0.00    +0.000 A 
ATOM     40  C   UNL     1      -1.238   3.133   0.030  0.00  0.00    +0.000 A 
ATOM     41  C   UNL     1      -0.050   3.840   0.023  0.00  0.00    +0.005 A 
ENDBRANCH  35  36
ENDBRANCH  34  35
ENDBRANCH   1  30
TORSDOF 6
