REMARK  Name = ZINC39673990
REMARK  6 active torsions:
REMARK  status: ('A' for Active; 'I' for Inactive)
REMARK    1  A    between atoms: C_1  and  C_2
REMARK    2  A    between atoms: C_4  and  C_12
REMARK    3  A    between atoms: C_12  and  C_13
REMARK    4  A    between atoms: C_13  and  N_14
REMARK    5  A    between atoms: C_15  and  C_17
REMARK    6  A    between atoms: C_28  and  C_30
REMARK                            x       y       z     vdW  Elec       q    Type
REMARK                         _______ _______ _______ _____ _____    ______ ____
ROOT
ATOM      1  C   UNL     1      -5.593   3.968   3.089  0.00  0.00    +0.100 C 
ATOM      2  C   UNL     1      -7.053   3.565   2.784  0.00  0.00    +0.121 C 
ATOM      3  N   UNL     1      -7.858   4.274   3.807  0.00  0.00    -0.296 N 
ATOM      4  C   UNL     1      -7.211   5.602   3.930  0.00  0.00    +0.115 C 
ATOM      5  C   UNL     1      -5.701   5.306   3.840  0.00  0.00    -0.004 C 
ATOM      6  C   UNL     1      -4.993   6.409   3.059  0.00  0.00    -0.010 C 
ATOM      7  C   UNL     1      -5.063   7.716   3.854  0.00  0.00    -0.082 C 
ATOM      8  N   UNL     1      -4.427   7.530   5.163  0.00  0.00    +0.379 N 
ATOM      9  C   UNL     1      -5.170   6.534   5.944  0.00  0.00    -0.082 C 
ATOM     10  C   UNL     1      -5.104   5.176   5.238  0.00  0.00    -0.010 C 
ATOM     11  C   UNL     1      -8.935   3.815   4.474  0.00  0.00    +0.247 C 
ATOM     12  O   UNL     1      -9.273   2.653   4.358  0.00  0.00    -0.270 OA
ATOM     13  H   UNL     1      -3.478   7.213   5.032  0.00  0.00    -0.086 HD
ATOM     14  H   UNL     1      -4.420   8.408   5.660  0.00  0.00    -0.086 HD
ENDROOT
BRANCH  11  15
ATOM     15  C   UNL     1      -9.707   4.725   5.348  0.00  0.00    +0.037 A 
ATOM     16  C   UNL     1      -9.619   6.106   5.173  0.00  0.00    +0.013 A 
ATOM     17  C   UNL     1     -10.342   6.950   5.991  0.00  0.00    +0.001 A 
ATOM     18  C   UNL     1     -11.152   6.428   6.984  0.00  0.00    +0.000 A 
ATOM     19  C   UNL     1     -11.242   5.059   7.164  0.00  0.00    +0.001 A 
ATOM     20  C   UNL     1     -10.530   4.205   6.348  0.00  0.00    +0.013 A 
ENDBRANCH  11  15
BRANCH   1  22
ATOM     21  N   UNL     1      -3.495   3.900   1.780  0.00  0.00    -0.315 N 
ATOM     22  C   UNL     1      -4.820   4.147   1.808  0.00  0.00    +0.218 C 
ATOM     23  O   UNL     1      -5.390   4.513   0.802  0.00  0.00    -0.275 OA
ATOM     24  H   UNL     1      -3.040   3.607   2.585  0.00  0.00    +0.149 HD
BRANCH  21  25
ATOM     25  C   UNL     1      -2.744   4.073   0.535  0.00  0.00    +0.109 C 
BRANCH  25  26
ATOM     26  C   UNL     1      -1.272   3.730   0.775  0.00  0.00    +0.056 C 
BRANCH  26  30
ATOM     27  C   UNL     1       0.124   6.336  -0.169  0.00  0.00    +0.063 C 
ATOM     28  C   UNL     1       0.108   5.030  -0.922  0.00  0.00    +0.017 A 
ATOM     29  H   UNL     1       1.202   5.481  -2.637  0.00  0.00    +0.166 HD
ATOM     30  C   UNL     1      -0.499   3.908  -0.506  0.00  0.00    -0.018 A 
ATOM     31  C   UNL     1      -0.267   2.889  -1.533  0.00  0.00    +0.003 A 
ATOM     32  C   UNL     1      -0.636   1.551  -1.672  0.00  0.00    +0.010 A 
ATOM     33  C   UNL     1      -0.251   0.853  -2.782  0.00  0.00    +0.001 A 
ATOM     34  C   UNL     1       0.505   1.464  -3.772  0.00  0.00    +0.002 A 
ATOM     35  C   UNL     1       0.881   2.784  -3.655  0.00  0.00    +0.026 A 
ATOM     36  C   UNL     1       0.500   3.514  -2.533  0.00  0.00    +0.047 A 
ATOM     37  N   UNL     1       0.706   4.816  -2.135  0.00  0.00    -0.358 N 
ENDBRANCH  26  30
ENDBRANCH  25  26
ENDBRANCH  21  25
ENDBRANCH   1  22
TORSDOF 5
