REMARK  Name = ZINC15675532
REMARK  8 active torsions:
REMARK  status: ('A' for Active; 'I' for Inactive)
REMARK    1  A    between atoms: C_1  and  N_2
REMARK    2  A    between atoms: N_2  and  C_3
REMARK    3  A    between atoms: N_2  and  C_4
REMARK    4  A    between atoms: C_7  and  C_10
REMARK    5  A    between atoms: C_10  and  N_11
REMARK    6  A    between atoms: C_20  and  C_22
REMARK    7  A    between atoms: C_24  and  C_27
REMARK    8  A    between atoms: C_30  and  C_33
REMARK                            x       y       z     vdW  Elec       q    Type
REMARK                         _______ _______ _______ _____ _____    ______ ____
ROOT
ATOM      1  N   UNL     1      -5.281  -3.159   1.420  0.00  0.00    -0.281 NA
ATOM      2  C   UNL     1      -4.324  -4.048   2.101  0.00  0.00    +0.140 C 
ATOM      3  C   UNL     1      -4.857  -4.351   3.479  0.00  0.00    +0.051 A 
ATOM      4  C   UNL     1      -6.143  -4.139   3.841  0.00  0.00    +0.040 A 
ATOM      5  N   UNL     1      -6.262  -4.519   5.139  0.00  0.00    -0.349 N 
ATOM      6  H   UNL     1      -7.067  -4.485   5.679  0.00  0.00    +0.166 HD
ATOM      7  C   UNL     1      -5.044  -4.956   5.537  0.00  0.00    +0.171 A 
ATOM      8  N   UNL     1      -4.210  -4.850   4.533  0.00  0.00    -0.349 N 
ATOM      9  C   UNL     1      -7.188  -3.583   2.908  0.00  0.00    +0.083 C 
ATOM     10  C   UNL     1      -6.648  -3.696   1.475  0.00  0.00    +0.152 C 
ATOM     11  H   UNL     1      -3.272  -5.097   4.553  0.00  0.00    +0.166 HD
ENDROOT
BRANCH  10  12
ATOM     12  C   UNL     1      -7.533  -2.911   0.542  0.00  0.00    +0.245 A 
ATOM     13  N   UNL     1      -8.402  -3.416  -0.287  0.00  0.00    -0.190 NA
ATOM     14  C   UNL     1      -9.018  -2.430  -0.965  0.00  0.00    +0.202 A 
ATOM     15  N   UNL     1      -8.535  -1.281  -0.564  0.00  0.00    -0.056 NA
ATOM     16  O   UNL     1      -7.563  -1.577   0.429  0.00  0.00    -0.336 OA
BRANCH  14  17
ATOM     17  C   UNL     1     -10.068  -2.615  -1.997  0.00  0.00    +0.022 A 
ATOM     18  C   UNL     1     -10.501  -3.896  -2.333  0.00  0.00    +0.012 A 
ATOM     19  C   UNL     1     -11.478  -4.062  -3.293  0.00  0.00    +0.013 A 
ATOM     20  C   UNL     1     -12.027  -2.960  -3.922  0.00  0.00    +0.055 A 
ATOM     21  C   UNL     1     -11.602  -1.686  -3.593  0.00  0.00    +0.013 A 
ATOM     22  C   UNL     1     -10.629  -1.508  -2.630  0.00  0.00    +0.012 A 
BRANCH  20  23
ATOM     23  C   UNL     1     -13.094  -3.147  -4.971  0.00  0.00    +0.417 C 
ATOM     24  F   UNL     1     -14.353  -3.136  -4.362  0.00  0.00    -0.166 F 
ATOM     25  F   UNL     1     -13.017  -2.108  -5.904  0.00  0.00    -0.166 F 
ATOM     26  F   UNL     1     -12.899  -4.372  -5.619  0.00  0.00    -0.166 F 
ENDBRANCH  20  23
ENDBRANCH  14  17
ENDBRANCH  10  12
BRANCH   1  27
ATOM     27  C   UNL     1      -4.870  -2.906   0.033  0.00  0.00    +0.120 C 
BRANCH  27  31
ATOM     28  C   UNL     1      -1.198  -0.719   0.010  0.00  0.00    +0.029 A 
ATOM     29  C   UNL     1      -1.181  -2.108   0.008  0.00  0.00    +0.023 A 
ATOM     30  C   UNL     1      -2.369  -2.812   0.016  0.00  0.00    +0.007 A 
ATOM     31  C   UNL     1      -3.575  -2.135   0.025  0.00  0.00    -0.033 A 
ATOM     32  C   UNL     1      -3.596  -0.752   0.027  0.00  0.00    +0.007 A 
ATOM     33  C   UNL     1      -2.411  -0.042   0.025  0.00  0.00    +0.023 A 
BRANCH  28  35
ATOM     34  C   UNL     1      -0.018   1.461   0.010  0.00  0.00    +0.129 C 
ATOM     35  N   UNL     1       0.002  -0.004   0.002  0.00  0.00    -0.336 N 
ATOM     36  C   UNL     1       1.281  -0.719  -0.014  0.00  0.00    +0.129 C 
ENDBRANCH  28  35
ENDBRANCH  27  31
ENDBRANCH   1  27
TORSDOF 6
