REMARK  Name = ZINC19354085
REMARK  7 active torsions:
REMARK  status: ('A' for Active; 'I' for Inactive)
REMARK    1  A    between atoms: C_1  and  C_2
REMARK    2  A    between atoms: C_2  and  C_3
REMARK    3  A    between atoms: C_2  and  O_4
REMARK    4  A    between atoms: O_4  and  C_5
REMARK    5  A    between atoms: C_8  and  C_13
REMARK    6  A    between atoms: C_10  and  O_11
REMARK    7  A    between atoms: O_11  and  C_12
REMARK                            x       y       z     vdW  Elec       q    Type
REMARK                         _______ _______ _______ _____ _____    ______ ____
ROOT
ATOM      1  C   UNL     1       6.291  -0.829  -0.937  0.00  0.00    +0.209 C 
ATOM      2  N   UNL     1       6.828   0.237  -0.071  0.00  0.00    -0.294 N 
ATOM      3  C   UNL     1       6.838   0.070   1.289  0.00  0.00    +0.160 C 
ATOM      4  N   UNL     1       6.946  -1.128   1.836  0.00  0.00    -0.302 N 
ATOM      5  C   UNL     1       6.988  -2.207   1.019  0.00  0.00    +0.213 A 
ATOM      6  N   UNL     1       6.686  -2.104  -0.328  0.00  0.00    -0.286 N 
ATOM      7  C   UNL     1       6.830  -3.351  -0.890  0.00  0.00    +0.076 A 
ATOM      8  C   UNL     1       6.685  -3.858  -2.175  0.00  0.00    +0.077 A 
ATOM      9  C   UNL     1       6.912  -5.200  -2.414  0.00  0.00    +0.164 A 
ATOM     10  C   UNL     1       7.286  -6.049  -1.377  0.00  0.00    +0.164 A 
ATOM     11  C   UNL     1       7.433  -5.563  -0.095  0.00  0.00    +0.079 A 
ATOM     12  C   UNL     1       7.206  -4.207   0.162  0.00  0.00    +0.095 A 
ATOM     13  N   UNL     1       7.272  -3.452   1.301  0.00  0.00    -0.212 NA
ATOM     14  O   UNL     1       7.509  -7.372  -1.636  0.00  0.00    -0.488 OA
ATOM     15  C   UNL     1       6.359  -8.142  -1.991  0.00  0.00    +0.232 C 
ATOM     16  C   UNL     1       6.064  -8.017  -3.477  0.00  0.00    +0.082 C 
ATOM     17  C   UNL     1       5.677  -6.601  -3.873  0.00  0.00    +0.232 C 
ATOM     18  O   UNL     1       6.770  -5.702  -3.677  0.00  0.00    -0.488 OA
ATOM     19  N   UNL     1       6.732   1.169   2.098  0.00  0.00    -0.332 N 
ATOM     20  H   UNL     1       7.173   1.054  -0.463  0.00  0.00    +0.151 HD
ATOM     21  H   UNL     1       6.652   2.053   1.708  0.00  0.00    +0.145 HD
ATOM     22  H   UNL     1       6.738   1.063   3.063  0.00  0.00    +0.145 HD
ATOM     23  H   UNL     1       6.996  -1.231   2.799  0.00  0.00    +0.171 HD
ENDROOT
BRANCH   1  27
ATOM     24  C   UNL     1       2.027  -0.553  -1.118  0.00  0.00    +0.162 A 
ATOM     25  C   UNL     1       2.690  -0.309   0.074  0.00  0.00    +0.050 A 
ATOM     26  C   UNL     1       4.068  -0.399   0.130  0.00  0.00    +0.011 A 
ATOM     27  C   UNL     1       4.788  -0.732  -1.002  0.00  0.00    -0.003 A 
ATOM     28  C   UNL     1       4.133  -0.977  -2.195  0.00  0.00    +0.056 A 
ATOM     29  C   UNL     1       2.751  -0.894  -2.256  0.00  0.00    +0.162 A 
BRANCH  29  30
ATOM     30  O   UNL     1       2.105  -1.140  -3.427  0.00  0.00    -0.491 OA
ATOM     31  C   UNL     1       2.913  -1.484  -4.554  0.00  0.00    +0.277 C 
ENDBRANCH  29  30
BRANCH  24  32
ATOM     32  O   UNL     1       0.671  -0.465  -1.174  0.00  0.00    -0.486 OA
BRANCH  32  34
ATOM     33  C   UNL     1      -0.051   1.266   0.351  0.00  0.00    +0.051 C 
ATOM     34  C   UNL     1      -0.016  -0.236   0.058  0.00  0.00    +0.167 C 
ATOM     35  C   UNL     1      -1.446  -0.768  -0.049  0.00  0.00    +0.051 C 
ENDBRANCH  32  34
ENDBRANCH  24  32
ENDBRANCH   1  27
TORSDOF 4
