REMARK  Name = ZINC13770689
REMARK  11 active torsions:
REMARK  status: ('A' for Active; 'I' for Inactive)
REMARK    1  A    between atoms: C_1  and  C_2
REMARK    2  A    between atoms: C_2  and  C_3
REMARK    3  A    between atoms: C_3  and  S_4
REMARK    4  A    between atoms: S_4  and  C_5
REMARK    5  A    between atoms: C_16  and  C_18
REMARK    6  A    between atoms: C_16  and  C_19
REMARK    7  A    between atoms: C_19  and  C_20
REMARK    8  A    between atoms: N_21  and  N_22
REMARK    9  A    between atoms: C_23  and  C_25
REMARK   10  A    between atoms: C_28  and  O_31
REMARK   11  A    between atoms: O_31  and  C_32
REMARK                            x       y       z     vdW  Elec       q    Type
REMARK                         _______ _______ _______ _____ _____    ______ ____
ROOT
ATOM      1  C   UNL     1      -0.616   0.488  -7.670  0.00  0.00    +0.191 A 
ATOM      2  N   UNL     1      -0.026  -0.296  -6.781  0.00  0.00    -0.205 NA
ATOM      3  C   UNL     1      -0.050  -0.080  -5.468  0.00  0.00    +0.148 A 
ATOM      4  C   UNL     1      -0.765   1.077  -5.039  0.00  0.00    +0.052 A 
ATOM      5  C   UNL     1      -0.947   1.541  -3.676  0.00  0.00    -0.020 A 
ATOM      6  C   UNL     1      -1.669   2.674  -3.508  0.00  0.00    +0.021 A 
ATOM      7  S   UNL     1      -2.140   3.173  -5.143  0.00  0.00    -0.071 S 
ATOM      8  C   UNL     1      -1.371   1.868  -6.048  0.00  0.00    +0.115 A 
ATOM      9  N   UNL     1      -1.300   1.584  -7.334  0.00  0.00    -0.215 NA
ATOM     10  C   UNL     1      -1.986   3.337  -2.204  0.00  0.00    +0.203 C 
ATOM     11  O   UNL     1      -1.142   2.760  -1.196  0.00  0.00    -0.368 OA
ATOM     12  C   UNL     1      -1.129   1.330  -1.215  0.00  0.00    +0.071 C 
ATOM     13  C   UNL     1      -0.378   0.827  -2.451  0.00  0.00    +0.071 C 
ATOM     14  C   UNL     1      -2.567   0.810  -1.252  0.00  0.00    +0.042 C 
ATOM     15  N   UNL     1       0.580  -0.925  -4.574  0.00  0.00    -0.248 N 
ATOM     16  H   UNL     1       0.682  -0.661  -3.646  0.00  0.00    +0.172 HD
ENDROOT
BRANCH  15  17
ATOM     17  N   UNL     1       1.071  -2.164  -5.008  0.00  0.00    -0.231 N 
ATOM     18  C   UNL     1       1.685  -2.988  -4.136  0.00  0.00    +0.260 C 
ATOM     19  O   UNL     1       1.813  -2.657  -2.973  0.00  0.00    -0.269 OA
ATOM     20  H   UNL     1       0.969  -2.428  -5.936  0.00  0.00    +0.173 HD
BRANCH  18  21
ATOM     21  C   UNL     1       2.202  -4.293  -4.593  0.00  0.00    +0.038 A 
ATOM     22  C   UNL     1       2.051  -4.678  -5.928  0.00  0.00    +0.016 A 
ATOM     23  C   UNL     1       2.540  -5.893  -6.352  0.00  0.00    +0.046 A 
ATOM     24  C   UNL     1       3.173  -6.742  -5.452  0.00  0.00    +0.120 A 
ATOM     25  C   UNL     1       3.320  -6.365  -4.122  0.00  0.00    +0.046 A 
ATOM     26  C   UNL     1       2.839  -5.149  -3.691  0.00  0.00    +0.016 A 
BRANCH  24  27
ATOM     27  O   UNL     1       3.649  -7.941  -5.872  0.00  0.00    -0.495 OA
ATOM     28  C   UNL     1       3.464  -8.265  -7.251  0.00  0.00    +0.277 C 
ENDBRANCH  24  27
ENDBRANCH  18  21
ENDBRANCH  15  17
BRANCH  12  29
ATOM     29  C   UNL     1      -0.434   0.812   0.046  0.00  0.00    +0.032 C 
ATOM     30  C   UNL     1      -1.259   1.194   1.276  0.00  0.00    +0.007 C 
ENDBRANCH  12  29
BRANCH   1  31
ATOM     31  S   UNL     1      -0.493   0.065  -9.376  0.00  0.00    -0.086 S 
BRANCH  31  32
ATOM     32  C   UNL     1      -1.442   1.423 -10.106  0.00  0.00    +0.077 C 
BRANCH  32  34
ATOM     33  C   UNL     1      -2.277   2.410 -12.244  0.00  0.00    +0.004 C 
ATOM     34  C   UNL     1      -1.474   1.263 -11.627  0.00  0.00    +0.008 C 
ENDBRANCH  32  34
ENDBRANCH  31  32
ENDBRANCH   1  31
TORSDOF 7
