REMARK  Name = ZINC04852437
REMARK  8 active torsions:
REMARK  status: ('A' for Active; 'I' for Inactive)
REMARK    1  A    between atoms: C_1  and  C_2
REMARK    2  A    between atoms: C_2  and  C_3
REMARK    3  A    between atoms: C_6  and  C_9
REMARK    4  A    between atoms: C_9  and  N_10
REMARK    5  A    between atoms: C_11  and  N_26
REMARK    6  A    between atoms: C_12  and  C_15
REMARK    7  A    between atoms: N_17  and  C_18
REMARK    8  A    between atoms: C_23  and  C_24
REMARK                            x       y       z     vdW  Elec       q    Type
REMARK                         _______ _______ _______ _____ _____    ______ ____
ROOT
ATOM      1  N   UNL     1      -2.029   2.478   5.967  0.00  0.00    -0.226 N 
ATOM      2  C   UNL     1      -2.252   1.312   6.618  0.00  0.00    +0.147 A 
ATOM      3  C   UNL     1      -1.345   1.269   7.669  0.00  0.00    +0.188 A 
ATOM      4  N   UNL     1      -0.613   2.398   7.633  0.00  0.00    -0.123 NA
ATOM      5  N   UNL     1      -0.990   3.130   6.644  0.00  0.00    -0.063 NA
ENDROOT
BRANCH   3   6
ATOM      6  C   UNL     1      -1.213   0.186   8.651  0.00  0.00    +0.272 C 
ATOM      7  O   UNL     1      -1.936  -0.790   8.581  0.00  0.00    -0.268 OA
ATOM      8  N   UNL     1      -0.290   0.273   9.630  0.00  0.00    -0.280 N 
ATOM      9  H   UNL     1       0.339   1.011   9.639  0.00  0.00    +0.155 HD
BRANCH   8  10
ATOM     10  C   UNL     1      -0.240  -0.701  10.632  0.00  0.00    +0.038 A 
ATOM     11  C   UNL     1      -1.377  -1.435  10.946  0.00  0.00    +0.043 A 
ATOM     12  C   UNL     1      -1.324  -2.397  11.937  0.00  0.00    +0.043 A 
ATOM     13  C   UNL     1      -0.139  -2.629  12.615  0.00  0.00    +0.020 A 
ATOM     14  C   UNL     1       0.993  -1.900  12.303  0.00  0.00    +0.006 A 
ATOM     15  C   UNL     1       0.948  -0.941  11.310  0.00  0.00    -0.029 A 
ATOM     16  C   UNL     1       2.185  -0.152  10.967  0.00  0.00    +0.045 C 
ATOM     17 CL   UNL     1      -2.744  -3.314  12.332  0.00  0.00    -0.083 Cl
ENDBRANCH   8  10
ENDBRANCH   3   6
BRANCH   2  18
ATOM     18  N   UNL     1      -3.193   0.354   6.299  0.00  0.00    -0.341 N 
ATOM     19  H   UNL     1      -3.779   0.485   5.537  0.00  0.00    +0.144 HD
ATOM     20  H   UNL     1      -3.268  -0.450   6.836  0.00  0.00    +0.144 HD
ENDBRANCH   2  18
BRANCH   1  21
ATOM     21  C   UNL     1      -2.742   2.968   4.785  0.00  0.00    +0.182 C 
BRANCH  21  25
ATOM     22  C   UNL     1      -0.744   1.621   1.257  0.00  0.00    -0.048 A 
ATOM     23  C   UNL     1      -0.390   2.826   1.834  0.00  0.00    +0.004 A 
ATOM     24  C   UNL     1      -1.040   3.264   2.974  0.00  0.00    +0.006 A 
ATOM     25  C   UNL     1      -2.037   2.492   3.540  0.00  0.00    -0.026 A 
ATOM     26  C   UNL     1      -2.387   1.285   2.966  0.00  0.00    +0.006 A 
ATOM     27  C   UNL     1      -1.740   0.849   1.825  0.00  0.00    +0.004 A 
BRANCH  22  29
ATOM     28  C   UNL     1      -0.785   1.657  -1.222  0.00  0.00    +0.009 C 
ATOM     29  C   UNL     1      -0.039   1.146   0.013  0.00  0.00    +0.032 C 
ENDBRANCH  22  29
ENDBRANCH  21  25
ENDBRANCH   1  21
TORSDOF 6
