REMARK  Name = ZINC63340045
REMARK  9 active torsions:
REMARK  status: ('A' for Active; 'I' for Inactive)
REMARK    1  A    between atoms: C_1  and  C_2
REMARK    2  A    between atoms: C_2  and  O_3
REMARK    3  A    between atoms: O_3  and  C_4
REMARK    4  A    between atoms: C_4  and  C_6
REMARK    5  A    between atoms: C_6  and  C_8
REMARK    6  A    between atoms: C_6  and  N_18
REMARK    7  A    between atoms: C_8  and  C_9
REMARK    8  A    between atoms: N_18  and  S_19
REMARK    9  A    between atoms: S_19  and  C_22
REMARK                            x       y       z     vdW  Elec       q    Type
REMARK                         _______ _______ _______ _____ _____    ______ ____
ROOT
ATOM      1  C   UNL     1       1.468  -2.353  -2.550  0.00  0.00    +0.189 C 
ENDROOT
BRANCH   1   2
ATOM      2  C   UNL     1       0.775  -1.794  -1.334  0.00  0.00    +0.326 C 
ATOM      3  O   UNL     1       0.314  -2.540  -0.504  0.00  0.00    -0.249 OA
BRANCH   2   4
ATOM      4  O   UNL     1       0.671  -0.465  -1.174  0.00  0.00    -0.464 OA
BRANCH   4   6
ATOM      5  C   UNL     1      -0.019   1.526   0.010  0.00  0.00    +0.048 C 
ATOM      6  C   UNL     1       0.002  -0.004   0.002  0.00  0.00    +0.229 C 
ENDBRANCH   4   6
ENDBRANCH   2   4
ENDBRANCH   1   2
BRANCH   1   7
ATOM      7  N   UNL     1       1.450  -3.817  -2.491  0.00  0.00    -0.176 NA
ATOM      8  H   UNL     1       0.679  -4.306  -2.820  0.00  0.00    +0.149 HD
BRANCH   7   9
ATOM      9  S   UNL     1       2.745  -4.637  -1.864  0.00  0.00    +0.059 S 
ATOM     10  O   UNL     1       2.418  -6.018  -1.920  0.00  0.00    -0.153 OA
ATOM     11  O   UNL     1       3.905  -4.103  -2.489  0.00  0.00    -0.153 OA
BRANCH   9  12
ATOM     12  C   UNL     1       2.853  -4.213  -0.157  0.00  0.00    +0.107 A 
ATOM     13  C   UNL     1       3.610  -3.119   0.225  0.00  0.00    +0.030 A 
ATOM     14  C   UNL     1       3.691  -2.791   1.567  0.00  0.00    +0.019 A 
ATOM     15  C   UNL     1       3.021  -3.554   2.494  0.00  0.00    +0.041 A 
ATOM     16  C   UNL     1       2.247  -4.668   2.139  0.00  0.00    +0.058 A 
ATOM     17  C   UNL     1       2.179  -4.973   0.769  0.00  0.00    +0.055 A 
ATOM     18  N   UNL     1       1.633  -5.334   3.186  0.00  0.00    -0.316 N 
ATOM     19  H   UNL     1       1.085  -6.113   3.004  0.00  0.00    +0.169 HD
ATOM     20  C   UNL     1       1.792  -4.913   4.456  0.00  0.00    +0.289 A 
ATOM     21  O   UNL     1       1.326  -5.382   5.479  0.00  0.00    -0.260 OA
ATOM     22  S   UNL     1       2.856  -3.493   4.261  0.00  0.00    -0.027 S 
ENDBRANCH   9  12
ENDBRANCH   7   9
ENDBRANCH   1   7
BRANCH   1  23
ATOM     23  C   UNL     1       0.741  -1.885  -3.812  0.00  0.00    +0.065 C 
BRANCH  23  24
ATOM     24  C   UNL     1       1.503  -2.342  -5.029  0.00  0.00    -0.039 C 
ATOM     25  C   UNL     1       1.278  -3.459  -5.757  0.00  0.00    -0.001 A 
ATOM     26  C   UNL     1       0.295  -4.543  -5.637  0.00  0.00    +0.010 A 
ATOM     27  C   UNL     1       0.318  -5.552  -6.537  0.00  0.00    +0.001 A 
ATOM     28  C   UNL     1       1.255  -5.589  -7.579  0.00  0.00    +0.002 A 
ATOM     29  C   UNL     1       2.189  -4.631  -7.754  0.00  0.00    +0.026 A 
ATOM     30  C   UNL     1       2.256  -3.522  -6.866  0.00  0.00    +0.043 A 
ATOM     31  N   UNL     1       3.055  -2.483  -6.826  0.00  0.00    -0.380 N 
ATOM     32  C   UNL     1       2.669  -1.641  -5.688  0.00  0.00    +0.144 C 
ATOM     33  H   UNL     1       3.778  -2.301  -7.446  0.00  0.00    +0.160 HD
ENDBRANCH  23  24
ENDBRANCH   1  23
TORSDOF 8
