REMARK  Name = ZINC38688883
REMARK  7 active torsions:
REMARK  status: ('A' for Active; 'I' for Inactive)
REMARK    1  A    between atoms: C_1  and  O_2
REMARK    2  A    between atoms: O_2  and  C_3
REMARK    3  A    between atoms: C_9  and  C_12
REMARK    4  A    between atoms: C_13  and  C_14
REMARK    5  A    between atoms: N_25  and  C_26
REMARK    6  A    between atoms: C_31  and  O_32
REMARK    7  A    between atoms: O_32  and  C_33
REMARK                            x       y       z     vdW  Elec       q    Type
REMARK                         _______ _______ _______ _____ _____    ______ ____
ROOT
ATOM      1  C   UNL     1       0.862  -7.500  -1.443  0.00  0.00    +0.190 C 
ATOM      2  N   UNL     1      -0.056  -8.306  -2.255  0.00  0.00    -0.322 N 
ATOM      3  C   UNL     1       0.469  -9.116  -3.256  0.00  0.00    +0.041 A 
ATOM      4  C   UNL     1      -0.254  -9.431  -4.394  0.00  0.00    +0.024 A 
ATOM      5  C   UNL     1       0.307 -10.248  -5.357  0.00  0.00    +0.002 A 
ATOM      6  C   UNL     1       1.586 -10.756  -5.191  0.00  0.00    +0.001 A 
ATOM      7  C   UNL     1       2.322 -10.449  -4.066  0.00  0.00    +0.015 A 
ATOM      8  C   UNL     1       1.770  -9.621  -3.090  0.00  0.00    +0.058 A 
ATOM      9  C   UNL     1       2.525  -9.245  -1.881  0.00  0.00    +0.254 C 
ATOM     10  O   UNL     1       3.581  -9.789  -1.623  0.00  0.00    -0.270 OA
ATOM     11  N   UNL     1       2.033  -8.293  -1.068  0.00  0.00    -0.241 N 
ATOM     12  H   UNL     1      -1.013  -8.276  -2.096  0.00  0.00    +0.148 HD
ENDROOT
BRANCH  11  13
ATOM     13  C   UNL     1       2.658  -8.058   0.163  0.00  0.00    +0.080 A 
ATOM     14  C   UNL     1       2.256  -8.756   1.292  0.00  0.00    +0.027 A 
ATOM     15  C   UNL     1       2.874  -8.522   2.506  0.00  0.00    +0.002 A 
ATOM     16  C   UNL     1       3.893  -7.592   2.598  0.00  0.00    +0.004 A 
ATOM     17  C   UNL     1       4.299  -6.892   1.477  0.00  0.00    +0.047 A 
ATOM     18  C   UNL     1       3.689  -7.125   0.256  0.00  0.00    +0.141 A 
BRANCH  18  19
ATOM     19  O   UNL     1       4.091  -6.441  -0.849  0.00  0.00    -0.493 OA
ATOM     20  C   UNL     1       5.154  -5.501  -0.679  0.00  0.00    +0.277 C 
ENDBRANCH  18  19
ENDBRANCH  11  13
BRANCH   1  22
ATOM     21  C   UNL     1       1.045  -5.063  -1.788  0.00  0.00    +0.005 C 
ATOM     22  C   UNL     1       1.307  -6.299  -2.238  0.00  0.00    +0.015 C 
BRANCH  21  29
ATOM     23  C   UNL     1       0.606  -0.607  -1.056  0.00  0.00    +0.121 A 
ATOM     24  C   UNL     1       1.174   0.186  -2.065  0.00  0.00    +0.047 A 
ATOM     25  C   UNL     1       1.788  -0.358  -3.141  0.00  0.00    +0.029 A 
ATOM     26  C   UNL     1       1.869  -1.771  -3.270  0.00  0.00    +0.043 A 
ATOM     27  N   UNL     1       2.402  -2.530  -4.202  0.00  0.00    -0.380 N 
ATOM     28  C   UNL     1       2.208  -3.939  -3.847  0.00  0.00    +0.149 C 
ATOM     29  C   UNL     1       1.462  -3.939  -2.531  0.00  0.00    -0.019 C 
ATOM     30  C   UNL     1       1.271  -2.603  -2.209  0.00  0.00    +0.006 A 
ATOM     31  C   UNL     1       0.650  -1.965  -1.110  0.00  0.00    +0.056 A 
ATOM     32  H   UNL     1       2.852  -2.209  -4.999  0.00  0.00    +0.160 HD
BRANCH  23  34
ATOM     33  C   UNL     1      -0.017   1.425   0.010  0.00  0.00    +0.277 C 
ATOM     34  O   UNL     1       0.002  -0.004   0.002  0.00  0.00    -0.495 OA
ENDBRANCH  23  34
ENDBRANCH  21  29
ENDBRANCH   1  22
TORSDOF 5
