REMARK  Name = ZINC64715728
REMARK  6 active torsions:
REMARK  status: ('A' for Active; 'I' for Inactive)
REMARK    1  A    between atoms: C_7  and  C_10
REMARK    2  A    between atoms: C_10  and  C_11
REMARK    3  A    between atoms: C_11  and  C_12
REMARK    4  A    between atoms: C_12  and  C_13
REMARK    5  A    between atoms: C_18  and  C_21
REMARK    6  A    between atoms: N_23  and  C_24
REMARK                            x       y       z     vdW  Elec       q    Type
REMARK                         _______ _______ _______ _____ _____    ______ ____
ROOT
ATOM      1  C   UNL     1      -0.754  -5.302  -2.878  0.00  0.00    +0.216 C 
ATOM      2  O   UNL     1      -0.215  -4.727  -3.801  0.00  0.00    -0.276 OA
ATOM      3  N   UNL     1      -1.562  -6.353  -3.120  0.00  0.00    -0.301 N 
ATOM      4  C   UNL     1      -2.226  -7.056  -2.014  0.00  0.00    +0.108 C 
ATOM      5  C   UNL     1      -1.906  -8.551  -2.116  0.00  0.00    +0.032 C 
ATOM      6  C   UNL     1      -2.295  -9.058  -3.507  0.00  0.00    +0.078 C 
ATOM      7  C   UNL     1      -1.481  -8.315  -4.569  0.00  0.00    +0.032 C 
ATOM      8  C   UNL     1      -1.800  -6.814  -4.494  0.00  0.00    +0.108 C 
ENDROOT
BRANCH   6   9
ATOM      9  C   UNL     1      -2.013 -10.535  -3.600  0.00  0.00    +0.220 C 
ATOM     10  O   UNL     1      -1.547 -11.125  -2.648  0.00  0.00    -0.275 OA
ATOM     11  N   UNL     1      -2.279 -11.201  -4.741  0.00  0.00    -0.285 N 
ATOM     12  H   UNL     1      -2.714 -10.745  -5.479  0.00  0.00    +0.155 HD
BRANCH  11  13
ATOM     13  C   UNL     1      -1.928 -12.552  -4.861  0.00  0.00    +0.037 A 
ATOM     14  C   UNL     1      -1.497 -13.051  -6.083  0.00  0.00    +0.027 A 
ATOM     15  C   UNL     1      -1.150 -14.383  -6.204  0.00  0.00    +0.051 A 
ATOM     16  C   UNL     1      -1.231 -15.225  -5.106  0.00  0.00    +0.166 A 
ATOM     17  C   UNL     1      -1.662 -14.727  -3.879  0.00  0.00    +0.168 A 
ATOM     18  C   UNL     1      -2.005 -13.390  -3.758  0.00  0.00    +0.072 A 
ATOM     19  O   UNL     1      -1.655 -15.744  -2.968  0.00  0.00    -0.453 OA
ATOM     20  C   UNL     1      -1.606 -16.955  -3.745  0.00  0.00    +0.466 C 
ATOM     21  O   UNL     1      -0.952 -16.554  -4.964  0.00  0.00    -0.453 OA
ENDBRANCH  11  13
ENDBRANCH   6   9
BRANCH   1  22
ATOM     22  C   UNL     1      -0.519  -4.841  -1.463  0.00  0.00    +0.096 C 
BRANCH  22  23
ATOM     23  C   UNL     1       0.430  -3.641  -1.468  0.00  0.00    +0.014 C 
BRANCH  23  24
ATOM     24  C   UNL     1       0.668  -3.173  -0.031  0.00  0.00    +0.033 C 
BRANCH  24  31
ATOM     25  C   UNL     1      -0.064   1.357   0.010  0.00  0.00    +0.001 A 
ATOM     26  C   UNL     1       1.113   2.116  -0.003  0.00  0.00    +0.002 A 
ATOM     27  C   UNL     1       2.342   1.557  -0.024  0.00  0.00    +0.026 A 
ATOM     28  C   UNL     1       2.487   0.143  -0.035  0.00  0.00    +0.043 A 
ATOM     29  N   UNL     1       3.550  -0.625  -0.056  0.00  0.00    -0.380 N 
ATOM     30  C   UNL     1       3.114  -2.026  -0.059  0.00  0.00    +0.144 C 
ATOM     31  C   UNL     1       1.602  -1.991  -0.036  0.00  0.00    -0.042 C 
ATOM     32  C   UNL     1       1.258  -0.682  -0.022  0.00  0.00    -0.001 A 
ATOM     33  C   UNL     1      -0.038   0.004   0.001  0.00  0.00    +0.010 A 
ATOM     34  H   UNL     1       4.470  -0.319  -0.067  0.00  0.00    +0.160 HD
ENDBRANCH  24  31
ENDBRANCH  23  24
ENDBRANCH  22  23
ENDBRANCH   1  22
TORSDOF 6
