REMARK  Name = ZINC39684460
REMARK  11 active torsions:
REMARK  status: ('A' for Active; 'I' for Inactive)
REMARK    1  A    between atoms: C_1  and  C_2
REMARK    2  A    between atoms: C_2  and  C_4
REMARK    3  A    between atoms: C_2  and  O_27
REMARK    4  A    between atoms: C_8  and  C_17
REMARK    5  A    between atoms: N_19  and  C_20
REMARK    6  A    between atoms: C_20  and  C_22
REMARK    7  A    between atoms: C_20  and  C_23
REMARK    8  A    between atoms: C_23  and  C_24
REMARK    9  A    between atoms: C_23  and  C_25
REMARK   10  A    between atoms: C_23  and  C_26
REMARK   11  A    between atoms: O_27  and  C_28
REMARK                            x       y       z     vdW  Elec       q    Type
REMARK                         _______ _______ _______ _____ _____    ______ ____
ROOT
ATOM      1  C   UNL     1      -1.332  -0.424   0.074  0.00  0.00    +0.256 C 
ATOM      2  O   UNL     1      -1.696  -0.866   1.143  0.00  0.00    -0.272 OA
ATOM      3  N   UNL     1      -2.241  -0.121  -0.875  0.00  0.00    -0.297 N 
ATOM      4  C   UNL     1      -1.991   0.418  -2.232  0.00  0.00    +0.121 C 
ATOM      5  C   UNL     1      -3.003  -0.320  -3.137  0.00  0.00    +0.100 C 
ATOM      6  C   UNL     1      -4.133  -0.755  -2.189  0.00  0.00    -0.004 C 
ATOM      7  C   UNL     1      -3.715  -0.258  -0.798  0.00  0.00    +0.115 C 
ATOM      8  C   UNL     1      -4.262  -2.275  -2.182  0.00  0.00    -0.010 C 
ATOM      9  C   UNL     1      -5.428  -2.680  -1.277  0.00  0.00    -0.082 C 
ATOM     10  N   UNL     1      -6.668  -2.066  -1.768  0.00  0.00    +0.379 N 
ATOM     11  C   UNL     1      -6.570  -0.604  -1.684  0.00  0.00    -0.082 C 
ATOM     12  C   UNL     1      -5.452  -0.111  -2.607  0.00  0.00    -0.010 C 
ATOM     13  H   UNL     1      -6.818  -2.337  -2.728  0.00  0.00    -0.086 HD
ATOM     14  H   UNL     1      -7.444  -2.383  -1.207  0.00  0.00    -0.086 HD
ENDROOT
BRANCH   5  15
ATOM     15  C   UNL     1      -3.534   0.610  -4.198  0.00  0.00    +0.218 C 
ATOM     16  O   UNL     1      -3.644   1.795  -3.965  0.00  0.00    -0.275 OA
ATOM     17  N   UNL     1      -3.887   0.125  -5.405  0.00  0.00    -0.312 N 
ATOM     18  H   UNL     1      -3.799  -0.823  -5.591  0.00  0.00    +0.149 HD
BRANCH  17  19
ATOM     19  C   UNL     1      -4.403   1.029  -6.435  0.00  0.00    +0.075 C 
ATOM     20  C   UNL     1      -3.233   1.659  -7.194  0.00  0.00    +0.028 C 
BRANCH  19  21
ATOM     21  C   UNL     1      -5.279   0.242  -7.412  0.00  0.00    -0.020 C 
ATOM     22  C   UNL     1      -6.449  -0.388  -6.654  0.00  0.00    +0.012 C 
ATOM     23  C   UNL     1      -5.818   1.186  -8.489  0.00  0.00    +0.012 C 
ATOM     24  C   UNL     1      -4.446  -0.859  -8.071  0.00  0.00    +0.012 C 
ENDBRANCH  19  21
ENDBRANCH  17  19
ENDBRANCH   5  15
BRANCH   1  26
ATOM     25  C   UNL     1       0.413   1.281  -0.370  0.00  0.00    +0.062 C 
ATOM     26  C   UNL     1       0.136  -0.213  -0.194  0.00  0.00    +0.256 C 
BRANCH  26  27
ATOM     27  O   UNL     1       0.897  -0.712   0.907  0.00  0.00    -0.480 OA
BRANCH  27  28
ATOM     28  C   UNL     1       2.177  -1.091   0.651  0.00  0.00    +0.122 A 
ATOM     29  C   UNL     1       2.937  -1.690   1.645  0.00  0.00    +0.045 A 
ATOM     30  C   UNL     1       4.238  -2.073   1.382  0.00  0.00    +0.004 A 
ATOM     31  C   UNL     1       4.783  -1.861   0.130  0.00  0.00    +0.000 A 
ATOM     32  C   UNL     1       4.028  -1.263  -0.863  0.00  0.00    +0.004 A 
ATOM     33  C   UNL     1       2.725  -0.883  -0.607  0.00  0.00    +0.045 A 
ENDBRANCH  27  28
ENDBRANCH  26  27
ENDBRANCH   1  26
TORSDOF 6
