REMARK  Name = ZINC67559456
REMARK  4 active torsions:
REMARK  status: ('A' for Active; 'I' for Inactive)
REMARK    1  A    between atoms: C_1  and  C_2
REMARK    2  A    between atoms: C_7  and  C_8
REMARK    3  A    between atoms: C_12  and  O_14
REMARK    4  A    between atoms: C_20  and  C_22
REMARK                            x       y       z     vdW  Elec       q    Type
REMARK                         _______ _______ _______ _____ _____    ______ ____
ROOT
ATOM      1  C   UNL     1       0.266  -0.699   3.236  0.00  0.00    -0.014 A 
ATOM      2  C   UNL     1      -0.821  -0.853   4.098  0.00  0.00    +0.017 A 
ATOM      3  C   UNL     1      -0.905  -0.082   5.234  0.00  0.00    +0.016 A 
ATOM      4  C   UNL     1       0.067   0.864   5.524  0.00  0.00    +0.166 A 
ATOM      5  C   UNL     1       1.166   1.004   4.678  0.00  0.00    +0.159 A 
ATOM      6  C   UNL     1       1.265   0.224   3.540  0.00  0.00    +0.057 A 
ATOM      7  O   UNL     1      -0.080   1.686   6.594  0.00  0.00    -0.486 OA
ATOM      8  C   UNL     1      -1.113   2.672   6.487  0.00  0.00    +0.248 C 
ATOM      9  C   UNL     1      -2.428   2.114   7.011  0.00  0.00    +0.149 C 
ATOM     10  N   UNL     1      -2.858   0.954   6.229  0.00  0.00    -0.287 N 
ATOM     11  C   UNL     1      -2.049  -0.269   6.210  0.00  0.00    +0.147 C 
ATOM     12  C   UNL     1      -4.006   1.009   5.524  0.00  0.00    +0.282 C 
ATOM     13  O   UNL     1      -4.733   1.979   5.620  0.00  0.00    -0.267 OA
ENDROOT
BRANCH   1  20
ATOM     14  C   UNL     1       0.799   0.586   0.699  0.00  0.00    +0.044 C 
ATOM     15  C   UNL     1       0.616  -0.908   0.776  0.00  0.00    -0.043 A 
ATOM     16  C   UNL     1       0.709  -1.676  -0.367  0.00  0.00    +0.004 A 
ATOM     17  C   UNL     1       0.541  -3.047  -0.298  0.00  0.00    +0.000 A 
ATOM     18  C   UNL     1       0.281  -3.657   0.916  0.00  0.00    +0.001 A 
ATOM     19  C   UNL     1       0.186  -2.899   2.066  0.00  0.00    +0.009 A 
ATOM     20  C   UNL     1       0.360  -1.518   2.003  0.00  0.00    -0.015 A 
ENDBRANCH   1  20
BRANCH  12  21
ATOM     21  C   UNL     1      -4.377  -0.101   4.640  0.00  0.00    +0.189 A 
ATOM     22  C   UNL     1      -5.560  -0.232   3.970  0.00  0.00    +0.054 A 
ATOM     23  C   UNL     1      -5.484  -1.434   3.249  0.00  0.00    +0.042 A 
ATOM     24  C   UNL     1      -4.274  -1.977   3.507  0.00  0.00    +0.196 A 
ATOM     25  O   UNL     1      -3.607  -1.168   4.341  0.00  0.00    -0.458 OA
ENDBRANCH  12  21
BRANCH   5  26
ATOM     26  O   UNL     1       2.142   1.904   4.974  0.00  0.00    -0.503 OA
ATOM     27  H   UNL     1       2.856   1.545   5.518  0.00  0.00    +0.292 HD
ENDBRANCH   5  26
TORSDOF 3
