REMARK  Name = ZINC02652123
REMARK  8 active torsions:
REMARK  status: ('A' for Active; 'I' for Inactive)
REMARK    1  A    between atoms: C_1  and  C_2
REMARK    2  A    between atoms: C_7  and  C_8
REMARK    3  A    between atoms: C_8  and  N_9
REMARK    4  A    between atoms: N_9  and  C_10
REMARK    5  A    between atoms: N_9  and  C_11
REMARK    6  A    between atoms: C_11  and  C_12
REMARK    7  A    between atoms: C_15  and  C_30
REMARK    8  A    between atoms: C_18  and  C_20
REMARK                            x       y       z     vdW  Elec       q    Type
REMARK                         _______ _______ _______ _____ _____    ______ ____
ROOT
ATOM      1  C   UNL     1      -3.129   1.267   4.416  0.00  0.00    +0.216 C 
ATOM      2  O   UNL     1      -3.999   0.781   3.724  0.00  0.00    -0.276 OA
ATOM      3  N   UNL     1      -3.457   1.939   5.537  0.00  0.00    -0.213 N 
ATOM      4  C   UNL     1      -4.811   2.170   6.067  0.00  0.00    +0.151 C 
ATOM      5  C   UNL     1      -4.597   2.970   7.333  0.00  0.00    +0.027 C 
ATOM      6  C   UNL     1      -3.286   3.151   7.473  0.00  0.00    +0.050 C 
ATOM      7  N   UNL     1      -2.578   2.554   6.439  0.00  0.00    -0.261 N 
ATOM      8  H   UNL     1      -1.612   2.564   6.351  0.00  0.00    +0.170 HD
ENDROOT
BRANCH   6   9
ATOM      9  C   UNL     1      -2.662   3.891   8.593  0.00  0.00    -0.002 A 
ATOM     10  C   UNL     1      -3.472   4.449   9.597  0.00  0.00    +0.010 A 
ATOM     11  C   UNL     1      -2.924   5.132  10.634  0.00  0.00    +0.009 A 
ATOM     12  C   UNL     1      -1.528   5.288  10.714  0.00  0.00    -0.018 A 
ATOM     13  C   UNL     1      -0.936   5.989  11.778  0.00  0.00    +0.008 A 
ATOM     14  C   UNL     1       0.417   6.123  11.829  0.00  0.00    +0.001 A 
ATOM     15  C   UNL     1       1.230   5.574  10.839  0.00  0.00    +0.001 A 
ATOM     16  C   UNL     1       0.694   4.889   9.793  0.00  0.00    +0.008 A 
ATOM     17  C   UNL     1      -0.701   4.729   9.707  0.00  0.00    -0.017 A 
ATOM     18  C   UNL     1      -1.286   4.023   8.645  0.00  0.00    +0.018 A 
ENDBRANCH   6   9
BRANCH   4  19
ATOM     19  C   UNL     1      -5.634   2.955   5.080  0.00  0.00    -0.021 A 
ATOM     20  C   UNL     1      -5.058   3.993   4.370  0.00  0.00    +0.006 A 
ATOM     21  C   UNL     1      -5.814   4.713   3.464  0.00  0.00    +0.000 A 
ATOM     22  C   UNL     1      -7.145   4.396   3.267  0.00  0.00    +0.000 A 
ATOM     23  C   UNL     1      -7.720   3.359   3.976  0.00  0.00    +0.000 A 
ATOM     24  C   UNL     1      -6.964   2.635   4.879  0.00  0.00    +0.006 A 
ENDBRANCH   4  19
BRANCH   1  25
ATOM     25  C   UNL     1      -1.682   1.119   4.022  0.00  0.00    +0.020 C 
BRANCH  25  26
ATOM     26  N   UNL     1      -1.591   0.352   2.772  0.00  0.00    +0.386 N 
ATOM     27  C   UNL     1      -2.214   1.115   1.683  0.00  0.00    -0.095 C 
ATOM     28  H   UNL     1      -2.070  -0.529   2.883  0.00  0.00    -0.081 HD
BRANCH  26  29
ATOM     29  C   UNL     1      -0.179   0.105   2.451  0.00  0.00    -0.042 C 
BRANCH  29  36
ATOM     30  C   UNL     1      -0.741  -2.716   2.716  0.00  0.00    +0.044 C 
ATOM     31  C   UNL     1      -0.357  -2.147   1.375  0.00  0.00    -0.049 A 
ATOM     32  C   UNL     1      -0.278  -2.974   0.270  0.00  0.00    +0.003 A 
ATOM     33  C   UNL     1       0.074  -2.452  -0.961  0.00  0.00    +0.000 A 
ATOM     34  C   UNL     1       0.349  -1.103  -1.086  0.00  0.00    +0.000 A 
ATOM     35  C   UNL     1       0.270  -0.276   0.018  0.00  0.00    +0.002 A 
ATOM     36  C   UNL     1      -0.087  -0.797   1.248  0.00  0.00    -0.061 A 
ENDBRANCH  29  36
ENDBRANCH  26  29
ENDBRANCH  25  26
ENDBRANCH   1  25
TORSDOF 6
