REMARK  Name = ZINC47136268
REMARK  2 active torsions:
REMARK  status: ('A' for Active; 'I' for Inactive)
REMARK    1  A    between atoms: C_7  and  N_12
REMARK    2  A    between atoms: C_14  and  C_18
REMARK                            x       y       z     vdW  Elec       q    Type
REMARK                         _______ _______ _______ _____ _____    ______ ____
ROOT
ATOM      1  N   UNL     1       1.060  -2.793   1.178  0.00  0.00    -0.286 N 
ATOM      2  C   UNL     1       0.617  -4.108   1.112  0.00  0.00    +0.193 A 
ATOM      3  C   UNL     1       0.071  -4.888   2.229  0.00  0.00    +0.156 A 
ATOM      4  N   UNL     1      -0.237  -6.079   1.786  0.00  0.00    -0.047 NA
ATOM      5  O   UNL     1       0.084  -6.124   0.407  0.00  0.00    -0.240 OA
ATOM      6  N   UNL     1       0.609  -4.859   0.045  0.00  0.00    -0.033 NA
ATOM      7  H   UNL     1       1.028  -2.312   2.019  0.00  0.00    +0.151 HD
ENDROOT
BRANCH   1  14
ATOM      8  C   UNL     1      -0.017   1.381   0.010  0.00  0.00    +0.000 A 
ATOM      9  C   UNL     1       1.169   2.094   0.002  0.00  0.00    +0.001 A 
ATOM     10  C   UNL     1       2.380   1.432  -0.013  0.00  0.00    +0.015 A 
ATOM     11  C   UNL     1       2.406   0.037  -0.021  0.00  0.00    +0.067 A 
ATOM     12  C   UNL     1       1.203  -0.674  -0.013  0.00  0.00    +0.025 A 
ATOM     13  C   UNL     1       0.002  -0.004   0.002  0.00  0.00    +0.010 A 
ATOM     14  C   UNL     1       1.578  -2.134  -0.024  0.00  0.00    +0.297 C 
ATOM     15  O   UNL     1       3.007  -2.192  -0.038  0.00  0.00    -0.435 OA
ATOM     16  C   UNL     1       3.506  -0.945  -0.037  0.00  0.00    +0.342 C 
ATOM     17  O   UNL     1       4.688  -0.667  -0.047  0.00  0.00    -0.245 OA
ENDBRANCH   1  14
BRANCH   3  18
ATOM     18  C   UNL     1      -0.101  -4.408   3.622  0.00  0.00    +0.007 A 
ATOM     19  C   UNL     1       0.822  -3.522   4.175  0.00  0.00    +0.011 A 
ATOM     20  C   UNL     1       0.657  -3.078   5.471  0.00  0.00    +0.020 A 
ATOM     21  C   UNL     1      -0.421  -3.513   6.222  0.00  0.00    +0.041 A 
ATOM     22  C   UNL     1      -1.341  -4.394   5.678  0.00  0.00    +0.020 A 
ATOM     23  C   UNL     1      -1.188  -4.838   4.380  0.00  0.00    +0.011 A 
ATOM     24 CL   UNL     1      -0.622  -2.952   7.853  0.00  0.00    -0.084 Cl
ENDBRANCH   3  18
TORSDOF 2
