REMARK  Name = ZINC39710934
REMARK  9 active torsions:
REMARK  status: ('A' for Active; 'I' for Inactive)
REMARK    1  A    between atoms: C_1  and  C_2
REMARK    2  A    between atoms: C_8  and  C_14
REMARK    3  A    between atoms: C_14  and  C_16
REMARK    4  A    between atoms: C_14  and  N_27
REMARK    5  A    between atoms: N_21  and  C_22
REMARK    6  A    between atoms: N_27  and  C_28
REMARK    7  A    between atoms: N_27  and  C_36
REMARK    8  A    between atoms: C_28  and  C_29
REMARK    9  A    between atoms: C_36  and  C_37
REMARK                            x       y       z     vdW  Elec       q    Type
REMARK                         _______ _______ _______ _____ _____    ______ ____
ROOT
ATOM      1  C   UNL     1      -0.888  -2.895   4.762  0.00  0.00    -0.009 C 
ENDROOT
BRANCH   1   9
ATOM      2  C   UNL     1       3.257  -6.609   2.174  0.00  0.00    +0.045 C 
ATOM      3  C   UNL     1       3.344  -5.698   3.371  0.00  0.00    -0.029 A 
ATOM      4  C   UNL     1       4.369  -5.837   4.251  0.00  0.00    +0.005 A 
ATOM      5  C   UNL     1       4.509  -5.027   5.378  0.00  0.00    +0.001 A 
ATOM      6  C   UNL     1       3.615  -4.044   5.658  0.00  0.00    +0.009 A 
ATOM      7  C   UNL     1       2.485  -3.839   4.750  0.00  0.00    -0.007 A 
ATOM      8  C   UNL     1       1.563  -2.864   4.991  0.00  0.00    -0.006 C 
ATOM      9  C   UNL     1       0.426  -2.723   3.998  0.00  0.00    +0.088 C 
ATOM     10  C   UNL     1       0.407  -3.674   2.823  0.00  0.00    +0.223 C 
ATOM     11  O   UNL     1      -0.482  -3.605   1.996  0.00  0.00    -0.275 OA
ATOM     12  N   UNL     1       1.361  -4.581   2.698  0.00  0.00    -0.284 N 
ATOM     13  C   UNL     1       2.366  -4.705   3.565  0.00  0.00    +0.043 A 
ATOM     14  H   UNL     1       1.331  -5.182   1.937  0.00  0.00    +0.155 HD
ENDBRANCH   1   9
BRANCH   1  15
ATOM     15  C   UNL     1      -2.064  -2.601   3.828  0.00  0.00    +0.205 C 
ATOM     16  N   UNL     1      -2.007  -1.211   3.355  0.00  0.00    -0.152 NA
ATOM     17  N   UNL     1      -3.023  -0.621   3.729  0.00  0.00    -0.070 NA
ATOM     18  N   UNL     1      -3.884  -1.435   4.464  0.00  0.00    -0.179 N 
ATOM     19  N   UNL     1      -3.343  -2.693   4.563  0.00  0.00    -0.185 NA
ATOM     20  H   UNL     1      -4.731  -1.157   4.846  0.00  0.00    +0.191 HD
BRANCH  19  21
ATOM     21  C   UNL     1      -4.227  -3.698   3.957  0.00  0.00    +0.080 C 
ATOM     22  C   UNL     1      -4.689  -3.223   2.564  0.00  0.00    +0.021 C 
ATOM     23  C   UNL     1      -6.157  -3.708   2.466  0.00  0.00    +0.002 C 
ATOM     24  C   UNL     1      -6.688  -3.485   3.904  0.00  0.00    +0.002 C 
ATOM     25  C   UNL     1      -5.497  -3.865   4.809  0.00  0.00    +0.021 C 
ENDBRANCH  19  21
ENDBRANCH   1  15
BRANCH   1  26
ATOM     26  N   UNL     1      -0.920  -1.964   5.898  0.00  0.00    +0.392 N 
ATOM     27  H   UNL     1      -0.087  -2.083   6.454  0.00  0.00    -0.080 HD
BRANCH  26  28
ATOM     28  C   UNL     1      -0.983  -0.585   5.398  0.00  0.00    -0.042 C 
BRANCH  28  29
ATOM     29  C   UNL     1      -0.553   0.364   6.487  0.00  0.00    -0.064 A 
ATOM     30  C   UNL     1      -1.488   0.879   7.365  0.00  0.00    +0.003 A 
ATOM     31  C   UNL     1      -1.094   1.749   8.364  0.00  0.00    +0.020 A 
ATOM     32  C   UNL     1       0.237   2.104   8.486  0.00  0.00    +0.041 A 
ATOM     33  C   UNL     1       1.173   1.589   7.607  0.00  0.00    +0.020 A 
ATOM     34  C   UNL     1       0.779   0.715   6.612  0.00  0.00    +0.003 A 
ATOM     35 CL   UNL     1       0.733   3.197   9.740  0.00  0.00    -0.084 Cl
ENDBRANCH  28  29
ENDBRANCH  26  28
BRANCH  26  36
ATOM     36  C   UNL     1      -2.104  -2.240   6.724  0.00  0.00    -0.002 C 
BRANCH  36  37
ATOM     37  C   UNL     1      -2.068  -3.673   7.189  0.00  0.00    +0.089 A 
ATOM     38  C   UNL     1      -1.569  -4.108   8.360  0.00  0.00    +0.042 A 
ATOM     39  C   UNL     1      -1.740  -5.512   8.382  0.00  0.00    +0.041 A 
ATOM     40  C   UNL     1      -2.334  -5.850   7.223  0.00  0.00    +0.195 A 
ATOM     41  O   UNL     1      -2.536  -4.732   6.507  0.00  0.00    -0.470 OA
ENDBRANCH  36  37
ENDBRANCH  26  36
ENDBRANCH   1  26
TORSDOF 8
