REMARK  Name = ZINC00035060
REMARK  7 active torsions:
REMARK  status: ('A' for Active; 'I' for Inactive)
REMARK    1  A    between atoms: C_1  and  C_2
REMARK    2  A    between atoms: C_2  and  C_25
REMARK    3  A    between atoms: C_6  and  C_14
REMARK    4  A    between atoms: C_8  and  C_12
REMARK    5  A    between atoms: C_9  and  N_11
REMARK    6  A    between atoms: C_14  and  C_15
REMARK    7  A    between atoms: C_15  and  C_16
REMARK                            x       y       z     vdW  Elec       q    Type
REMARK                         _______ _______ _______ _____ _____    ______ ____
ROOT
ATOM      1  C   UNL     1      -7.417  -1.114   4.258  0.00  0.00    +0.012 C 
ATOM      2  C   UNL     1      -6.297  -0.657   5.195  0.00  0.00    -0.021 C 
ATOM      3  C   UNL     1      -5.057  -1.526   4.976  0.00  0.00    +0.081 C 
ATOM      4  C   UNL     1      -4.578  -1.379   3.550  0.00  0.00    +0.115 C 
ATOM      5  C   UNL     1      -4.750  -0.224   2.884  0.00  0.00    +0.041 C 
ATOM      6  C   UNL     1      -4.260  -0.072   1.464  0.00  0.00    +0.071 C 
ATOM      7  C   UNL     1      -4.035  -1.426   0.851  0.00  0.00    +0.094 C 
ATOM      8  C   UNL     1      -3.907  -2.522   1.638  0.00  0.00    +0.198 C 
ATOM      9  O   UNL     1      -3.971  -2.434   2.976  0.00  0.00    -0.445 OA
ATOM     10  C   UNL     1      -5.394   0.879   3.483  0.00  0.00    +0.164 C 
ATOM     11  O   UNL     1      -5.516   1.911   2.856  0.00  0.00    -0.292 OA
ATOM     12  C   UNL     1      -5.930   0.799   4.887  0.00  0.00    +0.086 C 
ATOM     13  C   UNL     1      -6.760  -0.778   6.648  0.00  0.00    +0.012 C 
ENDROOT
BRANCH   8  14
ATOM     14  N   UNL     1      -3.708  -3.749   1.055  0.00  0.00    -0.328 N 
ATOM     15  H   UNL     1      -3.660  -3.824   0.089  0.00  0.00    +0.145 HD
ATOM     16  H   UNL     1      -3.616  -4.540   1.608  0.00  0.00    +0.145 HD
ENDBRANCH   8  14
BRANCH   7  17
ATOM     17  C   UNL     1      -3.954  -1.558  -0.572  0.00  0.00    +0.100 C 
ATOM     18  N   UNL     1      -3.889  -1.663  -1.702  0.00  0.00    -0.191 NA
ENDBRANCH   7  17
BRANCH   6  19
ATOM     19  C   UNL     1      -2.945   0.711   1.462  0.00  0.00    +0.018 C 
BRANCH  19  20
ATOM     20  C   UNL     1      -2.514   0.980   0.019  0.00  0.00    +0.036 C 
BRANCH  20  21
ATOM     21  C   UNL     1      -1.219   1.751   0.017  0.00  0.00    -0.047 A 
ATOM     22  C   UNL     1      -0.013   1.076   0.008  0.00  0.00    +0.003 A 
ATOM     23  C   UNL     1       1.175   1.783   0.000  0.00  0.00    +0.000 A 
ATOM     24  C   UNL     1       1.156   3.165   0.008  0.00  0.00    +0.000 A 
ATOM     25  C   UNL     1      -0.050   3.840   0.022  0.00  0.00    +0.000 A 
ATOM     26  C   UNL     1      -1.238   3.133   0.030  0.00  0.00    +0.003 A 
ENDBRANCH  20  21
ENDBRANCH  19  20
ENDBRANCH   6  19
TORSDOF 5
