REMARK  Name = ZINC08791730
REMARK  6 active torsions:
REMARK  status: ('A' for Active; 'I' for Inactive)
REMARK    1  A    between atoms: C_1  and  O_2
REMARK    2  A    between atoms: O_2  and  C_3
REMARK    3  A    between atoms: C_3  and  C_4
REMARK    4  A    between atoms: C_4  and  N_5
REMARK    5  A    between atoms: C_10  and  C_26
REMARK    6  A    between atoms: C_26  and  C_27
REMARK                            x       y       z     vdW  Elec       q    Type
REMARK                         _______ _______ _______ _____ _____    ______ ____
ROOT
ATOM      1  N   UNL     1      -5.124   5.346   1.408  0.00  0.00    -0.240 N 
ATOM      2  C   UNL     1      -4.378   6.340   0.910  0.00  0.00    +0.224 C 
ATOM      3  O   UNL     1      -4.786   7.441   0.613  0.00  0.00    -0.275 OA
ATOM      4  C   UNL     1      -2.946   5.874   0.779  0.00  0.00    +0.073 C 
ATOM      5  C   UNL     1      -2.579   5.765  -0.716  0.00  0.00    -0.053 C 
ATOM      6  C   UNL     1      -2.669   3.559   0.049  0.00  0.00    +0.050 C 
ATOM      7  C   UNL     1      -2.997   4.405   1.285  0.00  0.00    +0.088 C 
ATOM      8  C   UNL     1      -4.451   4.218   1.657  0.00  0.00    +0.225 C 
ATOM      9  O   UNL     1      -4.932   3.202   2.112  0.00  0.00    -0.275 OA
ATOM     10  C   UNL     1      -1.225   3.145   0.031  0.00  0.00    -0.028 A 
ATOM     11  C   UNL     1      -0.039   3.844   0.023  0.00  0.00    +0.004 A 
ATOM     12  C   UNL     1       1.165   3.163   0.008  0.00  0.00    +0.000 A 
ATOM     13  C   UNL     1       1.174   1.780   0.000  0.00  0.00    +0.002 A 
ATOM     14  C   UNL     1      -0.013   1.076   0.008  0.00  0.00    +0.023 A 
ATOM     15  C   UNL     1      -1.229   1.754   0.017  0.00  0.00    +0.036 A 
ATOM     16  N   UNL     1      -2.541   1.274   0.030  0.00  0.00    -0.286 N 
ATOM     17  C   UNL     1      -3.446   2.271   0.044  0.00  0.00    +0.211 C 
ATOM     18  O   UNL     1      -4.653   2.154   0.052  0.00  0.00    -0.277 OA
ATOM     19  H   UNL     1      -2.773   0.333   0.025  0.00  0.00    +0.155 HD
ATOM     20  N   UNL     1      -2.991   4.409  -1.084  0.00  0.00    +0.394 N 
ATOM     21  H   UNL     1      -2.480   4.097  -1.919  0.00  0.00    -0.083 HD
ATOM     22  H   UNL     1      -4.000   4.383  -1.272  0.00  0.00    -0.083 HD
ENDROOT
BRANCH   1  23
ATOM     23  C   UNL     1      -6.560   5.484   1.659  0.00  0.00    +0.144 C 
BRANCH  23  24
ATOM     24  C   UNL     1      -6.782   5.994   3.085  0.00  0.00    +0.179 C 
BRANCH  24  26
ATOM     25  C   UNL     1      -6.405   7.886   4.507  0.00  0.00    +0.194 C 
ATOM     26  O   UNL     1      -6.249   7.314   3.207  0.00  0.00    -0.381 OA
ENDBRANCH  24  26
ENDBRANCH  23  24
ENDBRANCH   1  23
BRANCH   5  27
ATOM     27  C   UNL     1      -3.336   6.819  -1.528  0.00  0.00    +0.022 C 
BRANCH  27  28
ATOM     28  C   UNL     1      -2.873   6.777  -2.961  0.00  0.00    -0.024 A 
ATOM     29  C   UNL     1      -1.924   7.546  -3.517  0.00  0.00    +0.087 A 
ATOM     30  N   UNL     1      -1.775   7.223  -4.838  0.00  0.00    -0.360 N 
ATOM     31  H   UNL     1      -1.149   7.643  -5.447  0.00  0.00    +0.165 HD
ATOM     32  C   UNL     1      -2.647   6.212  -5.174  0.00  0.00    +0.047 A 
ATOM     33  C   UNL     1      -3.370   5.884  -4.011  0.00  0.00    +0.003 A 
ATOM     34  C   UNL     1      -4.342   4.884  -4.055  0.00  0.00    +0.010 A 
ATOM     35  C   UNL     1      -4.580   4.219  -5.225  0.00  0.00    +0.001 A 
ATOM     36  C   UNL     1      -3.866   4.535  -6.373  0.00  0.00    +0.002 A 
ATOM     37  C   UNL     1      -2.906   5.523  -6.354  0.00  0.00    +0.026 A 
ENDBRANCH  27  28
ENDBRANCH   5  27
TORSDOF 5
