REMARK  Name = ZINC10932302
REMARK  9 active torsions:
REMARK  status: ('A' for Active; 'I' for Inactive)
REMARK    1  A    between atoms: C_1  and  C_2
REMARK    2  A    between atoms: C_6  and  N_32
REMARK    3  A    between atoms: C_7  and  N_8
REMARK    4  A    between atoms: C_9  and  C_11
REMARK    5  A    between atoms: C_11  and  O_12
REMARK    6  A    between atoms: O_12  and  C_13
REMARK    7  A    between atoms: C_13  and  C_15
REMARK    8  A    between atoms: C_19  and  N_20
REMARK    9  A    between atoms: C_21  and  C_23
REMARK                            x       y       z     vdW  Elec       q    Type
REMARK                         _______ _______ _______ _____ _____    ______ ____
ROOT
ATOM      1  C   UNL     1      -3.378   2.466  -1.010  0.00  0.00    +0.342 C 
ATOM      2  O   UNL     1      -3.634   3.313  -0.175  0.00  0.00    -0.245 OA
ENDROOT
BRANCH   1   3
ATOM      3  C   UNL     1      -4.410   2.036  -1.956  0.00  0.00    +0.091 A 
ATOM      4  C   UNL     1      -5.300   0.915  -1.651  0.00  0.00    -0.021 A 
ATOM      5  C   UNL     1      -6.206   0.630  -2.603  0.00  0.00    -0.004 A 
ATOM      6  S   UNL     1      -5.890   1.806  -3.896  0.00  0.00    -0.077 S 
ATOM      7  C   UNL     1      -4.576   2.672  -3.176  0.00  0.00    +0.086 A 
ATOM      8  C   UNL     1      -7.089  -0.524  -2.213  0.00  0.00    +0.043 C 
ATOM      9  C   UNL     1      -6.903  -0.658  -0.685  0.00  0.00    +0.010 C 
ATOM     10  C   UNL     1      -5.498  -0.055  -0.486  0.00  0.00    +0.037 C 
BRANCH   7  11
ATOM     11  N   UNL     1      -3.863   3.742  -3.694  0.00  0.00    -0.279 N 
ATOM     12  C   UNL     1      -4.171   4.231  -4.911  0.00  0.00    +0.221 C 
ATOM     13  O   UNL     1      -5.073   3.736  -5.553  0.00  0.00    -0.275 OA
ATOM     14  H   UNL     1      -3.142   4.138  -3.180  0.00  0.00    +0.155 HD
BRANCH  12  15
ATOM     15  C   UNL     1      -3.396   5.394  -5.474  0.00  0.00    +0.075 C 
ATOM     16  C   UNL     1      -3.538   6.601  -4.544  0.00  0.00    +0.013 C 
ATOM     17  C   UNL     1      -2.751   7.782  -5.115  0.00  0.00    +0.001 C 
ATOM     18  C   UNL     1      -3.298   8.137  -6.499  0.00  0.00    +0.000 C 
ATOM     19  C   UNL     1      -3.155   6.931  -7.429  0.00  0.00    +0.001 C 
ATOM     20  C   UNL     1      -3.943   5.750  -6.858  0.00  0.00    +0.013 C 
ENDBRANCH  12  15
ENDBRANCH   7  11
ENDBRANCH   1   3
BRANCH   1  21
ATOM     21  O   UNL     1      -2.145   1.923  -1.065  0.00  0.00    -0.452 OA
BRANCH  21  22
ATOM     22  C   UNL     1      -1.173   2.397  -0.096  0.00  0.00    +0.328 C 
BRANCH  22  24
ATOM     23  N   UNL     1       1.195   1.967   0.478  0.00  0.00    -0.281 N 
ATOM     24  C   UNL     1       0.137   1.682  -0.308  0.00  0.00    +0.255 C 
ATOM     25  O   UNL     1       0.241   0.855  -1.189  0.00  0.00    -0.272 OA
ATOM     26  H   UNL     1       1.128   2.666   1.146  0.00  0.00    +0.155 HD
BRANCH  23  33
ATOM     27  C   UNL     1       1.089  -0.873   0.623  0.00  0.00    +0.046 C 
ATOM     28  C   UNL     1       2.383  -0.134   0.393  0.00  0.00    -0.027 A 
ATOM     29  C   UNL     1       3.562  -0.837   0.239  0.00  0.00    +0.005 A 
ATOM     30  C   UNL     1       4.750  -0.159   0.034  0.00  0.00    +0.003 A 
ATOM     31  C   UNL     1       4.760   1.222  -0.024  0.00  0.00    +0.034 A 
ATOM     32  C   UNL     1       3.584   1.930   0.122  0.00  0.00    +0.148 A 
ATOM     33  C   UNL     1       2.389   1.253   0.329  0.00  0.00    +0.067 A 
BRANCH  32  34
ATOM     34  N   UNL     1       3.595   3.409   0.059  0.00  0.00    +0.058 N 
ATOM     35  O   UNL     1       4.624   3.998  -0.220  0.00  0.00    -0.126 OA
ATOM     36  O   UNL     1       2.577   4.036   0.286  0.00  0.00    -0.126 OA
ENDBRANCH  32  34
ENDBRANCH  23  33
ENDBRANCH  22  24
ENDBRANCH  21  22
ENDBRANCH   1  21
TORSDOF 8
