REMARK  Name = ZINC10626712
REMARK  7 active torsions:
REMARK  status: ('A' for Active; 'I' for Inactive)
REMARK    1  A    between atoms: C_4  and  C_7
REMARK    2  A    between atoms: C_7  and  C_9
REMARK    3  A    between atoms: C_7  and  O_22
REMARK    4  A    between atoms: N_11  and  C_12
REMARK    5  A    between atoms: C_15  and  N_19
REMARK    6  A    between atoms: O_22  and  C_23
REMARK    7  A    between atoms: C_23  and  C_25
REMARK                            x       y       z     vdW  Elec       q    Type
REMARK                         _______ _______ _______ _____ _____    ______ ____
ROOT
ATOM      1  C   UNL     1       3.694  -0.708  -0.042  0.00  0.00    +0.292 C 
ENDROOT
BRANCH   1   5
ATOM      2  C   UNL     1      -0.036   1.373  -0.024  0.00  0.00    +0.000 A 
ATOM      3  C   UNL     1       1.150   2.082  -0.023  0.00  0.00    +0.000 A 
ATOM      4  C   UNL     1       2.358   1.409  -0.028  0.00  0.00    +0.008 A 
ATOM      5  C   UNL     1       2.378   0.027  -0.035  0.00  0.00    +0.002 A 
ATOM      6  C   UNL     1       1.191  -0.682  -0.036  0.00  0.00    +0.008 A 
ATOM      7  C   UNL     1      -0.016  -0.009  -0.031  0.00  0.00    +0.000 A 
ENDBRANCH   1   5
BRANCH   1   8
ATOM      8  C   UNL     1       4.069  -1.054  -1.460  0.00  0.00    +0.263 C 
ATOM      9  O   UNL     1       4.130  -2.215  -1.806  0.00  0.00    -0.271 OA
ATOM     10  N   UNL     1       4.335  -0.073  -2.345  0.00  0.00    -0.281 N 
ATOM     11  H   UNL     1       4.224   0.856  -2.088  0.00  0.00    +0.155 HD
BRANCH  10  12
ATOM     12  C   UNL     1       4.774  -0.394  -3.635  0.00  0.00    +0.048 A 
ATOM     13  C   UNL     1       4.296  -1.533  -4.269  0.00  0.00    +0.026 A 
ATOM     14  C   UNL     1       4.731  -1.848  -5.542  0.00  0.00    +0.034 A 
ATOM     15  C   UNL     1       5.642  -1.030  -6.185  0.00  0.00    +0.127 A 
ATOM     16  C   UNL     1       6.120   0.105  -5.557  0.00  0.00    +0.049 A 
ATOM     17  C   UNL     1       5.684   0.429  -4.286  0.00  0.00    +0.041 A 
ATOM     18 BR   UNL     1       6.333   1.986  -3.431  0.00  0.00    -0.048 Br
BRANCH  15  19
ATOM     19  N   UNL     1       6.106  -1.371  -7.549  0.00  0.00    +0.056 N 
ATOM     20  O   UNL     1       5.689  -2.363  -8.099  0.00  0.00    -0.126 OA
ATOM     21  O   UNL     1       6.902  -0.657  -8.112  0.00  0.00    -0.126 OA
ENDBRANCH  15  19
ENDBRANCH  10  12
ENDBRANCH   1   8
BRANCH   1  22
ATOM     22  O   UNL     1       3.575  -1.907   0.725  0.00  0.00    -0.447 OA
BRANCH  22  23
ATOM     23  C   UNL     1       3.861  -1.824   2.034  0.00  0.00    +0.311 C 
ATOM     24  O   UNL     1       4.201  -0.768   2.512  0.00  0.00    -0.251 OA
BRANCH  23  25
ATOM     25  C   UNL     1       3.757  -3.048   2.907  0.00  0.00    +0.098 C 
ATOM     26  C   UNL     1       2.322  -3.578   2.875  0.00  0.00    +0.015 C 
ATOM     27  C   UNL     1       2.217  -4.820   3.761  0.00  0.00    +0.001 C 
ATOM     28  C   UNL     1       2.594  -4.455   5.198  0.00  0.00    +0.000 C 
ATOM     29  C   UNL     1       4.029  -3.926   5.230  0.00  0.00    +0.001 C 
ATOM     30  C   UNL     1       4.134  -2.683   4.344  0.00  0.00    +0.015 C 
ENDBRANCH  23  25
ENDBRANCH  22  23
ENDBRANCH   1  22
TORSDOF 7
