REMARK  Name = ZINC32087831
REMARK  6 active torsions:
REMARK  status: ('A' for Active; 'I' for Inactive)
REMARK    1  A    between atoms: C_1  and  C_2
REMARK    2  A    between atoms: C_2  and  C_4
REMARK    3  A    between atoms: C_2  and  O_30
REMARK    4  A    between atoms: C_4  and  N_5
REMARK    5  A    between atoms: C_10  and  C_13
REMARK    6  A    between atoms: C_22  and  C_24
REMARK                            x       y       z     vdW  Elec       q    Type
REMARK                         _______ _______ _______ _____ _____    ______ ____
ROOT
ATOM      1  N   UNL     1       7.870   1.567  -0.059  0.00  0.00    -0.311 N 
ATOM      2  C   UNL     1       7.149   2.740  -0.047  0.00  0.00    +0.219 A 
ATOM      3  N   UNL     1       7.788   3.887  -0.046  0.00  0.00    -0.207 NA
ATOM      4  C   UNL     1       7.148   5.051  -0.035  0.00  0.00    +0.116 A 
ATOM      5  C   UNL     1       5.746   5.130  -0.024  0.00  0.00    +0.060 A 
ATOM      6  C   UNL     1       5.203   6.482  -0.012  0.00  0.00    +0.002 A 
ATOM      7  C   UNL     1       6.063   7.530  -0.014  0.00  0.00    +0.056 A 
ATOM      8  S   UNL     1       7.665   6.748  -0.031  0.00  0.00    -0.076 S 
ATOM      9  C   UNL     1       5.044   3.833  -0.024  0.00  0.00    +0.170 A 
ATOM     10  N   UNL     1       5.785   2.686  -0.036  0.00  0.00    -0.181 N 
ATOM     11  N   UNL     1       4.864   1.628  -0.029  0.00  0.00    -0.142 NA
ATOM     12  C   UNL     1       3.660   2.164  -0.021  0.00  0.00    +0.182 A 
ATOM     13  N   UNL     1       3.769   3.497  -0.015  0.00  0.00    -0.206 NA
ATOM     14  H   UNL     1       7.347   0.599  -0.060  0.00  0.00    +0.149 HD
ENDROOT
BRANCH   6  15
ATOM     15  C   UNL     1       3.738   6.707   0.002  0.00  0.00    -0.017 A 
ATOM     16  C   UNL     1       2.921   6.057  -0.922  0.00  0.00    +0.008 A 
ATOM     17  C   UNL     1       1.558   6.267  -0.901  0.00  0.00    +0.001 A 
ATOM     18  C   UNL     1       1.002   7.129   0.027  0.00  0.00    +0.000 A 
ATOM     19  C   UNL     1       1.808   7.781   0.943  0.00  0.00    +0.001 A 
ATOM     20  C   UNL     1       3.172   7.575   0.935  0.00  0.00    +0.008 A 
ENDBRANCH   6  15
BRANCH  12  21
ATOM     21  C   UNL     1       2.384   1.408  -0.013  0.00  0.00    +0.021 A 
ATOM     22  C   UNL     1       1.168   2.088   0.002  0.00  0.00    +0.011 A 
ATOM     23  C   UNL     1      -0.017   1.379   0.010  0.00  0.00    +0.001 A 
ATOM     24  C   UNL     1       0.002  -0.004   0.002  0.00  0.00    +0.000 A 
ATOM     25  C   UNL     1       1.206  -0.684  -0.013  0.00  0.00    +0.001 A 
ATOM     26  C   UNL     1       2.397   0.014  -0.020  0.00  0.00    +0.011 A 
ENDBRANCH  12  21
BRANCH   1  27
ATOM     27  C   UNL     1       9.335   1.607  -0.071  0.00  0.00    +0.135 C 
BRANCH  27  29
ATOM     28  C   UNL     1      11.413   0.221  -0.095  0.00  0.00    +0.039 C 
ATOM     29  C   UNL     1       9.884   0.179  -0.083  0.00  0.00    +0.128 C 
BRANCH  29  30
ATOM     30  O   UNL     1       9.436  -0.514   1.083  0.00  0.00    -0.391 OA
ATOM     31  H   UNL     1       8.359  -0.645   1.265  0.00  0.00    +0.210 HD
ENDBRANCH  29  30
ENDBRANCH  27  29
ENDBRANCH   1  27
TORSDOF 5
