REMARK  Name = ZINC13083074
REMARK  12 active torsions:
REMARK  status: ('A' for Active; 'I' for Inactive)
REMARK    1  A    between atoms: C_1  and  C_2
REMARK    2  A    between atoms: C_2  and  C_36
REMARK    3  A    between atoms: C_4  and  N_9
REMARK    4  A    between atoms: C_6  and  C_7
REMARK    5  A    between atoms: C_6  and  C_8
REMARK    6  A    between atoms: N_9  and  C_10
REMARK    7  A    between atoms: C_10  and  C_11
REMARK    8  A    between atoms: C_14  and  O_17
REMARK    9  A    between atoms: O_17  and  C_18
REMARK   10  A    between atoms: C_19  and  C_21
REMARK   11  A    between atoms: N_25  and  C_26
REMARK   12  A    between atoms: C_26  and  C_27
REMARK                            x       y       z     vdW  Elec       q    Type
REMARK                         _______ _______ _______ _____ _____    ______ ____
ROOT
ATOM      1  N   UNL     1      -3.786   3.029   0.433  0.00  0.00    -0.289 N 
ATOM      2  C   UNL     1      -3.776   2.884   1.773  0.00  0.00    +0.264 C 
ATOM      3  O   UNL     1      -3.936   3.854   2.491  0.00  0.00    -0.268 OA
ENDROOT
BRANCH   1   7
ATOM      4  C   UNL     1      -0.146   1.809  -1.724  0.00  0.00    -0.010 C 
ATOM      5  C   UNL     1      -0.717   1.019  -0.540  0.00  0.00    -0.072 C 
ATOM      6  C   UNL     1      -1.607   1.931   0.300  0.00  0.00    +0.009 C 
ATOM      7  C   UNL     1      -2.942   2.167  -0.405  0.00  0.00    +0.074 C 
ATOM      8  C   UNL     1      -3.635   0.818  -0.597  0.00  0.00    +0.009 C 
ATOM      9  C   UNL     1      -2.770  -0.109  -1.446  0.00  0.00    -0.072 C 
ATOM     10  C   UNL     1      -2.842   0.325  -2.915  0.00  0.00    -0.010 C 
ATOM     11  C   UNL     1      -3.379  -1.525  -1.358  0.00  0.00    -0.010 C 
ATOM     12  C   UNL     1       0.477   0.592   0.343  0.00  0.00    -0.010 C 
ATOM     13  N   UNL     1      -1.361  -0.245  -0.988  0.00  0.00    +0.386 N 
ATOM     14  H   UNL     1      -1.344  -0.906  -0.203  0.00  0.00    -0.084 HD
ATOM     15  H   UNL     1      -0.809  -0.624  -1.767  0.00  0.00    -0.084 HD
ENDBRANCH   1   7
BRANCH   2  16
ATOM     16  C   UNL     1      -3.574   1.560   2.365  0.00  0.00    +0.106 A 
ATOM     17  C   UNL     1      -2.926   0.501   1.768  0.00  0.00    +0.048 A 
ATOM     18  C   UNL     1      -2.956  -0.558   2.661  0.00  0.00    +0.038 A 
ATOM     19  C   UNL     1      -3.621  -0.162   3.828  0.00  0.00    +0.057 A 
ATOM     20  N   UNL     1      -4.001   1.161   3.614  0.00  0.00    -0.331 N 
ATOM     21  C   UNL     1      -3.736  -1.137   4.827  0.00  0.00    +0.034 A 
ATOM     22  C   UNL     1      -3.212  -2.367   4.636  0.00  0.00    +0.048 A 
ATOM     23  S   UNL     1      -2.511  -2.243   2.999  0.00  0.00    -0.095 S 
BRANCH  20  24
ATOM     24  C   UNL     1      -4.733   1.998   4.568  0.00  0.00    +0.157 C 
BRANCH  24  25
ATOM     25  C   UNL     1      -6.213   1.756   4.417  0.00  0.00    -0.028 A 
ATOM     26  C   UNL     1      -6.812   0.702   5.082  0.00  0.00    +0.005 A 
ATOM     27  C   UNL     1      -8.170   0.483   4.948  0.00  0.00    +0.000 A 
ATOM     28  C   UNL     1      -8.928   1.314   4.145  0.00  0.00    +0.000 A 
ATOM     29  C   UNL     1      -8.329   2.364   3.475  0.00  0.00    +0.000 A 
ATOM     30  C   UNL     1      -6.970   2.583   3.609  0.00  0.00    +0.005 A 
ENDBRANCH  24  25
ENDBRANCH  20  24
ENDBRANCH   2  16
BRANCH   1  31
ATOM     31  C   UNL     1      -4.637   4.047  -0.188  0.00  0.00    +0.143 C 
BRANCH  31  32
ATOM     32  C   UNL     1      -3.871   5.339  -0.306  0.00  0.00    -0.030 A 
ATOM     33  C   UNL     1      -3.917   6.265   0.719  0.00  0.00    +0.009 A 
ATOM     34  C   UNL     1      -3.211   7.448   0.616  0.00  0.00    +0.046 A 
ATOM     35  C   UNL     1      -2.464   7.711  -0.523  0.00  0.00    +0.120 A 
ATOM     36  C   UNL     1      -2.424   6.783  -1.554  0.00  0.00    +0.046 A 
ATOM     37  C   UNL     1      -3.127   5.599  -1.443  0.00  0.00    +0.009 A 
BRANCH  35  38
ATOM     38  O   UNL     1      -1.773   8.876  -0.630  0.00  0.00    -0.495 OA
ATOM     39  C   UNL     1      -1.860   9.785   0.469  0.00  0.00    +0.277 C 
ENDBRANCH  35  38
ENDBRANCH  31  32
ENDBRANCH   1  31
TORSDOF 7
