REMARK  Name = ZINC35452772
REMARK  6 active torsions:
REMARK  status: ('A' for Active; 'I' for Inactive)
REMARK    1  A    between atoms: C_1  and  C_2
REMARK    2  A    between atoms: C_2  and  C_3
REMARK    3  A    between atoms: C_3  and  C_5
REMARK    4  A    between atoms: C_3  and  N_6
REMARK    5  A    between atoms: N_6  and  C_7
REMARK    6  A    between atoms: C_12  and  N_13
REMARK                            x       y       z     vdW  Elec       q    Type
REMARK                         _______ _______ _______ _____ _____    ______ ____
ROOT
ATOM      1  C   UNL     1      -3.503  -0.035  -1.266  0.00  0.00    +0.050 A 
ATOM      2  C   UNL     1      -4.248  -0.282  -0.123  0.00  0.00    +0.051 A 
ATOM      3  C   UNL     1      -5.629  -0.169  -0.162  0.00  0.00    +0.078 A 
ATOM      4  C   UNL     1      -6.269   0.191  -1.346  0.00  0.00    +0.144 A 
ATOM      5  C   UNL     1      -5.526   0.438  -2.487  0.00  0.00    +0.072 A 
ATOM      6  C   UNL     1      -4.143   0.332  -2.449  0.00  0.00    +0.049 A 
ATOM      7  O   UNL     1      -7.625   0.296  -1.368  0.00  0.00    -0.481 OA
ATOM      8  C   UNL     1      -8.353  -0.595  -0.519  0.00  0.00    +0.325 C 
ATOM      9  C   UNL     1      -7.729  -0.609   0.854  0.00  0.00    +0.255 C 
ATOM     10  O   UNL     1      -8.419  -0.792   1.834  0.00  0.00    -0.272 OA
ATOM     11  N   UNL     1      -6.399  -0.415   0.987  0.00  0.00    -0.280 N 
ATOM     12  H   UNL     1      -5.982  -0.445   1.862  0.00  0.00    +0.155 HD
ENDROOT
BRANCH   6  13
ATOM     13  N   UNL     1      -3.388   0.587  -3.603  0.00  0.00    -0.356 N 
ATOM     14  H   UNL     1      -2.422   0.508  -3.578  0.00  0.00    +0.142 HD
ATOM     15  H   UNL     1      -3.833   0.842  -4.427  0.00  0.00    +0.142 HD
ENDBRANCH   6  13
BRANCH   1  16
ATOM     16  N   UNL     1      -2.105  -0.148  -1.230  0.00  0.00    -0.340 N 
ATOM     17  H   UNL     1      -1.584   0.029  -2.029  0.00  0.00    +0.146 HD
BRANCH  16  18
ATOM     18  C   UNL     1      -1.433  -0.534   0.013  0.00  0.00    +0.067 C 
ATOM     19  C   UNL     1      -1.413  -2.059   0.130  0.00  0.00    +0.028 C 
BRANCH  18  21
ATOM     20  C   UNL     1      -0.019   1.526   0.010  0.00  0.00    +0.005 C 
ATOM     21  C   UNL     1       0.002  -0.004   0.002  0.00  0.00    +0.018 C 
ENDBRANCH  18  21
ENDBRANCH  16  18
ENDBRANCH   1  16
TORSDOF 4
