REMARK  Name = ZINC26534418
REMARK  4 active torsions:
REMARK  status: ('A' for Active; 'I' for Inactive)
REMARK    1  A    between atoms: C_1  and  N_2
REMARK    2  A    between atoms: C_5  and  S_8
REMARK    3  A    between atoms: S_8  and  N_11
REMARK    4  A    between atoms: N_11  and  C_12
REMARK                            x       y       z     vdW  Elec       q    Type
REMARK                         _______ _______ _______ _____ _____    ______ ____
ROOT
ATOM      1  C   UNL     1       5.099   2.900   3.420  0.00  0.00    +0.078 A 
ATOM      2  C   UNL     1       6.026   2.919   2.385  0.00  0.00    +0.030 A 
ATOM      3  C   UNL     1       5.753   2.266   1.198  0.00  0.00    +0.051 A 
ATOM      4  C   UNL     1       4.556   1.592   1.037  0.00  0.00    +0.167 A 
ATOM      5  C   UNL     1       3.623   1.570   2.075  0.00  0.00    +0.169 A 
ATOM      6  C   UNL     1       3.897   2.224   3.262  0.00  0.00    +0.076 A 
ATOM      7  O   UNL     1       2.536   0.842   1.663  0.00  0.00    -0.447 OA
ATOM      8  C   UNL     1       2.636   0.862   0.236  0.00  0.00    +0.254 C 
ATOM      9  O   UNL     1       4.043   0.879  -0.018  0.00  0.00    -0.448 OA
ATOM     10  C   UNL     1       1.926   2.078  -0.373  0.00  0.00    +0.093 C 
ATOM     11  C   UNL     1       0.456   1.623  -0.510  0.00  0.00    +0.008 C 
ATOM     12  C   UNL     1       0.469   0.083  -0.532  0.00  0.00    +0.008 C 
ATOM     13  C   UNL     1       1.948  -0.348  -0.406  0.00  0.00    +0.093 C 
ENDROOT
BRANCH   1  14
ATOM     14  N   UNL     1       5.378   3.563   4.620  0.00  0.00    -0.096 NA
BRANCH  14  15
ATOM     15  S   UNL     1       5.806   2.696   5.965  0.00  0.00    +0.110 S 
ATOM     16  O   UNL     1       6.055   3.641   6.996  0.00  0.00    -0.147 OA
ATOM     17  O   UNL     1       4.847   1.656   6.100  0.00  0.00    -0.147 OA
BRANCH  15  22
ATOM     18  C   UNL     1       9.517  -0.660   4.327  0.00  0.00    +0.151 C 
ATOM     19  N   UNL     1       8.860   0.506   4.922  0.00  0.00    -0.324 N 
ATOM     20  C   UNL     1       9.472   1.556   5.512  0.00  0.00    +0.176 A 
ATOM     21  N   UNL     1       8.561   2.396   5.922  0.00  0.00    -0.329 N 
ATOM     22  C   UNL     1       7.347   1.917   5.613  0.00  0.00    +0.214 A 
ATOM     23  C   UNL     1       7.512   0.732   4.991  0.00  0.00    +0.154 A 
ATOM     24 CL   UNL     1       6.256  -0.305   4.390  0.00  0.00    -0.060 Cl
ATOM     25  H   UNL     1       8.858   3.324   6.433  0.00  0.00    +0.168 HD
ENDBRANCH  15  22
ENDBRANCH  14  15
ENDBRANCH   1  14
TORSDOF 3
