REMARK  Name = ZINC03011124
REMARK  5 active torsions:
REMARK  status: ('A' for Active; 'I' for Inactive)
REMARK    1  A    between atoms: C_4  and  N_11
REMARK    2  A    between atoms: C_5  and  C_7
REMARK    3  A    between atoms: C_12  and  C_14
REMARK    4  A    between atoms: C_19  and  C_34
REMARK    5  A    between atoms: C_22  and  C_25
REMARK                            x       y       z     vdW  Elec       q    Type
REMARK                         _______ _______ _______ _____ _____    ______ ____
ROOT
ATOM      1  C   UNL     1       6.056  -0.686  -0.276  0.00  0.00    +0.149 A 
ATOM      2  C   UNL     1       7.335  -0.094  -0.393  0.00  0.00    +0.078 A 
ATOM      3  C   UNL     1       8.237  -1.090  -0.488  0.00  0.00    +0.119 A 
ATOM      4  N   UNL     1       7.566  -2.279  -0.432  0.00  0.00    -0.238 N 
ATOM      5  N   UNL     1       6.207  -1.998  -0.296  0.00  0.00    -0.164 NA
ATOM      6  C   UNL     1       8.223  -3.587  -0.502  0.00  0.00    +0.215 C 
ATOM      7  C   UNL     1       9.707  -3.416  -0.158  0.00  0.00    +0.063 C 
ATOM      8  C   UNL     1      10.307  -2.276  -0.989  0.00  0.00    +0.104 C 
ATOM      9  N   UNL     1       9.627  -1.019  -0.623  0.00  0.00    -0.322 N 
ATOM     10  H   UNL     1      10.114  -0.192  -0.485  0.00  0.00    +0.148 HD
ENDROOT
BRANCH   8  11
ATOM     11  C   UNL     1      10.104  -2.558  -2.456  0.00  0.00    -0.024 A 
ATOM     12  C   UNL     1       8.883  -2.291  -3.047  0.00  0.00    +0.009 A 
ATOM     13  C   UNL     1       8.692  -2.547  -4.391  0.00  0.00    +0.050 A 
ATOM     14  C   UNL     1       9.725  -3.074  -5.151  0.00  0.00    +0.166 A 
ATOM     15  C   UNL     1      10.955  -3.343  -4.555  0.00  0.00    +0.167 A 
ATOM     16  C   UNL     1      11.141  -3.078  -3.208  0.00  0.00    +0.055 A 
ATOM     17  O   UNL     1      11.796  -3.850  -5.503  0.00  0.00    -0.453 OA
ATOM     18  C   UNL     1      10.946  -4.270  -6.587  0.00  0.00    +0.466 C 
ATOM     19  O   UNL     1       9.796  -3.412  -6.471  0.00  0.00    -0.453 OA
ENDBRANCH   8  11
BRANCH   1  21
ATOM     20  N   UNL     1       3.621  -0.650  -0.037  0.00  0.00    -0.280 N 
ATOM     21  C   UNL     1       4.775   0.037  -0.147  0.00  0.00    +0.268 C 
ATOM     22  O   UNL     1       4.761   1.253  -0.141  0.00  0.00    -0.268 OA
ATOM     23  H   UNL     1       3.638  -1.617   0.038  0.00  0.00    +0.155 HD
BRANCH  20  27
ATOM     24  C   UNL     1      -0.019   1.375  -0.023  0.00  0.00    +0.001 A 
ATOM     25  C   UNL     1       1.087   1.947  -0.626  0.00  0.00    +0.002 A 
ATOM     26  C   UNL     1       2.295   1.278  -0.633  0.00  0.00    +0.024 A 
ATOM     27  C   UNL     1       2.399   0.030  -0.032  0.00  0.00    +0.045 A 
ATOM     28  C   UNL     1       1.287  -0.541   0.573  0.00  0.00    +0.076 A 
ATOM     29  C   UNL     1       0.082   0.133   0.576  0.00  0.00    +0.014 A 
BRANCH  28  30
ATOM     30  C   UNL     1       1.396  -1.895   1.226  0.00  0.00    +0.419 C 
ATOM     31  F   UNL     1       0.155  -2.255   1.761  0.00  0.00    -0.166 F 
ATOM     32  F   UNL     1       1.785  -2.842   0.272  0.00  0.00    -0.166 F 
ATOM     33  F   UNL     1       2.349  -1.845   2.249  0.00  0.00    -0.166 F 
ENDBRANCH  28  30
ENDBRANCH  20  27
ENDBRANCH   1  21
BRANCH   6  34
ATOM     34  C   UNL     1       7.570  -4.542   0.499  0.00  0.00    +0.412 C 
ATOM     35  F   UNL     1       6.213  -4.686   0.189  0.00  0.00    -0.168 F 
ATOM     36  F   UNL     1       8.199  -5.790   0.431  0.00  0.00    -0.168 F 
ATOM     37  F   UNL     1       7.701  -4.024   1.792  0.00  0.00    -0.168 F 
ENDBRANCH   6  34
TORSDOF 5
