REMARK  Name = ZINC07408707
REMARK  9 active torsions:
REMARK  status: ('A' for Active; 'I' for Inactive)
REMARK    1  A    between atoms: C_1  and  C_2
REMARK    2  A    between atoms: C_6  and  N_9
REMARK    3  A    between atoms: C_7  and  C_8
REMARK    4  A    between atoms: C_10  and  C_12
REMARK    5  A    between atoms: C_12  and  N_13
REMARK    6  A    between atoms: N_13  and  C_14
REMARK    7  A    between atoms: C_14  and  C_15
REMARK    8  A    between atoms: C_21  and  C_23
REMARK    9  A    between atoms: C_24  and  C_32
REMARK                            x       y       z     vdW  Elec       q    Type
REMARK                         _______ _______ _______ _____ _____    ______ ____
ROOT
ATOM      1  N   UNL     1      -0.211  -6.340   3.413  0.00  0.00    -0.284 N 
ATOM      2  C   UNL     1      -1.397  -6.918   3.136  0.00  0.00    +0.283 C 
ATOM      3  O   UNL     1      -1.468  -8.124   2.995  0.00  0.00    -0.267 OA
ENDROOT
BRANCH   2   4
ATOM      4  C   UNL     1      -2.605  -6.091   3.006  0.00  0.00    +0.194 A 
ATOM      5  C   UNL     1      -3.865  -6.569   2.834  0.00  0.00    +0.008 A 
ATOM      6  C   UNL     1      -4.735  -5.397   2.755  0.00  0.00    +0.024 A 
ATOM      7  C   UNL     1      -6.110  -5.214   2.586  0.00  0.00    +0.012 A 
ATOM      8  C   UNL     1      -6.627  -3.950   2.554  0.00  0.00    +0.001 A 
ATOM      9  C   UNL     1      -5.794  -2.846   2.688  0.00  0.00    +0.004 A 
ATOM     10  C   UNL     1      -4.436  -3.005   2.854  0.00  0.00    +0.047 A 
ATOM     11  C   UNL     1      -3.887  -4.282   2.891  0.00  0.00    +0.136 A 
ATOM     12  O   UNL     1      -2.630  -4.742   3.043  0.00  0.00    -0.450 OA
ATOM     13  C   UNL     1      -4.281  -8.014   2.743  0.00  0.00    +0.048 C 
ENDBRANCH   2   4
BRANCH   1  14
ATOM     14  C   UNL     1      -0.145  -4.905   3.698  0.00  0.00    +0.204 C 
BRANCH  14  16
ATOM     15  N   UNL     1       0.018  -2.794   2.419  0.00  0.00    -0.284 N 
ATOM     16  C   UNL     1      -0.054  -4.139   2.403  0.00  0.00    +0.235 C 
ATOM     17  O   UNL     1      -0.045  -4.734   1.346  0.00  0.00    -0.274 OA
ATOM     18  H   UNL     1       0.093  -2.322   3.264  0.00  0.00    +0.155 HD
BRANCH  15  24
ATOM     19  C   UNL     1       1.136   1.266  -0.118  0.00  0.00    +0.044 C 
ATOM     20  C   UNL     1       0.519  -0.106  -0.040  0.00  0.00    -0.046 A 
ATOM     21  C   UNL     1      -0.081  -0.659  -1.157  0.00  0.00    +0.004 A 
ATOM     22  C   UNL     1      -0.648  -1.918  -1.089  0.00  0.00    +0.002 A 
ATOM     23  C   UNL     1      -0.616  -2.628   0.095  0.00  0.00    +0.023 A 
ATOM     24  C   UNL     1      -0.015  -2.077   1.218  0.00  0.00    +0.037 A 
ATOM     25  C   UNL     1       0.558  -0.814   1.145  0.00  0.00    -0.026 A 
ATOM     26  C   UNL     1       1.217  -0.213   2.361  0.00  0.00    +0.046 C 
ENDBRANCH  15  24
ENDBRANCH  14  16
ENDBRANCH   1  14
BRANCH   1  27
ATOM     27  C   UNL     1       1.011  -7.148   3.429  0.00  0.00    +0.140 C 
BRANCH  27  28
ATOM     28  C   UNL     1       1.309  -7.594   4.862  0.00  0.00    +0.136 C 
ATOM     29  C   UNL     1       2.658  -8.343   4.907  0.00  0.00    +0.035 C 
ATOM     30  C   UNL     1       2.365  -9.489   5.913  0.00  0.00    +0.031 C 
ATOM     31  C   UNL     1       0.877  -9.783   5.599  0.00  0.00    +0.160 C 
ATOM     32  O   UNL     1       0.294  -8.500   5.309  0.00  0.00    -0.375 OA
ENDBRANCH  27  28
ENDBRANCH   1  27
TORSDOF 6
