REMARK  Name = ZINC12605593
REMARK  6 active torsions:
REMARK  status: ('A' for Active; 'I' for Inactive)
REMARK    1  A    between atoms: C_1  and  C_2
REMARK    2  A    between atoms: C_5  and  N_18
REMARK    3  A    between atoms: C_7  and  S_8
REMARK    4  A    between atoms: S_8  and  N_11
REMARK    5  A    between atoms: N_18  and  S_19
REMARK    6  A    between atoms: S_19  and  C_22
REMARK                            x       y       z     vdW  Elec       q    Type
REMARK                         _______ _______ _______ _____ _____    ______ ____
ROOT
ATOM      1  C   UNL     1      -1.746   4.286  -2.378  0.00  0.00    +0.046 C 
ATOM      2  C   UNL     1      -3.038   4.105  -1.623  0.00  0.00    -0.024 A 
ATOM      3  C   UNL     1      -3.952   3.153  -2.038  0.00  0.00    +0.007 A 
ATOM      4  C   UNL     1      -5.139   2.989  -1.353  0.00  0.00    +0.025 A 
ATOM      5  C   UNL     1      -5.412   3.777  -0.241  0.00  0.00    +0.050 A 
ATOM      6  C   UNL     1      -4.490   4.728   0.176  0.00  0.00    +0.053 A 
ATOM      7  C   UNL     1      -3.304   4.887  -0.514  0.00  0.00    +0.110 A 
ENDROOT
BRANCH   7   8
ATOM      8  S   UNL     1      -2.133   6.093   0.014  0.00  0.00    +0.061 S 
ATOM      9  O   UNL     1      -2.661   6.682   1.194  0.00  0.00    -0.153 OA
ATOM     10  O   UNL     1      -1.793   6.859  -1.133  0.00  0.00    -0.153 OA
BRANCH   8  11
ATOM     11  N   UNL     1      -0.762   5.280   0.464  0.00  0.00    -0.177 NA
ATOM     12  C   UNL     1       0.377   5.113  -0.500  0.00  0.00    +0.109 C 
ATOM     13  C   UNL     1       1.479   5.950  -0.032  0.00  0.00    +0.017 C 
ATOM     14  C   UNL     1       1.958   5.628   1.380  0.00  0.00    +0.001 C 
ATOM     15  C   UNL     1       1.120   6.478   2.292  0.00  0.00    +0.001 C 
ATOM     16  C   UNL     1      -0.065   5.664   2.867  0.00  0.00    +0.017 C 
ATOM     17  C   UNL     1      -0.644   4.724   1.781  0.00  0.00    +0.109 C 
ENDBRANCH   8  11
ENDBRANCH   7   8
BRANCH   5  18
ATOM     18  N   UNL     1      -6.613   3.614   0.454  0.00  0.00    -0.216 N 
ATOM     19  H   UNL     1      -6.613   3.195   1.329  0.00  0.00    +0.174 HD
BRANCH  18  20
ATOM     20  S   UNL     1      -8.035   4.136  -0.215  0.00  0.00    +0.072 S 
ATOM     21  O   UNL     1      -8.009   3.745  -1.581  0.00  0.00    -0.150 OA
ATOM     22  O   UNL     1      -9.071   3.737   0.672  0.00  0.00    -0.150 OA
BRANCH  20  23
ATOM     23  C   UNL     1      -8.004   5.898  -0.195  0.00  0.00    +0.109 A 
ATOM     24  C   UNL     1      -7.582   6.592  -1.319  0.00  0.00    +0.032 A 
ATOM     25  C   UNL     1      -7.551   7.971  -1.324  0.00  0.00    +0.049 A 
ATOM     26  C   UNL     1      -7.945   8.675  -0.194  0.00  0.00    +0.139 A 
ATOM     27  C   UNL     1      -8.373   7.968   0.944  0.00  0.00    +0.019 A 
ATOM     28  C   UNL     1      -8.402   6.570   0.927  0.00  0.00    +0.040 A 
ATOM     29  C   UNL     1      -8.787   8.718   2.133  0.00  0.00    +0.018 A 
ATOM     30  C   UNL     1      -8.740  10.074   2.085  0.00  0.00    +0.092 A 
ATOM     31  C   UNL     1      -8.300  10.718   0.908  0.00  0.00    +0.337 A 
ATOM     32  O   UNL     1      -8.262  11.935   0.877  0.00  0.00    -0.245 OA
ATOM     33  O   UNL     1      -7.922  10.024  -0.177  0.00  0.00    -0.422 OA
ENDBRANCH  20  23
ENDBRANCH  18  20
ENDBRANCH   5  18
TORSDOF 5
