REMARK  Name = ZINC45746472
REMARK  10 active torsions:
REMARK  status: ('A' for Active; 'I' for Inactive)
REMARK    1  A    between atoms: C_1  and  C_2
REMARK    2  A    between atoms: C_2  and  C_3
REMARK    3  A    between atoms: C_10  and  C_12
REMARK    4  A    between atoms: C_15  and  S_18
REMARK    5  A    between atoms: N_16  and  C_17
REMARK    6  A    between atoms: S_18  and  C_19
REMARK    7  A    between atoms: C_19  and  C_21
REMARK    8  A    between atoms: C_19  and  C_22
REMARK    9  A    between atoms: N_24  and  C_25
REMARK   10  A    between atoms: C_27  and  C_30
REMARK                            x       y       z     vdW  Elec       q    Type
REMARK                         _______ _______ _______ _____ _____    ______ ____
ROOT
ATOM      1  C   UNL     1       6.117  -0.605   4.444  0.00  0.00    +0.171 A 
ATOM      2  N   UNL     1       7.055   0.184   3.968  0.00  0.00    -0.128 NA
ATOM      3  N   UNL     1       8.048   0.225   4.782  0.00  0.00    -0.122 NA
ATOM      4  C   UNL     1       7.808  -0.534   5.827  0.00  0.00    +0.192 A 
ATOM      5  N   UNL     1       6.569  -1.085   5.653  0.00  0.00    -0.305 N 
ATOM      6  C   UNL     1       5.870  -1.998   6.561  0.00  0.00    +0.153 C 
ENDROOT
BRANCH   1  13
ATOM      7  C   UNL     1       0.742  -0.511   1.242  0.00  0.00    -0.007 C 
ATOM      8  C   UNL     1       0.649  -2.038   1.300  0.00  0.00    +0.009 C 
ATOM      9  C   UNL     1       1.156  -2.511   2.671  0.00  0.00    +0.043 C 
ATOM     10  C   UNL     1       2.451  -1.821   2.956  0.00  0.00    -0.006 A 
ATOM     11  C   UNL     1       2.970  -0.733   2.319  0.00  0.00    -0.036 A 
ATOM     12  C   UNL     1       4.201  -0.273   2.770  0.00  0.00    +0.023 A 
ATOM     13  C   UNL     1       4.825  -0.912   3.808  0.00  0.00    +0.057 A 
ATOM     14  S   UNL     1       3.663  -2.214   4.188  0.00  0.00    -0.090 S 
ATOM     15  C   UNL     1       2.207  -0.080   1.169  0.00  0.00    +0.039 C 
BRANCH   7  17
ATOM     16  C   UNL     1      -0.019   1.526   0.010  0.00  0.00    +0.004 C 
ATOM     17  C   UNL     1       0.002  -0.004   0.002  0.00  0.00    +0.000 C 
ENDBRANCH   7  17
ENDBRANCH   1  13
BRANCH   4  18
ATOM     18  S   UNL     1       8.881  -0.789   7.202  0.00  0.00    -0.074 S 
BRANCH  18  19
ATOM     19  C   UNL     1      10.337   0.222   6.816  0.00  0.00    +0.137 C 
ATOM     20  C   UNL     1      11.030  -0.336   5.571  0.00  0.00    +0.029 C 
BRANCH  19  21
ATOM     21  C   UNL     1      11.293   0.190   7.980  0.00  0.00    +0.233 C 
ATOM     22  O   UNL     1      11.282  -0.748   8.748  0.00  0.00    -0.274 OA
ATOM     23  N   UNL     1      12.161   1.204   8.167  0.00  0.00    -0.253 N 
ATOM     24  H   UNL     1      12.170   1.955   7.552  0.00  0.00    +0.158 HD
BRANCH  23  25
ATOM     25  C   UNL     1      13.041   1.175   9.238  0.00  0.00    +0.224 A 
ATOM     26  C   UNL     1      13.959   2.127   9.546  0.00  0.00    +0.092 A 
ATOM     27  C   UNL     1      14.643   1.715  10.699  0.00  0.00    +0.082 A 
ATOM     28  N   UNL     1      14.158   0.563  11.070  0.00  0.00    -0.081 NA
ATOM     29  O   UNL     1      13.134   0.202  10.161  0.00  0.00    -0.339 OA
ATOM     30  C   UNL     1      15.748   2.473  11.389  0.00  0.00    +0.069 C 
ENDBRANCH  23  25
ENDBRANCH  19  21
ENDBRANCH  18  19
ENDBRANCH   4  18
TORSDOF 6
