REMARK  Name = ZINC20758398
REMARK  6 active torsions:
REMARK  status: ('A' for Active; 'I' for Inactive)
REMARK    1  A    between atoms: C_1  and  C_2
REMARK    2  A    between atoms: C_2  and  C_3
REMARK    3  A    between atoms: C_2  and  C_4
REMARK    4  A    between atoms: C_2  and  N_5
REMARK    5  A    between atoms: C_6  and  C_8
REMARK    6  A    between atoms: C_21  and  C_24
REMARK                            x       y       z     vdW  Elec       q    Type
REMARK                         _______ _______ _______ _____ _____    ______ ____
ROOT
ATOM      1  C   UNL     1       0.599   4.326   0.187  0.00  0.00    +0.037 A 
ATOM      2  C   UNL     1       0.973   2.979   0.200  0.00  0.00    +0.015 A 
ATOM      3  C   UNL     1       0.004   2.004   0.168  0.00  0.00    +0.024 A 
ATOM      4  C   UNL     1      -1.343   2.357   0.117  0.00  0.00    +0.031 A 
ATOM      5  C   UNL     1      -1.727   3.692   0.109  0.00  0.00    -0.019 A 
ATOM      6  C   UNL     1      -0.752   4.673   0.142  0.00  0.00    +0.019 A 
ATOM      7  C   UNL     1      -3.162   4.112   0.060  0.00  0.00    +0.049 C 
ATOM      8  C   UNL     1      -3.542   4.613  -1.314  0.00  0.00    -0.023 C 
ATOM      9  C   UNL     1      -4.770   4.257  -1.603  0.00  0.00    -0.030 C 
ATOM     10  C   UNL     1      -5.380   3.473  -0.456  0.00  0.00    +0.033 C 
ATOM     11  C   UNL     1      -4.137   2.947   0.321  0.00  0.00    +0.029 C 
ATOM     12  C   UNL     1      -3.649   1.687  -0.399  0.00  0.00    +0.105 C 
ATOM     13  N   UNL     1      -2.307   1.351   0.087  0.00  0.00    -0.336 N 
ATOM     14  H   UNL     1      -2.082   0.326   0.416  0.00  0.00    +0.147 HD
ENDROOT
BRANCH  12  15
ATOM     15  C   UNL     1      -3.599   1.942  -1.883  0.00  0.00    -0.027 A 
ATOM     16  C   UNL     1      -4.702   1.667  -2.669  0.00  0.00    +0.005 A 
ATOM     17  C   UNL     1      -4.658   1.906  -4.030  0.00  0.00    +0.000 A 
ATOM     18  C   UNL     1      -3.507   2.408  -4.607  0.00  0.00    +0.000 A 
ATOM     19  C   UNL     1      -2.401   2.678  -3.822  0.00  0.00    +0.000 A 
ATOM     20  C   UNL     1      -2.447   2.444  -2.460  0.00  0.00    +0.005 A 
ENDBRANCH  12  15
BRANCH   1  22
ATOM     21  N   UNL     1       2.935   5.044   0.264  0.00  0.00    -0.307 N 
ATOM     22  C   UNL     1       1.631   5.379   0.221  0.00  0.00    +0.244 C 
ATOM     23  O   UNL     1       1.304   6.551   0.209  0.00  0.00    -0.270 OA
ATOM     24  H   UNL     1       3.230   3.984   0.275  0.00  0.00    +0.150 HD
BRANCH  21  26
ATOM     25  C   UNL     1       3.760   6.960   1.541  0.00  0.00    +0.031 C 
ATOM     26  C   UNL     1       3.960   6.090   0.298  0.00  0.00    +0.026 C 
ATOM     27  C   UNL     1       5.346   5.444   0.344  0.00  0.00    +0.031 C 
ATOM     28  C   UNL     1       3.843   6.958  -0.956  0.00  0.00    +0.031 C 
ENDBRANCH  21  26
ENDBRANCH   1  22
TORSDOF 3
