REMARK  Name = ZINC34766426
REMARK  6 active torsions:
REMARK  status: ('A' for Active; 'I' for Inactive)
REMARK    1  A    between atoms: C_1  and  C_2
REMARK    2  A    between atoms: C_2  and  C_29
REMARK    3  A    between atoms: C_7  and  N_17
REMARK    4  A    between atoms: C_8  and  C_9
REMARK    5  A    between atoms: C_9  and  C_11
REMARK    6  A    between atoms: N_20  and  C_21
REMARK                            x       y       z     vdW  Elec       q    Type
REMARK                         _______ _______ _______ _____ _____    ______ ____
ROOT
ATOM      1  C   UNL     1       0.382  -1.390   0.852  0.00  0.00    +0.041 C 
ATOM      2  C   UNL     1      -0.306  -2.748   0.697  0.00  0.00    +0.068 C 
ATOM      3  C   UNL     1      -1.808  -2.535   0.481  0.00  0.00    +0.071 C 
ATOM      4  C   UNL     1      -2.405  -2.041   1.792  0.00  0.00    -0.020 A 
ATOM      5  C   UNL     1      -1.721  -2.195   2.949  0.00  0.00    +0.021 A 
ATOM      6  S   UNL     1      -2.768  -1.491   4.186  0.00  0.00    -0.075 S 
ATOM      7  C   UNL     1      -4.061  -1.010   3.228  0.00  0.00    +0.084 A 
ATOM      8  C   UNL     1      -3.692  -1.391   1.942  0.00  0.00    +0.054 A 
ATOM      9  C   UNL     1      -0.374  -2.831   3.095  0.00  0.00    +0.203 C 
ATOM     10  O   UNL     1      -0.083  -3.529   1.874  0.00  0.00    -0.368 OA
ATOM     11  C   UNL     1       0.279  -3.477  -0.514  0.00  0.00    +0.041 C 
ENDROOT
BRANCH   7  12
ATOM     12  N   UNL     1      -5.228  -0.380   3.627  0.00  0.00    -0.263 N 
ATOM     13  C   UNL     1      -5.476  -0.189   4.938  0.00  0.00    +0.308 C 
ATOM     14  O   UNL     1      -4.723  -0.651   5.773  0.00  0.00    -0.252 OA
ATOM     15  N   UNL     1      -6.559   0.515   5.323  0.00  0.00    -0.269 N 
ATOM     16  H   UNL     1      -5.867  -0.076   2.963  0.00  0.00    +0.157 HD
ATOM     17  H   UNL     1      -7.214   0.796   4.665  0.00  0.00    +0.156 HD
BRANCH  15  18
ATOM     18  C   UNL     1      -6.738   0.841   6.672  0.00  0.00    +0.035 A 
ATOM     19  C   UNL     1      -5.637   1.101   7.477  0.00  0.00    +0.023 A 
ATOM     20  C   UNL     1      -5.818   1.422   8.808  0.00  0.00    +0.002 A 
ATOM     21  C   UNL     1      -7.093   1.485   9.339  0.00  0.00    +0.000 A 
ATOM     22  C   UNL     1      -8.191   1.227   8.540  0.00  0.00    +0.002 A 
ATOM     23  C   UNL     1      -8.018   0.911   7.207  0.00  0.00    +0.023 A 
ENDBRANCH  15  18
ENDBRANCH   7  12
BRANCH   8  24
ATOM     24  C   UNL     1      -4.563  -1.145   0.792  0.00  0.00    +0.196 C 
ATOM     25  O   UNL     1      -4.414  -0.141   0.119  0.00  0.00    -0.287 OA
BRANCH  24  26
ATOM     26  C   UNL     1      -5.625  -2.116   0.447  0.00  0.00    +0.022 A 
ATOM     27  C   UNL     1      -5.872  -3.209   1.280  0.00  0.00    +0.012 A 
ATOM     28  C   UNL     1      -6.864  -4.111   0.953  0.00  0.00    +0.001 A 
ATOM     29  C   UNL     1      -7.612  -3.933  -0.198  0.00  0.00    +0.000 A 
ATOM     30  C   UNL     1      -7.372  -2.852  -1.027  0.00  0.00    +0.001 A 
ATOM     31  C   UNL     1      -6.387  -1.940  -0.709  0.00  0.00    +0.012 A 
ENDBRANCH  24  26
ENDBRANCH   8  24
TORSDOF 4
