REMARK  Name = ZINC38884259
REMARK  11 active torsions:
REMARK  status: ('A' for Active; 'I' for Inactive)
REMARK    1  A    between atoms: C_1  and  C_2
REMARK    2  A    between atoms: C_5  and  C_9
REMARK    3  A    between atoms: C_6  and  C_8
REMARK    4  A    between atoms: C_9  and  C_11
REMARK    5  A    between atoms: C_9  and  N_14
REMARK    6  A    between atoms: C_11  and  C_12
REMARK    7  A    between atoms: C_11  and  C_13
REMARK    8  A    between atoms: C_15  and  C_17
REMARK    9  A    between atoms: N_20  and  C_23
REMARK   10  A    between atoms: C_23  and  C_24
REMARK   11  A    between atoms: C_26  and  C_29
REMARK                            x       y       z     vdW  Elec       q    Type
REMARK                         _______ _______ _______ _____ _____    ______ ____
ROOT
ATOM      1  C   UNL     1      -1.766  -6.453  -2.587  0.00  0.00    +0.071 C 
ATOM      2  C   UNL     1      -2.823  -5.461  -3.080  0.00  0.00    -0.006 C 
ATOM      3  C   UNL     1      -3.485  -6.016  -4.344  0.00  0.00    -0.077 C 
ATOM      4  N   UNL     1      -4.123  -7.303  -4.041  0.00  0.00    +0.386 N 
ATOM      5  C   UNL     1      -3.105  -8.280  -3.636  0.00  0.00    -0.077 C 
ATOM      6  C   UNL     1      -2.429  -7.812  -2.345  0.00  0.00    -0.006 C 
ATOM      7  H   UNL     1      -4.787  -7.180  -3.292  0.00  0.00    -0.081 HD
ENDROOT
BRANCH   1   9
ATOM      8  N   UNL     1      -0.525  -4.764  -1.273  0.00  0.00    -0.308 N 
ATOM      9  C   UNL     1      -1.165  -5.950  -1.299  0.00  0.00    +0.216 C 
ATOM     10  O   UNL     1      -1.257  -6.612  -0.288  0.00  0.00    -0.276 OA
ATOM     11  H   UNL     1      -0.451  -4.235  -2.082  0.00  0.00    +0.149 HD
BRANCH   8  12
ATOM     12  C   UNL     1       0.059  -4.275  -0.021  0.00  0.00    +0.106 C 
BRANCH  12  17
ATOM     13  C   UNL     1      -3.955  -1.406   2.986  0.00  0.00    +0.044 C 
ATOM     14  C   UNL     1      -2.908  -2.154   2.201  0.00  0.00    -0.050 A 
ATOM     15  C   UNL     1      -3.051  -2.315   0.836  0.00  0.00    +0.004 A 
ATOM     16  C   UNL     1      -2.091  -3.001   0.117  0.00  0.00    +0.006 A 
ATOM     17  C   UNL     1      -0.987  -3.526   0.763  0.00  0.00    -0.024 A 
ATOM     18  C   UNL     1      -0.844  -3.365   2.128  0.00  0.00    -0.045 A 
ATOM     19  C   UNL     1      -1.802  -2.675   2.847  0.00  0.00    +0.007 A 
ATOM     20  C   UNL     1       0.359  -3.937   2.832  0.00  0.00    +0.044 C 
ENDBRANCH  12  17
BRANCH  12  21
ATOM     21  C   UNL     1       1.228  -3.339  -0.336  0.00  0.00    +0.008 C 
ATOM     22  C   UNL     1       2.291  -4.100  -1.132  0.00  0.00    +0.009 C 
ATOM     23  C   UNL     1       0.724  -2.154  -1.161  0.00  0.00    +0.009 C 
ENDBRANCH  12  21
ENDBRANCH   8  12
ENDBRANCH   1   9
BRANCH   4  24
ATOM     24  C   UNL     1      -4.822  -7.793  -5.236  0.00  0.00    +0.022 C 
BRANCH  24  25
ATOM     25  C   UNL     1      -5.579  -9.051  -4.894  0.00  0.00    +0.211 A 
ATOM     26  N   UNL     1      -6.809  -9.106  -4.469  0.00  0.00    -0.192 NA
ATOM     27  C   UNL     1      -7.167 -10.388  -4.262  0.00  0.00    +0.209 A 
ATOM     28  N   UNL     1      -6.149 -11.161  -4.560  0.00  0.00    -0.056 NA
ATOM     29  O   UNL     1      -5.102 -10.299  -4.982  0.00  0.00    -0.340 OA
BRANCH  27  30
ATOM     30  C   UNL     1      -8.486 -10.847  -3.780  0.00  0.00    +0.060 A 
ATOM     31  C   UNL     1      -8.921 -12.124  -3.541  0.00  0.00    +0.019 A 
ATOM     32  C   UNL     1     -10.207 -12.311  -3.088  0.00  0.00    +0.008 A 
ATOM     33  C   UNL     1     -11.005 -11.229  -2.892  0.00  0.00    +0.046 A 
ATOM     34  S   UNL     1      -9.925  -9.882  -3.349  0.00  0.00    -0.093 S 
ENDBRANCH  27  30
ENDBRANCH  24  25
ENDBRANCH   4  24
TORSDOF 7
