REMARK  Name = ZINC01093849
REMARK  8 active torsions:
REMARK  status: ('A' for Active; 'I' for Inactive)
REMARK    1  A    between atoms: C_1  and  C_2
REMARK    2  A    between atoms: C_3  and  N_15
REMARK    3  A    between atoms: N_6  and  C_9
REMARK    4  A    between atoms: N_7  and  C_8
REMARK    5  A    between atoms: C_16  and  C_18
REMARK    6  A    between atoms: C_18  and  S_19
REMARK    7  A    between atoms: S_19  and  C_20
REMARK    8  A    between atoms: N_33  and  C_34
REMARK                            x       y       z     vdW  Elec       q    Type
REMARK                         _______ _______ _______ _____ _____    ______ ____
ROOT
ATOM      1  S   UNL     1       3.647   5.762  -0.301  0.00  0.00    -0.078 S 
ENDROOT
BRANCH   1   2
ATOM      2  C   UNL     1       2.926   4.180  -0.586  0.00  0.00    +0.178 A 
ATOM      3  N   UNL     1       1.665   3.981  -0.227  0.00  0.00    -0.215 NA
ATOM      4  C   UNL     1       1.150   2.779  -0.455  0.00  0.00    +0.117 A 
ATOM      5  C   UNL     1       1.863   1.714  -1.051  0.00  0.00    +0.076 A 
ATOM      6  C   UNL     1       1.130   0.470  -1.220  0.00  0.00    -0.023 A 
ATOM      7  C   UNL     1      -0.153   0.458  -0.792  0.00  0.00    -0.004 A 
ATOM      8  S   UNL     1      -0.444   2.087  -0.149  0.00  0.00    -0.073 S 
ATOM      9  C   UNL     1      -1.119  -0.685  -0.850  0.00  0.00    +0.043 C 
ATOM     10  C   UNL     1      -0.559  -1.746  -1.808  0.00  0.00    +0.005 C 
ATOM     11  C   UNL     1       0.911  -1.995  -1.459  0.00  0.00    +0.005 C 
ATOM     12  C   UNL     1       1.750  -0.777  -1.845  0.00  0.00    +0.037 C 
ATOM     13  C   UNL     1       3.222   1.964  -1.426  0.00  0.00    +0.268 A 
ATOM     14  O   UNL     1       3.918   1.109  -1.946  0.00  0.00    -0.267 OA
ATOM     15  N   UNL     1       3.688   3.209  -1.168  0.00  0.00    -0.255 N 
BRANCH  15  16
ATOM     16  C   UNL     1       5.011   3.514  -1.512  0.00  0.00    +0.052 A 
ATOM     17  C   UNL     1       5.274   4.356  -2.585  0.00  0.00    +0.026 A 
ATOM     18  C   UNL     1       6.580   4.659  -2.918  0.00  0.00    +0.002 A 
ATOM     19  C   UNL     1       7.624   4.115  -2.193  0.00  0.00    +0.000 A 
ATOM     20  C   UNL     1       7.365   3.272  -1.129  0.00  0.00    +0.002 A 
ATOM     21  C   UNL     1       6.062   2.970  -0.786  0.00  0.00    +0.026 A 
ENDBRANCH  15  16
ENDBRANCH   1   2
BRANCH   1  22
ATOM     22  C   UNL     1       2.243   6.615   0.458  0.00  0.00    +0.173 C 
BRANCH  22  24
ATOM     23  N   UNL     1       1.746   8.858   1.375  0.00  0.00    -0.279 N 
ATOM     24  C   UNL     1       2.638   8.029   0.797  0.00  0.00    +0.228 C 
ATOM     25  O   UNL     1       3.759   8.422   0.550  0.00  0.00    -0.275 OA
ATOM     26  H   UNL     1       0.756   8.480   1.672  0.00  0.00    +0.155 HD
BRANCH  23  29
ATOM     27  C   UNL     1       1.505  10.294   4.076  0.00  0.00    +0.067 C 
ATOM     28  C   UNL     1       1.988  10.874   2.772  0.00  0.00    +0.059 A 
ATOM     29  C   UNL     1       2.080  10.208   1.599  0.00  0.00    +0.121 A 
ATOM     30  C   UNL     1       2.587  11.153   0.603  0.00  0.00    +0.293 A 
ATOM     31  O   UNL     1       2.800  10.922  -0.574  0.00  0.00    -0.264 OA
ATOM     32  N   UNL     1       2.774  12.329   1.237  0.00  0.00    -0.216 N 
ATOM     33  N   UNL     1       2.408  12.163   2.578  0.00  0.00    -0.282 N 
ATOM     34  C   UNL     1       2.461  13.203   3.608  0.00  0.00    +0.171 C 
BRANCH  32  35
ATOM     35  C   UNL     1       3.249  13.509   0.656  0.00  0.00    +0.067 A 
ATOM     36  C   UNL     1       2.623  14.719   0.926  0.00  0.00    +0.028 A 
ATOM     37  C   UNL     1       3.098  15.883   0.354  0.00  0.00    +0.002 A 
ATOM     38  C   UNL     1       4.189  15.844  -0.495  0.00  0.00    +0.000 A 
ATOM     39  C   UNL     1       4.811  14.640  -0.770  0.00  0.00    +0.002 A 
ATOM     40  C   UNL     1       4.344  13.473  -0.197  0.00  0.00    +0.028 A 
ENDBRANCH  32  35
ENDBRANCH  23  29
ENDBRANCH  22  24
ENDBRANCH   1  22
TORSDOF 6
