REMARK  Name = ZINC20714937
REMARK  9 active torsions:
REMARK  status: ('A' for Active; 'I' for Inactive)
REMARK    1  A    between atoms: C_1  and  O_2
REMARK    2  A    between atoms: O_2  and  C_3
REMARK    3  A    between atoms: C_3  and  C_5
REMARK    4  A    between atoms: C_5  and  C_7
REMARK    5  A    between atoms: C_5  and  N_14
REMARK    6  A    between atoms: C_7  and  C_8
REMARK    7  A    between atoms: C_26  and  C_28
REMARK    8  A    between atoms: C_33  and  O_34
REMARK    9  A    between atoms: O_34  and  C_35
REMARK                            x       y       z     vdW  Elec       q    Type
REMARK                         _______ _______ _______ _____ _____    ______ ____
ROOT
ATOM      1  N   UNL     1      -2.684  -2.426   2.780  0.00  0.00    -0.286 N 
ATOM      2  C   UNL     1      -3.158  -2.566   1.526  0.00  0.00    +0.304 C 
ATOM      3  O   UNL     1      -2.461  -2.268   0.576  0.00  0.00    -0.253 OA
ATOM      4  N   UNL     1      -4.405  -3.037   1.326  0.00  0.00    -0.273 N 
ATOM      5  C   UNL     1      -4.900  -3.303  -0.033  0.00  0.00    +0.116 C 
ATOM      6  C   UNL     1      -5.170  -4.806  -0.183  0.00  0.00    +0.074 C 
ATOM      7  C   UNL     1      -5.907  -5.291   1.038  0.00  0.00    +0.040 A 
ATOM      8  C   UNL     1      -5.969  -4.631   2.214  0.00  0.00    +0.062 A 
ATOM      9  N   UNL     1      -6.700  -5.359   3.061  0.00  0.00    -0.348 N 
ATOM     10  C   UNL     1      -7.100  -6.447   2.454  0.00  0.00    +0.171 A 
ATOM     11  N   UNL     1      -6.625  -6.439   1.188  0.00  0.00    -0.349 N 
ATOM     12  H   UNL     1      -6.768  -7.122   0.514  0.00  0.00    +0.166 HD
ATOM     13  C   UNL     1      -5.304  -3.303   2.463  0.00  0.00    +0.160 C 
ATOM     14  H   UNL     1      -3.265  -2.593   3.539  0.00  0.00    +0.151 HD
ATOM     15  H   UNL     1      -6.903  -5.120   3.978  0.00  0.00    +0.167 HD
ENDROOT
BRANCH  13  16
ATOM     16  C   UNL     1      -6.348  -2.221   2.556  0.00  0.00    +0.021 A 
ATOM     17  C   UNL     1      -6.555  -1.367   1.490  0.00  0.00    +0.009 A 
ATOM     18  C   UNL     1      -7.513  -0.373   1.574  0.00  0.00    +0.001 A 
ATOM     19  C   UNL     1      -8.267  -0.232   2.725  0.00  0.00    +0.004 A 
ATOM     20  C   UNL     1      -8.064  -1.084   3.793  0.00  0.00    +0.046 A 
ATOM     21  C   UNL     1      -7.107  -2.085   3.709  0.00  0.00    +0.135 A 
BRANCH  21  22
ATOM     22  O   UNL     1      -6.910  -2.928   4.757  0.00  0.00    -0.405 OA
BRANCH  22  23
ATOM     23  C   UNL     1      -7.727  -2.729   5.912  0.00  0.00    +0.575 C 
ATOM     24  F   UNL     1      -9.073  -2.875   5.561  0.00  0.00    -0.133 F 
ATOM     25  F   UNL     1      -7.394  -3.676   6.887  0.00  0.00    -0.133 F 
ATOM     26  F   UNL     1      -7.513  -1.443   6.419  0.00  0.00    -0.133 F 
ENDBRANCH  22  23
ENDBRANCH  21  22
ENDBRANCH  13  16
BRANCH   1  27
ATOM     27  C   UNL     1      -1.293  -2.021   2.997  0.00  0.00    +0.187 C 
BRANCH  27  28
ATOM     28  C   UNL     1      -0.404  -3.237   2.951  0.00  0.00    +0.328 C 
ATOM     29  O   UNL     1      -0.882  -4.329   2.758  0.00  0.00    -0.249 OA
BRANCH  28  31
ATOM     30  C   UNL     1       1.704  -4.300   3.070  0.00  0.00    +0.280 C 
ATOM     31  O   UNL     1       0.921  -3.106   3.126  0.00  0.00    -0.467 OA
ENDBRANCH  28  31
ENDBRANCH  27  28
BRANCH  27  32
ATOM     32  C   UNL     1      -1.165  -1.347   4.364  0.00  0.00    +0.069 C 
BRANCH  32  33
ATOM     33  C   UNL     1      -1.959  -0.065   4.368  0.00  0.00    -0.045 A 
ATOM     34  C   UNL     1      -1.361   1.119   3.980  0.00  0.00    +0.004 A 
ATOM     35  C   UNL     1      -2.089   2.294   3.984  0.00  0.00    +0.000 A 
ATOM     36  C   UNL     1      -3.414   2.285   4.376  0.00  0.00    +0.000 A 
ATOM     37  C   UNL     1      -4.012   1.101   4.763  0.00  0.00    +0.000 A 
ATOM     38  C   UNL     1      -3.286  -0.075   4.755  0.00  0.00    +0.004 A 
ENDBRANCH  32  33
ENDBRANCH  27  32
ENDBRANCH   1  27
TORSDOF 8
