REMARK  Name = ZINC64591571
REMARK  8 active torsions:
REMARK  status: ('A' for Active; 'I' for Inactive)
REMARK    1  A    between atoms: C_6  and  N_7
REMARK    2  A    between atoms: C_11  and  C_17
REMARK    3  A    between atoms: C_17  and  C_18
REMARK    4  A    between atoms: C_18  and  C_19
REMARK    5  A    between atoms: C_19  and  C_20
REMARK    6  A    between atoms: N_22  and  C_23
REMARK    7  A    between atoms: C_23  and  C_24
REMARK    8  A    between atoms: C_24  and  C_25
REMARK                            x       y       z     vdW  Elec       q    Type
REMARK                         _______ _______ _______ _____ _____    ______ ____
ROOT
ATOM      1  N   UNL     1      -1.200  -0.721   0.010  0.00  0.00    -0.280 N 
ATOM      2  C   UNL     1      -2.402  -0.048   0.124  0.00  0.00    +0.113 A 
ATOM      3  C   UNL     1      -3.565  -0.689   0.136  0.00  0.00    +0.112 A 
ATOM      4  N   UNL     1      -3.622  -2.067   0.034  0.00  0.00    -0.281 N 
ATOM      5  C   UNL     1      -4.622  -2.967   0.018  0.00  0.00    +0.138 A 
ATOM      6  N   UNL     1      -4.082  -4.157  -0.102  0.00  0.00    -0.134 NA
ATOM      7  N   UNL     1      -2.799  -4.056  -0.161  0.00  0.00    -0.124 NA
ATOM      8  C   UNL     1      -2.460  -2.789  -0.083  0.00  0.00    +0.227 A 
ATOM      9  C   UNL     1      -1.181  -2.068  -0.100  0.00  0.00    +0.301 A 
ATOM     10  O   UNL     1      -0.128  -2.670  -0.206  0.00  0.00    -0.263 OA
ENDROOT
BRANCH   1  16
ATOM     11  C   UNL     1       0.534   0.447  -1.199  0.00  0.00    +0.029 A 
ATOM     12  C   UNL     1       1.721   1.155  -1.206  0.00  0.00    +0.043 A 
ATOM     13  C   UNL     1       2.380   1.415  -0.017  0.00  0.00    +0.159 A 
ATOM     14  C   UNL     1       1.851   0.966   1.184  0.00  0.00    +0.160 A 
ATOM     15  C   UNL     1       0.664   0.257   1.195  0.00  0.00    +0.067 A 
ATOM     16  C   UNL     1       0.002  -0.004   0.002  0.00  0.00    +0.052 A 
ATOM     17  F   UNL     1       2.496   1.220   2.344  0.00  0.00    -0.202 F 
ATOM     18  F   UNL     1       3.540   2.107  -0.026  0.00  0.00    -0.202 F 
ENDBRANCH   1  16
BRANCH   5  19
ATOM     19  C   UNL     1      -6.094  -2.663   0.119  0.00  0.00    +0.077 C 
BRANCH  19  20
ATOM     20  C   UNL     1      -6.669  -2.450  -1.284  0.00  0.00    +0.017 C 
BRANCH  20  21
ATOM     21  C   UNL     1      -8.164  -2.142  -1.181  0.00  0.00    +0.096 C 
BRANCH  21  22
ATOM     22  C   UNL     1      -8.730  -1.933  -2.562  0.00  0.00    +0.213 C 
ATOM     23  O   UNL     1      -8.008  -2.021  -3.533  0.00  0.00    -0.276 OA
ATOM     24  N   UNL     1     -10.037  -1.647  -2.718  0.00  0.00    -0.315 N 
ATOM     25  H   UNL     1     -10.615  -1.577  -1.942  0.00  0.00    +0.149 HD
BRANCH  24  26
ATOM     26  C   UNL     1     -10.587  -1.444  -4.061  0.00  0.00    +0.108 C 
BRANCH  26  27
ATOM     27  C   UNL     1     -12.082  -1.136  -3.958  0.00  0.00    +0.049 C 
BRANCH  27  28
ATOM     28  C   UNL     1     -12.648  -0.926  -5.339  0.00  0.00    -0.072 C 
ATOM     29  C   UNL     1     -13.205  -1.936  -5.926  0.00  0.00    -0.028 C 
ATOM     30  C   UNL     1     -13.802  -1.885  -7.303  0.00  0.00    +0.027 C 
ATOM     31  C   UNL     1     -14.042  -0.432  -7.719  0.00  0.00    +0.004 C 
ATOM     32  C   UNL     1     -12.757   0.366  -7.459  0.00  0.00    +0.005 C 
ATOM     33  C   UNL     1     -12.536   0.442  -5.945  0.00  0.00    +0.030 C 
ENDBRANCH  27  28
ENDBRANCH  26  27
ENDBRANCH  24  26
ENDBRANCH  21  22
ENDBRANCH  20  21
ENDBRANCH  19  20
ENDBRANCH   5  19
TORSDOF 8
