REMARK  Name = ZINC57311872
REMARK  15 active torsions:
REMARK  status: ('A' for Active; 'I' for Inactive)
REMARK    1  A    between atoms: C_1  and  C_2
REMARK    2  A    between atoms: C_2  and  N_3
REMARK    3  A    between atoms: N_3  and  C_4
REMARK    4  A    between atoms: N_3  and  C_6
REMARK    5  A    between atoms: C_4  and  C_5
REMARK    6  A    between atoms: C_6  and  C_7
REMARK    7  A    between atoms: C_7  and  C_8
REMARK    8  A    between atoms: C_8  and  C_9
REMARK    9  A    between atoms: C_9  and  C_11
REMARK   10  A    between atoms: C_9  and  N_12
REMARK   11  A    between atoms: C_13  and  C_15
REMARK   12  A    between atoms: C_17  and  C_33
REMARK   13  A    between atoms: C_21  and  C_32
REMARK   14  A    between atoms: N_23  and  C_24
REMARK   15  A    between atoms: C_36  and  C_39
REMARK                            x       y       z     vdW  Elec       q    Type
REMARK                         _______ _______ _______ _____ _____    ______ ____
ROOT
ATOM      1  C   UNL     1       3.534  -3.123   4.297  0.00  0.00    +0.051 A 
ATOM      2  C   UNL     1       4.178  -3.190   3.067  0.00  0.00    +0.042 A 
ATOM      3  C   UNL     1       5.464  -2.657   2.938  0.00  0.00    +0.074 A 
ATOM      4  N   UNL     1       6.081  -2.091   3.961  0.00  0.00    -0.228 NA
ATOM      5  C   UNL     1       5.516  -1.999   5.155  0.00  0.00    +0.160 A 
ATOM      6  C   UNL     1       4.217  -2.505   5.370  0.00  0.00    +0.054 A 
ATOM      7  C   UNL     1       3.892  -2.255   6.719  0.00  0.00    +0.070 A 
ATOM      8  N   UNL     1       4.895  -1.645   7.283  0.00  0.00    -0.174 NA
ATOM      9  N   UNL     1       5.927  -1.473   6.353  0.00  0.00    -0.241 N 
ATOM     10  C   UNL     1       2.599  -2.631   7.396  0.00  0.00    +0.068 C 
ENDROOT
BRANCH   9  11
ATOM     11  C   UNL     1       7.217  -0.828   6.611  0.00  0.00    +0.132 C 
ATOM     12  C   UNL     1       7.957  -1.576   7.732  0.00  0.00    +0.051 C 
ATOM     13  C   UNL     1       9.155  -0.731   8.229  0.00  0.00    +0.168 C 
ATOM     14  S   UNL     1       8.603   0.990   7.890  0.00  0.00    -0.029 S 
ATOM     15  O   UNL     1       9.481   1.578   6.940  0.00  0.00    -0.174 OA
ATOM     16  O   UNL     1       8.365   1.651   9.125  0.00  0.00    -0.174 OA
ATOM     17  C   UNL     1       6.988   0.638   7.077  0.00  0.00    +0.192 C 
ENDBRANCH   9  11
BRANCH   3  18
ATOM     18  C   UNL     1       6.151  -2.729   1.626  0.00  0.00    +0.000 A 
ATOM     19  C   UNL     1       5.515  -3.318   0.534  0.00  0.00    +0.010 A 
ATOM     20  C   UNL     1       6.159  -3.382  -0.685  0.00  0.00    +0.004 A 
ATOM     21  C   UNL     1       7.434  -2.864  -0.824  0.00  0.00    -0.050 A 
ATOM     22  C   UNL     1       8.071  -2.279   0.256  0.00  0.00    +0.004 A 
ATOM     23  C   UNL     1       7.433  -2.203   1.478  0.00  0.00    +0.010 A 
ATOM     24  C   UNL     1       8.133  -2.937  -2.157  0.00  0.00    +0.044 C 
ENDBRANCH   3  18
BRANCH   1  26
ATOM     25  N   UNL     1       1.256  -3.538   3.498  0.00  0.00    -0.309 N 
ATOM     26  C   UNL     1       2.173  -3.674   4.476  0.00  0.00    +0.245 C 
ATOM     27  O   UNL     1       1.882  -4.250   5.506  0.00  0.00    -0.270 OA
ATOM     28  H   UNL     1       1.489  -3.078   2.676  0.00  0.00    +0.149 HD
BRANCH  25  29
ATOM     29  C   UNL     1      -0.091  -4.084   3.676  0.00  0.00    +0.070 C 
ATOM     30  C   UNL     1      -0.100  -5.561   3.277  0.00  0.00    +0.028 C 
BRANCH  29  31
ATOM     31  C   UNL     1      -1.075  -3.312   2.794  0.00  0.00    +0.020 C 
BRANCH  31  32
ATOM     32  C   UNL     1      -1.159  -1.861   3.274  0.00  0.00    -0.017 C 
BRANCH  32  33
ATOM     33  C   UNL     1      -2.143  -1.089   2.393  0.00  0.00    -0.079 C 
BRANCH  33  34
ATOM     34  N   UNL     1      -2.224   0.303   2.853  0.00  0.00    +0.379 N 
ATOM     35  H   UNL     1      -2.464   0.320   3.833  0.00  0.00    -0.082 HD
BRANCH  34  37
ATOM     36  C   UNL     1      -0.970   2.368   3.256  0.00  0.00    -0.017 C 
ATOM     37  C   UNL     1      -0.926   0.961   2.655  0.00  0.00    -0.082 C 
ENDBRANCH  34  37
BRANCH  34  38
ATOM     38  C   UNL     1      -3.255   1.014   2.085  0.00  0.00    -0.082 C 
ATOM     39  C   UNL     1      -4.628   0.416   2.399  0.00  0.00    -0.017 C 
ENDBRANCH  34  38
ENDBRANCH  33  34
ENDBRANCH  32  33
ENDBRANCH  31  32
ENDBRANCH  29  31
ENDBRANCH  25  29
ENDBRANCH   1  26
TORSDOF 10
