REMARK  Name = ZINC14998400
REMARK  13 active torsions:
REMARK  status: ('A' for Active; 'I' for Inactive)
REMARK    1  A    between atoms: C_1  and  C_2
REMARK    2  A    between atoms: C_7  and  C_10
REMARK    3  A    between atoms: C_11  and  C_13
REMARK    4  A    between atoms: C_15  and  C_23
REMARK    5  A    between atoms: C_17  and  N_19
REMARK    6  A    between atoms: C_20  and  C_22
REMARK    7  A    between atoms: C_23  and  N_73
REMARK    8  A    between atoms: C_24  and  C_25
REMARK    9  A    between atoms: C_24  and  N_73
REMARK   10  A    between atoms: C_25  and  C_26
REMARK   11  A    between atoms: C_27  and  C_34
REMARK   12  A    between atoms: C_31  and  C_32
REMARK   13  A    between atoms: C_31  and  C_33
REMARK                            x       y       z     vdW  Elec       q    Type
REMARK                         _______ _______ _______ _____ _____    ______ ____
ROOT
ATOM      1  C   UNL     1      -0.277   6.277  -8.825  0.00  0.00    +0.039 A 
ATOM      2  C   UNL     1      -0.100   5.451  -7.713  0.00  0.00    +0.015 A 
ATOM      3  C   UNL     1       0.102   6.007  -6.467  0.00  0.00    -0.062 A 
ATOM      4  C   UNL     1       0.141   7.381  -6.315  0.00  0.00    +0.025 A 
ATOM      5  C   UNL     1      -0.029   8.211  -7.416  0.00  0.00    +0.034 A 
ATOM      6  C   UNL     1      -0.238   7.662  -8.672  0.00  0.00    +0.036 A 
ENDROOT
BRANCH   1  15
ATOM      7  C   UNL     1      -4.210   8.705 -10.930  0.00  0.00    +0.039 C 
ATOM      8  C   UNL     1      -3.469   7.379 -11.116  0.00  0.00    +0.133 C 
ATOM      9  C   UNL     1      -2.008   7.544 -10.698  0.00  0.00    +0.139 C 
ATOM     10  N   UNL     1      -1.274   6.322 -11.061  0.00  0.00    -0.293 N 
ATOM     11  C   UNL     1      -1.417   5.812 -12.434  0.00  0.00    +0.139 C 
ATOM     12  C   UNL     1      -2.911   5.728 -12.767  0.00  0.00    +0.133 C 
ATOM     13  O   UNL     1      -3.526   6.989 -12.490  0.00  0.00    -0.371 OA
ATOM     14  C   UNL     1      -3.086   5.386 -14.248  0.00  0.00    +0.039 C 
ATOM     15  C   UNL     1      -0.499   5.684 -10.162  0.00  0.00    +0.247 C 
ATOM     16  O   UNL     1       0.017   4.622 -10.448  0.00  0.00    -0.270 OA
ENDBRANCH   1  15
BRANCH   5  17
ATOM     17  N   UNL     1       0.011   9.601  -7.258  0.00  0.00    -0.286 N 
ATOM     18  C   UNL     1       0.720  10.144  -6.248  0.00  0.00    +0.214 C 
ATOM     19  O   UNL     1       1.399   9.436  -5.535  0.00  0.00    -0.276 OA
ATOM     20  C   UNL     1       0.669  11.630  -6.006  0.00  0.00    +0.109 C 
ATOM     21  H   UNL     1      -0.472  10.174  -7.874  0.00  0.00    +0.155 HD
ENDBRANCH   5  17
BRANCH   3  22
ATOM     22  C   UNL     1       0.288   5.114  -5.268  0.00  0.00    -0.047 C 
BRANCH  22  23
ATOM     23  N   UNL     1      -1.028   4.841  -4.659  0.00  0.00    +0.382 N 
ATOM     24  H   UNL     1      -1.630   4.378  -5.350  0.00  0.00    -0.085 HD
ATOM     25  H   UNL     1      -1.458   5.728  -4.371  0.00  0.00    -0.085 HD
BRANCH  23  26
ATOM     26  C   UNL     1      -0.876   3.967  -3.481  0.00  0.00    -0.078 C 
BRANCH  26  27
ATOM     27  C   UNL     1      -2.255   3.702  -2.872  0.00  0.00    +0.012 C 
BRANCH  27  28
ATOM     28  C   UNL     1      -2.109   2.810  -1.667  0.00  0.00    -0.067 C 
ATOM     29  C   UNL     1      -2.032   3.370  -0.503  0.00  0.00    -0.073 C 
ATOM     30  C   UNL     1      -1.875   2.615   0.785  0.00  0.00    +0.030 C 
ATOM     31  C   UNL     1      -2.238   1.143   0.584  0.00  0.00    +0.005 C 
ATOM     32  C   UNL     1      -1.497   0.624  -0.655  0.00  0.00    +0.011 C 
ATOM     33  C   UNL     1      -2.062   1.327  -1.891  0.00  0.00    -0.014 C 
ATOM     34  C   UNL     1      -1.172   1.024  -3.098  0.00  0.00    +0.015 C 
ATOM     35  C   UNL     1      -3.476   0.811  -2.166  0.00  0.00    +0.015 C 
ATOM     36  C   UNL     1      -2.104   4.874  -0.436  0.00  0.00    +0.039 C 
ENDBRANCH  27  28
ENDBRANCH  26  27
ENDBRANCH  23  26
ENDBRANCH  22  23
ENDBRANCH   3  22
TORSDOF 7
