REMARK  Name = ZINC35836160
REMARK  3 active torsions:
REMARK  status: ('A' for Active; 'I' for Inactive)
REMARK    1  A    between atoms: C_1  and  N_2
REMARK    2  A    between atoms: N_2  and  C_19
REMARK    3  A    between atoms: C_7  and  N_9
REMARK                            x       y       z     vdW  Elec       q    Type
REMARK                         _______ _______ _______ _____ _____    ______ ____
ROOT
ATOM      1  C   UNL     1       0.140   1.460   0.011  0.00  0.00    +0.132 C 
ATOM      2  N   UNL     1       0.105  -0.004   0.002  0.00  0.00    -0.300 N 
ATOM      3  C   UNL     1       0.073  -0.702   1.197  0.00  0.00    +0.220 A 
ATOM      4  N   UNL     1       0.047  -2.026   1.171  0.00  0.00    -0.219 NA
ATOM      5  C   UNL     1       0.017  -2.731   2.295  0.00  0.00    +0.048 A 
ATOM      6  C   UNL     1       0.015  -2.072   3.502  0.00  0.00    -0.003 A 
ATOM      7  C   UNL     1       0.041  -0.674   3.501  0.00  0.00    +0.128 A 
ATOM      8  N   UNL     1       0.074  -0.030   2.338  0.00  0.00    -0.199 NA
ATOM      9  C   UNL     1      -0.010  -2.808   4.813  0.00  0.00    -0.041 C 
ATOM     10  N   UNL     1      -0.464  -4.189   4.618  0.00  0.00    +0.382 N 
ATOM     11  C   UNL     1       0.363  -4.825   3.582  0.00  0.00    -0.076 C 
ATOM     12  C   UNL     1      -0.015  -4.235   2.222  0.00  0.00    +0.037 C 
ATOM     13  H   UNL     1      -0.373  -4.699   5.484  0.00  0.00    -0.085 HD
ATOM     14  H   UNL     1      -1.430  -4.188   4.326  0.00  0.00    -0.085 HD
ENDROOT
BRANCH   7  15
ATOM     15  N   UNL     1       0.036   0.031   4.693  0.00  0.00    -0.315 N 
ATOM     16  C   UNL     1       1.295   0.346   5.382  0.00  0.00    +0.106 C 
ATOM     17  C   UNL     1       1.350   1.854   5.643  0.00  0.00    +0.019 C 
ATOM     18  C   UNL     1       0.093   2.282   6.404  0.00  0.00    +0.003 C 
ATOM     19  C   UNL     1      -1.145   1.984   5.556  0.00  0.00    +0.019 C 
ATOM     20  C   UNL     1      -1.228   0.482   5.291  0.00  0.00    +0.106 C 
ENDBRANCH   7  15
BRANCH   2  21
ATOM     21  C   UNL     1       0.103  -0.729  -1.270  0.00  0.00    +0.076 C 
ATOM     22  C   UNL     1      -1.126  -0.326  -2.086  0.00  0.00    +0.022 C 
ATOM     23  C   UNL     1      -1.127  -1.083  -3.416  0.00  0.00    +0.002 C 
ATOM     24  C   UNL     1       0.140  -0.739  -4.200  0.00  0.00    +0.000 C 
ATOM     25  C   UNL     1       1.370  -1.143  -3.384  0.00  0.00    +0.002 C 
ATOM     26  C   UNL     1       1.371  -0.385  -2.055  0.00  0.00    +0.022 C 
ENDBRANCH   2  21
TORSDOF 2
