REMARK  Name = ZINC36302813
REMARK  18 active torsions:
REMARK  status: ('A' for Active; 'I' for Inactive)
REMARK    1  A    between atoms: C_1  and  C_2
REMARK    2  A    between atoms: C_2  and  C_3
REMARK    3  A    between atoms: C_3  and  N_4
REMARK    4  A    between atoms: N_4  and  C_5
REMARK    5  A    between atoms: N_4  and  C_28
REMARK    6  A    between atoms: C_5  and  C_6
REMARK    7  A    between atoms: C_7  and  C_26
REMARK    8  A    between atoms: N_9  and  C_20
REMARK    9  A    between atoms: C_10  and  O_11
REMARK   10  A    between atoms: O_11  and  C_12
REMARK   11  A    between atoms: C_17  and  O_18
REMARK   12  A    between atoms: O_18  and  C_19
REMARK   13  A    between atoms: C_26  and  C_27
REMARK   14  A    between atoms: C_28  and  C_29
REMARK   15  A    between atoms: C_29  and  C_31
REMARK   16  A    between atoms: C_29  and  O_34
REMARK   17  A    between atoms: C_31  and  C_32
REMARK   18  A    between atoms: C_31  and  C_33
REMARK                            x       y       z     vdW  Elec       q    Type
REMARK                         _______ _______ _______ _____ _____    ______ ____
ROOT
ATOM      1  C   UNL     1       0.314  -1.411   0.852  0.00  0.00    +0.021 A 
ATOM      2  C   UNL     1       1.192  -1.709  -0.194  0.00  0.00    +0.068 A 
ATOM      3  N   UNL     1       1.897  -0.639  -0.462  0.00  0.00    -0.168 NA
ATOM      4  N   UNL     1       1.493   0.384   0.406  0.00  0.00    -0.200 N 
ATOM      5  C   UNL     1       0.510  -0.112   1.204  0.00  0.00    +0.225 A 
ENDROOT
BRANCH   4   6
ATOM      6  C   UNL     1       2.006   1.688   0.440  0.00  0.00    +0.069 A 
ATOM      7  C   UNL     1       1.150   2.767   0.617  0.00  0.00    +0.028 A 
ATOM      8  C   UNL     1       1.659   4.051   0.651  0.00  0.00    +0.002 A 
ATOM      9  C   UNL     1       3.018   4.262   0.507  0.00  0.00    +0.000 A 
ATOM     10  C   UNL     1       3.872   3.189   0.330  0.00  0.00    +0.002 A 
ATOM     11  C   UNL     1       3.370   1.903   0.302  0.00  0.00    +0.028 A 
ENDBRANCH   4   6
BRANCH   2  12
ATOM     12  C   UNL     1       1.309  -3.038  -0.895  0.00  0.00    +0.054 C 
ATOM     13  C   UNL     1       0.629  -2.954  -2.264  0.00  0.00    +0.010 C 
ENDBRANCH   2  12
BRANCH   1  14
ATOM     14  C   UNL     1      -0.679  -2.358   1.473  0.00  0.00    -0.036 C 
BRANCH  14  15
ATOM     15  N   UNL     1      -2.043  -1.939   1.122  0.00  0.00    +0.384 N 
ATOM     16  H   UNL     1      -2.187  -0.984   1.415  0.00  0.00    -0.081 HD
BRANCH  15  17
ATOM     17  C   UNL     1      -3.013  -2.811   1.798  0.00  0.00    -0.079 C 
BRANCH  17  19
ATOM     18  C   UNL     1      -4.015  -3.413   4.006  0.00  0.00    +0.002 C 
ATOM     19  C   UNL     1      -2.920  -2.602   3.310  0.00  0.00    -0.022 C 
ENDBRANCH  17  19
ENDBRANCH  15  17
BRANCH  15  20
ATOM     20  C   UNL     1      -2.226  -2.037  -0.332  0.00  0.00    -0.046 C 
BRANCH  20  21
ATOM     21  C   UNL     1      -3.594  -1.468  -0.714  0.00  0.00    +0.101 C 
BRANCH  21  22
ATOM     22  C   UNL     1      -3.789  -1.580  -2.227  0.00  0.00    +0.010 C 
ATOM     23  C   UNL     1      -5.172  -1.046  -2.604  0.00  0.00    +0.010 C 
ATOM     24  C   UNL     1      -2.713  -0.759  -2.942  0.00  0.00    +0.010 C 
ENDBRANCH  21  22
BRANCH  21  25
ATOM     25  O   UNL     1      -3.664  -0.095  -0.324  0.00  0.00    -0.393 OA
ATOM     26  H   UNL     1      -2.996   0.467  -0.740  0.00  0.00    +0.210 HD
ENDBRANCH  21  25
ENDBRANCH  20  21
ENDBRANCH  15  20
ENDBRANCH  14  15
ENDBRANCH   1  14
BRANCH   5  27
ATOM     27  O   UNL     1      -0.151   0.564   2.178  0.00  0.00    -0.434 OA
BRANCH  27  28
ATOM     28  C   UNL     1       0.408   0.609   3.416  0.00  0.00    +0.172 A 
ATOM     29  C   UNL     1       1.667   0.071   3.630  0.00  0.00    +0.050 A 
ATOM     30  C   UNL     1       2.235   0.118   4.889  0.00  0.00    +0.004 A 
ATOM     31  C   UNL     1       1.549   0.702   5.938  0.00  0.00    +0.004 A 
ATOM     32  C   UNL     1       0.292   1.241   5.732  0.00  0.00    +0.049 A 
ATOM     33  C   UNL     1      -0.280   1.202   4.471  0.00  0.00    +0.162 A 
BRANCH  33  34
ATOM     34  O   UNL     1      -1.513   1.736   4.265  0.00  0.00    -0.491 OA
ATOM     35  C   UNL     1      -2.160   2.328   5.394  0.00  0.00    +0.277 C 
ENDBRANCH  33  34
ENDBRANCH  27  28
ENDBRANCH   5  27
TORSDOF 13
