REMARK  Name = ZINC35306822
REMARK  16 active torsions:
REMARK  status: ('A' for Active; 'I' for Inactive)
REMARK    1  A    between atoms: C_1  and  C_2
REMARK    2  A    between atoms: C_2  and  C_3
REMARK    3  A    between atoms: C_3  and  C_5
REMARK    4  A    between atoms: C_3  and  N_6
REMARK    5  A    between atoms: N_6  and  C_7
REMARK    6  A    between atoms: C_7  and  C_8
REMARK    7  A    between atoms: N_10  and  C_11
REMARK    8  A    between atoms: N_10  and  C_19
REMARK    9  A    between atoms: C_11  and  C_12
REMARK   10  A    between atoms: C_19  and  C_20
REMARK   11  A    between atoms: C_21  and  C_25
REMARK   12  A    between atoms: N_28  and  C_29
REMARK   13  A    between atoms: C_32  and  O_37
REMARK   14  A    between atoms: C_34  and  O_35
REMARK   15  A    between atoms: O_35  and  C_36
REMARK   16  A    between atoms: O_37  and  C_38
REMARK                            x       y       z     vdW  Elec       q    Type
REMARK                         _______ _______ _______ _____ _____    ______ ____
ROOT
ATOM      1  N   UNL     1      -0.053  -0.509   2.509  0.00  0.00    -0.274 N 
ATOM      2  C   UNL     1      -1.334  -0.859   2.736  0.00  0.00    +0.307 C 
ATOM      3  O   UNL     1      -1.825  -0.689   3.836  0.00  0.00    -0.252 OA
ATOM      4  N   UNL     1      -2.072  -1.397   1.745  0.00  0.00    -0.266 N 
ATOM      5  H   UNL     1      -1.691  -1.502   0.859  0.00  0.00    +0.156 HD
ENDROOT
BRANCH   4   6
ATOM      6  C   UNL     1      -3.392  -1.805   1.995  0.00  0.00    +0.077 A 
ATOM      7  C   UNL     1      -4.129  -1.195   2.999  0.00  0.00    +0.030 A 
ATOM      8  C   UNL     1      -5.428  -1.597   3.245  0.00  0.00    +0.047 A 
ATOM      9  C   UNL     1      -5.998  -2.611   2.489  0.00  0.00    +0.124 A 
ATOM     10  C   UNL     1      -5.264  -3.224   1.484  0.00  0.00    +0.093 A 
ATOM     11  C   UNL     1      -3.964  -2.819   1.231  0.00  0.00    +0.145 A 
BRANCH  11  12
ATOM     12  O   UNL     1      -3.246  -3.415   0.242  0.00  0.00    -0.493 OA
ATOM     13  C   UNL     1      -3.897  -4.447  -0.501  0.00  0.00    +0.277 C 
ENDBRANCH  11  12
BRANCH   9  14
ATOM     14  O   UNL     1      -7.276  -3.005   2.734  0.00  0.00    -0.495 OA
ATOM     15  C   UNL     1      -7.972  -2.330   3.784  0.00  0.00    +0.277 C 
ENDBRANCH   9  14
ENDBRANCH   4   6
BRANCH   1  16
ATOM     16  C   UNL     1       0.506  -0.613   1.159  0.00  0.00    +0.075 C 
ATOM     17  C   UNL     1       0.929   0.775   0.673  0.00  0.00    +0.028 C 
BRANCH  16  19
ATOM     18  C   UNL     1       1.288  -2.947   1.588  0.00  0.00    +0.006 C 
ATOM     19  C   UNL     1       1.724  -1.538   1.181  0.00  0.00    +0.019 C 
ENDBRANCH  16  19
ENDBRANCH   1  16
BRANCH   1  20
ATOM     20  C   UNL     1       0.781  -0.024   3.612  0.00  0.00    +0.205 C 
BRANCH  20  21
ATOM     21  C   UNL     1       0.544   1.450   3.811  0.00  0.00    +0.234 C 
ATOM     22  O   UNL     1      -0.316   2.018   3.170  0.00  0.00    -0.274 OA
ATOM     23  N   UNL     1       1.286   2.139   4.700  0.00  0.00    -0.291 N 
BRANCH  23  24
ATOM     24  C   UNL     1       1.056   3.572   4.894  0.00  0.00    +0.143 C 
BRANCH  24  25
ATOM     25  C   UNL     1       0.110   3.777   6.049  0.00  0.00    -0.030 A 
ATOM     26  C   UNL     1      -1.254   3.818   5.826  0.00  0.00    +0.008 A 
ATOM     27  C   UNL     1      -2.123   4.005   6.884  0.00  0.00    +0.038 A 
ATOM     28  C   UNL     1      -1.626   4.153   8.168  0.00  0.00    +0.123 A 
ATOM     29  C   UNL     1      -0.260   4.112   8.391  0.00  0.00    +0.038 A 
ATOM     30  C   UNL     1       0.606   3.920   7.331  0.00  0.00    +0.008 A 
ATOM     31  F   UNL     1      -2.474   4.337   9.204  0.00  0.00    -0.205 F 
ENDBRANCH  24  25
ENDBRANCH  23  24
BRANCH  23  32
ATOM     32  C   UNL     1       2.324   1.453   5.474  0.00  0.00    +0.150 C 
BRANCH  32  33
ATOM     33  C   UNL     1       3.656   1.624   4.790  0.00  0.00    +0.010 A 
ATOM     34  C   UNL     1       4.639   2.521   5.048  0.00  0.00    -0.039 A 
ATOM     35  C   UNL     1       5.790   2.493   4.284  0.00  0.00    +0.011 A 
ATOM     36  C   UNL     1       5.902   1.569   3.299  0.00  0.00    +0.046 A 
ATOM     37  S   UNL     1       4.353   0.693   3.435  0.00  0.00    -0.100 S 
ATOM     38  C   UNL     1       4.479   3.535   6.152  0.00  0.00    +0.044 C 
ENDBRANCH  32  33
ENDBRANCH  23  32
ENDBRANCH  20  21
ENDBRANCH   1  20
TORSDOF 11
