REMARK  Name = ZINC08611685
REMARK  11 active torsions:
REMARK  status: ('A' for Active; 'I' for Inactive)
REMARK    1  A    between atoms: C_1  and  O_2
REMARK    2  A    between atoms: O_2  and  C_3
REMARK    3  A    between atoms: C_6  and  C_9
REMARK    4  A    between atoms: C_12  and  C_14
REMARK    5  A    between atoms: C_21  and  C_24
REMARK    6  A    between atoms: C_22  and  N_23
REMARK    7  A    between atoms: C_24  and  C_26
REMARK    8  A    between atoms: C_29  and  O_34
REMARK    9  A    between atoms: C_30  and  O_32
REMARK   10  A    between atoms: O_32  and  C_33
REMARK   11  A    between atoms: O_34  and  C_35
REMARK                            x       y       z     vdW  Elec       q    Type
REMARK                         _______ _______ _______ _____ _____    ______ ____
ROOT
ATOM      1  C   UNL     1      -6.437  -6.013   0.246  0.00  0.00    +0.054 A 
ATOM      2  C   UNL     1      -7.710  -6.620   0.249  0.00  0.00    +0.058 A 
ATOM      3  C   UNL     1      -9.001  -6.080   0.152  0.00  0.00    +0.027 A 
ATOM      4  C   UNL     1     -10.079  -6.915   0.181  0.00  0.00    +0.003 A 
ATOM      5  C   UNL     1      -9.879  -8.297   0.307  0.00  0.00    +0.018 A 
ATOM      6  C   UNL     1      -8.627  -8.798   0.400  0.00  0.00    +0.092 A 
ATOM      7  N   UNL     1      -7.541  -7.972   0.371  0.00  0.00    -0.311 N 
ATOM      8  C   UNL     1      -6.184  -8.245   0.448  0.00  0.00    +0.116 A 
ATOM      9  C   UNL     1      -5.487  -7.038   0.366  0.00  0.00    +0.064 A 
ENDROOT
BRANCH   1  13
ATOM     10  C   UNL     1      -4.924  -2.626   0.009  0.00  0.00    +0.079 A 
ATOM     11  C   UNL     1      -6.080  -1.901  -0.092  0.00  0.00    +0.075 A 
ATOM     12  S   UNL     1      -7.300  -3.206  -0.022  0.00  0.00    -0.075 S 
ATOM     13  C   UNL     1      -6.157  -4.572   0.133  0.00  0.00    +0.113 A 
ATOM     14  N   UNL     1      -4.990  -3.943   0.113  0.00  0.00    -0.239 NA
BRANCH  10  18
ATOM     15  C   UNL     1      -1.150  -0.664  -0.029  0.00  0.00    +0.120 A 
ATOM     16  C   UNL     1      -2.320   0.084  -0.022  0.00  0.00    +0.046 A 
ATOM     17  C   UNL     1      -3.545  -0.549  -0.010  0.00  0.00    +0.013 A 
ATOM     18  C   UNL     1      -3.608  -1.942  -0.005  0.00  0.00    +0.001 A 
ATOM     19  C   UNL     1      -2.432  -2.690  -0.012  0.00  0.00    +0.013 A 
ATOM     20  C   UNL     1      -1.210  -2.051  -0.030  0.00  0.00    +0.046 A 
BRANCH  15  22
ATOM     21  C   UNL     1       0.044   1.392  -0.040  0.00  0.00    +0.277 C 
ATOM     22  O   UNL     1       0.055  -0.037  -0.041  0.00  0.00    -0.495 OA
ENDBRANCH  15  22
ENDBRANCH  10  18
ENDBRANCH   1  13
BRANCH   9  23
ATOM     23  N   UNL     1      -4.106  -6.882   0.400  0.00  0.00    -0.356 N 
ATOM     24  H   UNL     1      -3.719  -5.992   0.413  0.00  0.00    +0.142 HD
ATOM     25  H   UNL     1      -3.530  -7.662   0.411  0.00  0.00    +0.142 HD
ENDBRANCH   9  23
BRANCH   8  26
ATOM     26  C   UNL     1      -5.607  -9.523   0.580  0.00  0.00    +0.212 C 
ATOM     27  O   UNL     1      -5.396 -10.202  -0.410  0.00  0.00    -0.285 OA
BRANCH  26  28
ATOM     28  C   UNL     1      -5.257 -10.040   1.920  0.00  0.00    +0.028 A 
ATOM     29  C   UNL     1      -5.606  -9.316   3.063  0.00  0.00    +0.015 A 
ATOM     30  C   UNL     1      -5.279  -9.800   4.311  0.00  0.00    +0.050 A 
ATOM     31  C   UNL     1      -4.604 -11.006   4.437  0.00  0.00    +0.162 A 
ATOM     32  C   UNL     1      -4.253 -11.733   3.300  0.00  0.00    +0.162 A 
ATOM     33  C   UNL     1      -4.583 -11.256   2.046  0.00  0.00    +0.061 A 
BRANCH  32  34
ATOM     34  O   UNL     1      -3.590 -12.914   3.426  0.00  0.00    -0.491 OA
ATOM     35  C   UNL     1      -3.262 -13.606   2.220  0.00  0.00    +0.277 C 
ENDBRANCH  32  34
BRANCH  31  36
ATOM     36  O   UNL     1      -4.283 -11.478   5.669  0.00  0.00    -0.491 OA
ATOM     37  C   UNL     1      -4.672 -10.682   6.790  0.00  0.00    +0.277 C 
ENDBRANCH  31  36
ENDBRANCH  26  28
ENDBRANCH   8  26
TORSDOF 8
