REMARK  Name = ZINC05376778
REMARK  2 active torsions:
REMARK  status: ('A' for Active; 'I' for Inactive)
REMARK    1  A    between atoms: C_10  and  N_11
REMARK    2  A    between atoms: C_17  and  C_18
REMARK                            x       y       z     vdW  Elec       q    Type
REMARK                         _______ _______ _______ _____ _____    ______ ____
ROOT
ATOM      1  N   UNL     1       4.883   0.034   0.034  0.00  0.00    -0.225 NA
ATOM      2  C   UNL     1       6.015  -0.626   0.162  0.00  0.00    +0.166 C 
ATOM      3  N   UNL     1       7.240  -0.153   0.577  0.00  0.00    -0.260 N 
ATOM      4  C   UNL     1       8.284  -0.961   0.649  0.00  0.00    +0.256 C 
ATOM      5  O   UNL     1       9.374  -0.559   1.016  0.00  0.00    -0.269 OA
ATOM      6  C   UNL     1       8.072  -2.366   0.269  0.00  0.00    +0.078 C 
ATOM      7  C   UNL     1       8.960  -3.400   0.250  0.00  0.00    +0.035 C 
ATOM      8  S   UNL     1       6.336  -2.354  -0.154  0.00  0.00    -0.049 S 
ATOM      9  H   UNL     1       7.337   0.781   0.819  0.00  0.00    +0.157 HD
ENDROOT
BRANCH   1  19
ATOM     10  C   UNL     1       1.224   0.536  -3.457  0.00  0.00    +0.001 A 
ATOM     11  C   UNL     1       2.391   1.247  -3.191  0.00  0.00    +0.001 A 
ATOM     12  C   UNL     1       3.213   0.886  -2.166  0.00  0.00    +0.010 A 
ATOM     13  C   UNL     1       2.881  -0.214  -1.367  0.00  0.00    +0.008 A 
ATOM     14  C   UNL     1       1.694  -0.940  -1.633  0.00  0.00    -0.016 A 
ATOM     15  C   UNL     1       0.870  -0.539  -2.700  0.00  0.00    +0.008 A 
ATOM     16  C   UNL     1       1.363  -2.042  -0.829  0.00  0.00    +0.008 A 
ATOM     17  C   UNL     1       2.171  -2.418   0.201  0.00  0.00    +0.003 A 
ATOM     18  C   UNL     1       3.342  -1.737   0.499  0.00  0.00    +0.028 A 
ATOM     19  C   UNL     1       3.732  -0.637  -0.256  0.00  0.00    +0.074 A 
ENDBRANCH   1  19
BRANCH   7  20
ATOM     20  C   UNL     1      10.335  -3.156   0.470  0.00  0.00    +0.013 A 
ATOM     21  C   UNL     1      11.257  -3.914   1.185  0.00  0.00    +0.015 A 
ATOM     22  C   UNL     1      12.537  -3.413   1.222  0.00  0.00    +0.008 A 
ATOM     23  C   UNL     1      12.809  -2.250   0.580  0.00  0.00    +0.046 A 
ATOM     24  S   UNL     1      11.342  -1.800  -0.102  0.00  0.00    -0.097 S 
ENDBRANCH   7  20
TORSDOF 2
