REMARK  Name = ZINC40426495
REMARK  11 active torsions:
REMARK  status: ('A' for Active; 'I' for Inactive)
REMARK    1  A    between atoms: C_1  and  C_2
REMARK    2  A    between atoms: C_2  and  C_3
REMARK    3  A    between atoms: C_2  and  C_4
REMARK    4  A    between atoms: C_4  and  C_5
REMARK    5  A    between atoms: C_5  and  C_7
REMARK    6  A    between atoms: C_5  and  N_17
REMARK    7  A    between atoms: N_9  and  C_10
REMARK    8  A    between atoms: N_13  and  C_16
REMARK    9  A    between atoms: C_23  and  C_30
REMARK   10  A    between atoms: N_28  and  C_29
REMARK   11  A    between atoms: C_35  and  C_36
REMARK                            x       y       z     vdW  Elec       q    Type
REMARK                         _______ _______ _______ _____ _____    ______ ____
ROOT
ATOM      1  N   UNL     1      -2.393  -1.926  -1.478  0.00  0.00    -0.281 N 
ATOM      2  C   UNL     1      -1.168  -2.685  -1.189  0.00  0.00    +0.160 C 
ATOM      3  C   UNL     1      -0.526  -2.916  -2.539  0.00  0.00    +0.042 C 
ATOM      4  C   UNL     1      -1.335  -2.334  -3.448  0.00  0.00    +0.058 C 
ATOM      5  C   UNL     1      -2.449  -1.750  -2.810  0.00  0.00    +0.247 C 
ATOM      6  O   UNL     1      -3.343  -1.161  -3.390  0.00  0.00    -0.270 OA
ATOM      7  C   UNL     1      -0.928  -2.413  -4.905  0.00  0.00    +0.142 C 
ATOM      8  N   UNL     1       0.326  -3.122  -5.210  0.00  0.00    -0.288 N 
ATOM      9  C   UNL     1       1.028  -3.653  -4.189  0.00  0.00    +0.307 C 
ATOM     10  O   UNL     1       2.064  -4.240  -4.431  0.00  0.00    -0.252 OA
ATOM     11  N   UNL     1       0.621  -3.553  -2.917  0.00  0.00    -0.260 N 
ATOM     12  C   UNL     1       1.451  -4.162  -1.875  0.00  0.00    +0.139 C 
ATOM     13  H   UNL     1       0.639  -3.206  -6.125  0.00  0.00    +0.151 HD
ENDROOT
BRANCH   7  14
ATOM     14  C   UNL     1      -0.804  -1.005  -5.429  0.00  0.00    -0.011 A 
ATOM     15  C   UNL     1       0.255  -0.210  -5.032  0.00  0.00    +0.006 A 
ATOM     16  C   UNL     1       0.368   1.081  -5.512  0.00  0.00    +0.000 A 
ATOM     17  C   UNL     1      -0.577   1.577  -6.391  0.00  0.00    +0.001 A 
ATOM     18  C   UNL     1      -1.635   0.782  -6.790  0.00  0.00    +0.013 A 
ATOM     19  C   UNL     1      -1.746  -0.511  -6.312  0.00  0.00    +0.060 A 
BRANCH  19  20
ATOM     20  C   UNL     1      -2.897  -1.380  -6.751  0.00  0.00    +0.418 C 
ATOM     21  F   UNL     1      -3.747  -0.643  -7.583  0.00  0.00    -0.166 F 
ATOM     22  F   UNL     1      -2.405  -2.487  -7.450  0.00  0.00    -0.166 F 
ATOM     23  F   UNL     1      -3.607  -1.815  -5.627  0.00  0.00    -0.166 F 
ENDBRANCH  19  20
ENDBRANCH   7  14
BRANCH   1  24
ATOM     24  C   UNL     1      -3.374  -1.454  -0.497  0.00  0.00    +0.163 C 
BRANCH  24  25
ATOM     25  C   UNL     1      -4.719  -2.064  -0.798  0.00  0.00    +0.234 C 
ATOM     26  O   UNL     1      -4.846  -2.819  -1.739  0.00  0.00    -0.274 OA
ATOM     27  N   UNL     1      -5.781  -1.771  -0.022  0.00  0.00    -0.311 N 
ATOM     28  H   UNL     1      -5.680  -1.167   0.730  0.00  0.00    +0.149 HD
BRANCH  27  29
ATOM     29  C   UNL     1      -7.088  -2.364  -0.315  0.00  0.00    +0.069 C 
ATOM     30  C   UNL     1      -7.815  -1.512  -1.360  0.00  0.00    +0.003 C 
ATOM     31  C   UNL     1      -9.210  -2.092  -1.603  0.00  0.00    -0.077 C 
ATOM     32  N   UNL     1      -9.972  -2.084  -0.348  0.00  0.00    +0.378 N 
ATOM     33  C   UNL     1      -9.319  -2.956   0.636  0.00  0.00    -0.077 C 
ATOM     34  C   UNL     1      -7.928  -2.410   0.965  0.00  0.00    +0.003 C 
ATOM     35  C   UNL     1     -11.335  -2.568  -0.602  0.00  0.00    -0.096 C 
ATOM     36  H   UNL     1     -10.013  -1.143   0.014  0.00  0.00    -0.082 HD
ENDBRANCH  27  29
ENDBRANCH  24  25
BRANCH  24  37
ATOM     37  C   UNL     1      -3.478   0.071  -0.572  0.00  0.00    +0.035 C 
BRANCH  37  39
ATOM     38  C   UNL     1      -2.208   2.210  -0.339  0.00  0.00    +0.007 C 
ATOM     39  C   UNL     1      -2.147   0.694  -0.146  0.00  0.00    -0.015 C 
ATOM     40  C   UNL     1      -1.885   0.378   1.329  0.00  0.00    +0.007 C 
ENDBRANCH  37  39
ENDBRANCH  24  37
ENDBRANCH   1  24
TORSDOF 7
