REMARK  Name = ZINC20257617
REMARK  6 active torsions:
REMARK  status: ('A' for Active; 'I' for Inactive)
REMARK    1  A    between atoms: C_1  and  C_2
REMARK    2  A    between atoms: C_5  and  N_9
REMARK    3  A    between atoms: C_7  and  N_8
REMARK    4  A    between atoms: N_9  and  S_10
REMARK    5  A    between atoms: S_10  and  N_13
REMARK    6  A    between atoms: C_18  and  C_20
REMARK                            x       y       z     vdW  Elec       q    Type
REMARK                         _______ _______ _______ _____ _____    ______ ____
ROOT
ATOM      1  N   UNL     1      -0.070  -3.576  -0.445  0.00  0.00    -0.206 N 
ATOM      2  H   UNL     1       0.672  -3.981  -1.149  0.00  0.00    +0.175 HD
ENDROOT
BRANCH   1   7
ATOM      3  C   UNL     1      -1.681   1.853  -0.826  0.00  0.00    +0.045 C 
ATOM      4  C   UNL     1      -1.253   0.411  -0.727  0.00  0.00    -0.030 A 
ATOM      5  C   UNL     1      -0.388   0.015   0.276  0.00  0.00    +0.007 A 
ATOM      6  C   UNL     1       0.005  -1.306   0.371  0.00  0.00    +0.025 A 
ATOM      7  C   UNL     1      -0.468  -2.241  -0.542  0.00  0.00    +0.051 A 
ATOM      8  C   UNL     1      -1.337  -1.847  -1.550  0.00  0.00    +0.047 A 
ATOM      9  C   UNL     1      -1.734  -0.520  -1.639  0.00  0.00    +0.029 A 
BRANCH   9  10
ATOM     10  N   UNL     1      -2.613  -0.120  -2.648  0.00  0.00    -0.358 N 
ATOM     11  H   UNL     1      -2.994  -0.858  -3.370  0.00  0.00    +0.142 HD
ATOM     12  H   UNL     1      -2.925   0.932  -2.721  0.00  0.00    +0.142 HD
ENDBRANCH   9  10
ENDBRANCH   1   7
BRANCH   1  13
ATOM     13  S   UNL     1      -0.714  -4.550   0.730  0.00  0.00    +0.112 S 
ATOM     14  O   UNL     1      -0.257  -5.868   0.460  0.00  0.00    -0.138 OA
ATOM     15  O   UNL     1      -0.477  -3.900   1.971  0.00  0.00    -0.138 OA
BRANCH  13  16
ATOM     16  N   UNL     1      -2.355  -4.563   0.509  0.00  0.00    -0.161 NA
ATOM     17  C   UNL     1      -3.236  -3.794   1.397  0.00  0.00    +0.111 C 
ATOM     18  C   UNL     1      -4.306  -4.732   1.964  0.00  0.00    +0.017 C 
ATOM     19  C   UNL     1      -5.030  -5.430   0.810  0.00  0.00    +0.003 C 
ATOM     20  C   UNL     1      -4.030  -6.265   0.009  0.00  0.00    +0.020 C 
ATOM     21  C   UNL     1      -2.957  -5.340  -0.584  0.00  0.00    +0.078 C 
ATOM     22  C   UNL     1      -1.878  -6.177  -1.273  0.00  0.00    +0.026 C 
ENDBRANCH  13  16
ENDBRANCH   1  13
TORSDOF 4
