REMARK  Name = ZINC07000832
REMARK  10 active torsions:
REMARK  status: ('A' for Active; 'I' for Inactive)
REMARK    1  A    between atoms: C_1  and  C_2
REMARK    2  A    between atoms: C_5  and  O_28
REMARK    3  A    between atoms: C_6  and  N_8
REMARK    4  A    between atoms: N_8  and  C_9
REMARK    5  A    between atoms: N_12  and  C_13
REMARK    6  A    between atoms: N_15  and  C_24
REMARK    7  A    between atoms: C_24  and  C_25
REMARK    8  A    between atoms: C_25  and  C_26
REMARK    9  A    between atoms: C_25  and  C_27
REMARK   10  A    between atoms: O_28  and  C_29
REMARK                            x       y       z     vdW  Elec       q    Type
REMARK                         _______ _______ _______ _____ _____    ______ ____
ROOT
ATOM      1  N   UNL     1       4.172   3.726   0.810  0.00  0.00    -0.255 N 
ATOM      2  C   UNL     1       2.871   4.270   1.207  0.00  0.00    +0.140 C 
ATOM      3  C   UNL     1       4.724   4.087  -0.365  0.00  0.00    +0.311 C 
ATOM      4  O   UNL     1       5.804   3.635  -0.694  0.00  0.00    -0.252 OA
ATOM      5  N   UNL     1       4.078   4.948  -1.176  0.00  0.00    -0.267 N 
ATOM      6  H   UNL     1       3.185   5.251  -0.950  0.00  0.00    +0.156 HD
ENDROOT
BRANCH   5   7
ATOM      7  C   UNL     1       4.698   5.407  -2.349  0.00  0.00    +0.059 A 
ATOM      8  C   UNL     1       4.134   5.177  -3.552  0.00  0.00    +0.113 A 
ATOM      9  N   UNL     1       4.704   5.606  -4.720  0.00  0.00    -0.313 N 
ATOM     10  C   UNL     1       5.866   6.287  -4.746  0.00  0.00    +0.259 A 
ATOM     11  O   UNL     1       6.342   6.653  -5.806  0.00  0.00    -0.267 OA
ATOM     12  C   UNL     1       6.554   6.584  -3.485  0.00  0.00    +0.048 A 
ATOM     13  C   UNL     1       5.963   6.146  -2.277  0.00  0.00    +0.010 A 
ATOM     14  C   UNL     1       6.597   6.407  -1.063  0.00  0.00    +0.010 A 
ATOM     15  C   UNL     1       7.779   7.095  -1.051  0.00  0.00    +0.001 A 
ATOM     16  C   UNL     1       8.361   7.533  -2.234  0.00  0.00    +0.001 A 
ATOM     17  C   UNL     1       7.760   7.284  -3.448  0.00  0.00    +0.014 A 
BRANCH   9  18
ATOM     18  C   UNL     1       4.026   5.316  -5.986  0.00  0.00    +0.128 C 
BRANCH  18  19
ATOM     19  C   UNL     1       3.065   6.458  -6.323  0.00  0.00    +0.003 C 
ATOM     20  C   UNL     1       3.863   7.739  -6.576  0.00  0.00    +0.009 C 
ATOM     21  C   UNL     1       2.267   6.099  -7.578  0.00  0.00    +0.009 C 
ENDBRANCH  18  19
ENDBRANCH   9  18
ENDBRANCH   5   7
BRANCH   1  27
ATOM     22  C   UNL     1       5.053  -0.898   2.233  0.00  0.00    +0.044 C 
ATOM     23  C   UNL     1       5.290   0.584   2.366  0.00  0.00    -0.048 A 
ATOM     24  C   UNL     1       6.174   1.059   3.317  0.00  0.00    +0.007 A 
ATOM     25  C   UNL     1       6.390   2.418   3.448  0.00  0.00    +0.048 A 
ATOM     26  C   UNL     1       5.730   3.308   2.616  0.00  0.00    +0.141 A 
ATOM     27  C   UNL     1       4.843   2.830   1.654  0.00  0.00    +0.079 A 
ATOM     28  C   UNL     1       4.627   1.465   1.532  0.00  0.00    +0.030 A 
BRANCH  26  29
ATOM     29  O   UNL     1       5.946   4.645   2.739  0.00  0.00    -0.493 OA
ATOM     30  C   UNL     1       6.869   5.062   3.748  0.00  0.00    +0.277 C 
ENDBRANCH  26  29
ENDBRANCH   1  27
TORSDOF 5
