REMARK  Name = ZINC24146118
REMARK  11 active torsions:
REMARK  status: ('A' for Active; 'I' for Inactive)
REMARK    1  A    between atoms: C_1  and  C_2
REMARK    2  A    between atoms: C_2  and  C_3
REMARK    3  A    between atoms: C_2  and  C_4
REMARK    4  A    between atoms: C_7  and  C_10
REMARK    5  A    between atoms: C_10  and  C_35
REMARK    6  A    between atoms: N_13  and  C_17
REMARK    7  A    between atoms: C_17  and  C_18
REMARK    8  A    between atoms: N_20  and  C_21
REMARK    9  A    between atoms: N_20  and  C_22
REMARK   10  A    between atoms: C_22  and  C_23
REMARK   11  A    between atoms: C_26  and  C_28
REMARK                            x       y       z     vdW  Elec       q    Type
REMARK                         _______ _______ _______ _____ _____    ______ ____
ROOT
ATOM      1  C   UNL     1       2.451   3.937  -0.001  0.00  0.00    +0.135 C 
ATOM      2  C   UNL     1       2.287   5.262   0.717  0.00  0.00    +0.251 C 
ATOM      3  O   UNL     1       1.542   6.170   0.417  0.00  0.00    -0.272 OA
ATOM      4  N   UNL     1       3.143   5.221   1.757  0.00  0.00    -0.215 N 
ATOM      5  C   UNL     1       3.818   4.066   1.796  0.00  0.00    +0.310 C 
ATOM      6  O   UNL     1       4.647   3.796   2.643  0.00  0.00    -0.252 OA
ATOM      7  N   UNL     1       3.476   3.237   0.792  0.00  0.00    -0.281 N 
ATOM      8  C   UNL     1       2.934   4.158  -1.436  0.00  0.00    +0.047 C 
ATOM      9  H   UNL     1       3.804   2.229   0.501  0.00  0.00    +0.152 HD
ENDROOT
BRANCH   1  13
ATOM     10  C   UNL     1      -1.219   1.751   0.017  0.00  0.00    -0.045 A 
ATOM     11  C   UNL     1      -0.013   1.076   0.008  0.00  0.00    +0.004 A 
ATOM     12  C   UNL     1       1.175   1.783   0.000  0.00  0.00    +0.006 A 
ATOM     13  C   UNL     1       1.156   3.165   0.008  0.00  0.00    -0.015 A 
ATOM     14  C   UNL     1      -0.050   3.840   0.022  0.00  0.00    +0.006 A 
ATOM     15  C   UNL     1      -1.238   3.133   0.030  0.00  0.00    +0.004 A 
BRANCH  10  17
ATOM     16  C   UNL     1      -3.315   1.331   1.274  0.00  0.00    +0.012 C 
ATOM     17  C   UNL     1      -2.514   0.980   0.019  0.00  0.00    +0.013 C 
ATOM     18  C   UNL     1      -3.327   1.345  -1.224  0.00  0.00    +0.012 C 
ENDBRANCH  10  17
ENDBRANCH   1  13
BRANCH   4  19
ATOM     19  C   UNL     1       3.314   6.307   2.725  0.00  0.00    +0.213 C 
BRANCH  19  20
ATOM     20  C   UNL     1       2.356   6.113   3.872  0.00  0.00    +0.234 C 
ATOM     21  O   UNL     1       1.603   5.162   3.879  0.00  0.00    -0.274 OA
ATOM     22  N   UNL     1       2.334   6.997   4.889  0.00  0.00    -0.296 N 
ATOM     23  C   UNL     1       3.243   8.146   4.880  0.00  0.00    +0.132 C 
BRANCH  22  24
ATOM     24  C   UNL     1       1.402   6.809   6.003  0.00  0.00    +0.181 C 
BRANCH  24  25
ATOM     25  C   UNL     1       2.061   5.977   7.074  0.00  0.00    +0.123 A 
ATOM     26  C   UNL     1       2.785   6.454   8.104  0.00  0.00    +0.047 A 
ATOM     27  C   UNL     1       3.212   5.342   8.858  0.00  0.00    +0.050 A 
ATOM     28  C   UNL     1       2.718   4.237   8.239  0.00  0.00    +0.135 A 
ATOM     29  O   UNL     1       2.017   4.638   7.162  0.00  0.00    -0.458 OA
BRANCH  28  30
ATOM     30  C   UNL     1       2.912   2.838   8.677  0.00  0.00    +0.017 A 
ATOM     31  C   UNL     1       3.665   2.559   9.819  0.00  0.00    +0.013 A 
ATOM     32  C   UNL     1       3.838   1.253  10.225  0.00  0.00    +0.021 A 
ATOM     33  C   UNL     1       3.276   0.218   9.496  0.00  0.00    +0.041 A 
ATOM     34  C   UNL     1       2.533   0.488   8.360  0.00  0.00    +0.021 A 
ATOM     35  C   UNL     1       2.348   1.791   7.947  0.00  0.00    +0.013 A 
ATOM     36 CL   UNL     1       3.505  -1.425  10.010  0.00  0.00    -0.084 Cl
ENDBRANCH  28  30
ENDBRANCH  24  25
ENDBRANCH  22  24
ENDBRANCH  19  20
ENDBRANCH   4  19
TORSDOF 7
