REMARK  Name = ZINC00870345
REMARK  5 active torsions:
REMARK  status: ('A' for Active; 'I' for Inactive)
REMARK    1  A    between atoms: C_1  and  O_2
REMARK    2  A    between atoms: O_2  and  C_3
REMARK    3  A    between atoms: C_6  and  N_9
REMARK    4  A    between atoms: N_19  and  N_20
REMARK    5  A    between atoms: C_21  and  C_23
REMARK                            x       y       z     vdW  Elec       q    Type
REMARK                         _______ _______ _______ _____ _____    ______ ____
ROOT
ATOM      1  N   UNL     1       2.353   0.995   0.088  0.00  0.00    -0.247 N 
ATOM      2  C   UNL     1       3.297   1.697   0.744  0.00  0.00    +0.268 A 
ATOM      3  O   UNL     1       4.138   1.126   1.417  0.00  0.00    -0.266 OA
ATOM      4  C   UNL     1       3.297   3.123   0.638  0.00  0.00    +0.076 A 
ATOM      5  C   UNL     1       4.227   4.077   1.266  0.00  0.00    -0.023 A 
ATOM      6  C   UNL     1       4.022   5.380   1.013  0.00  0.00    -0.004 A 
ATOM      7  S   UNL     1       2.602   5.424  -0.055  0.00  0.00    -0.073 S 
ATOM      8  C   UNL     1       2.289   3.682  -0.160  0.00  0.00    +0.118 A 
ATOM      9  N   UNL     1       1.388   2.932  -0.786  0.00  0.00    -0.207 NA
ATOM     10  C   UNL     1       1.405   1.621  -0.669  0.00  0.00    +0.221 A 
ATOM     11  N   UNL     1       0.459   0.871  -1.323  0.00  0.00    -0.233 N 
ATOM     12  C   UNL     1       5.034   6.258   1.700  0.00  0.00    +0.043 C 
ATOM     13  C   UNL     1       6.180   5.298   2.088  0.00  0.00    +0.010 C 
ATOM     14  C   UNL     1       5.439   3.951   2.192  0.00  0.00    +0.037 C 
ATOM     15  H   UNL     1       0.474  -0.097  -1.255  0.00  0.00    +0.173 HD
ENDROOT
BRANCH   1  19
ATOM     16  C   UNL     1       2.327  -3.166   0.377  0.00  0.00    +0.120 A 
ATOM     17  C   UNL     1       3.054  -2.545  -0.628  0.00  0.00    +0.047 A 
ATOM     18  C   UNL     1       3.063  -1.168  -0.724  0.00  0.00    +0.030 A 
ATOM     19  C   UNL     1       2.344  -0.404   0.185  0.00  0.00    +0.053 A 
ATOM     20  C   UNL     1       1.621  -1.026   1.194  0.00  0.00    +0.030 A 
ATOM     21  C   UNL     1       1.608  -2.403   1.286  0.00  0.00    +0.047 A 
BRANCH  16  23
ATOM     22  C   UNL     1       1.548  -5.094   1.530  0.00  0.00    +0.277 C 
ATOM     23  O   UNL     1       2.318  -4.522   0.471  0.00  0.00    -0.495 OA
ENDBRANCH  16  23
ENDBRANCH   1  19
BRANCH  11  24
ATOM     24  N   UNL     1      -0.526   1.502  -2.094  0.00  0.00    -0.230 N 
ATOM     25  C   UNL     1      -1.451   0.766  -2.740  0.00  0.00    +0.260 C 
ATOM     26  O   UNL     1      -1.432  -0.446  -2.655  0.00  0.00    -0.269 OA
ATOM     27  H   UNL     1      -0.541   2.470  -2.163  0.00  0.00    +0.173 HD
BRANCH  25  28
ATOM     28  C   UNL     1      -2.490   1.433  -3.554  0.00  0.00    +0.038 A 
ATOM     29  C   UNL     1      -2.519   2.825  -3.650  0.00  0.00    +0.013 A 
ATOM     30  C   UNL     1      -3.488   3.440  -4.415  0.00  0.00    +0.001 A 
ATOM     31  C   UNL     1      -4.437   2.682  -5.077  0.00  0.00    +0.000 A 
ATOM     32  C   UNL     1      -4.417   1.301  -4.981  0.00  0.00    +0.001 A 
ATOM     33  C   UNL     1      -3.450   0.673  -4.224  0.00  0.00    +0.013 A 
ENDBRANCH  25  28
ENDBRANCH  11  24
TORSDOF 4
