REMARK  Name = ZINC64741070
REMARK  7 active torsions:
REMARK  status: ('A' for Active; 'I' for Inactive)
REMARK    1  A    between atoms: C_1  and  C_2
REMARK    2  A    between atoms: C_7  and  C_8
REMARK    3  A    between atoms: C_8  and  S_9
REMARK    4  A    between atoms: S_9  and  C_10
REMARK    5  A    between atoms: C_16  and  C_24
REMARK    6  A    between atoms: N_26  and  C_27
REMARK    7  A    between atoms: C_32  and  C_33
REMARK                            x       y       z     vdW  Elec       q    Type
REMARK                         _______ _______ _______ _____ _____    ______ ____
ROOT
ATOM      1  C   UNL     1      -1.514   1.194   4.569  0.00  0.00    +0.182 C 
ATOM      2  N   UNL     1      -0.290   1.470   4.986  0.00  0.00    -0.154 NA
ATOM      3  C   UNL     1      -0.060   2.182   6.091  0.00  0.00    +0.249 C 
ATOM      4  O   UNL     1       1.069   2.408   6.481  0.00  0.00    -0.273 OA
ATOM      5  C   UNL     1      -1.276   2.694   6.835  0.00  0.00    +0.153 C 
ATOM      6  C   UNL     1      -1.189   2.214   8.285  0.00  0.00    +0.103 C 
ATOM      7  C   UNL     1      -2.318   2.868   9.086  0.00  0.00    +0.110 C 
ATOM      8  C   UNL     1      -3.634   2.720   8.378  0.00  0.00    +0.219 C 
ATOM      9  O   UNL     1      -4.654   2.863   9.017  0.00  0.00    -0.275 OA
ATOM     10  N   UNL     1      -3.732   2.438   7.069  0.00  0.00    -0.273 N 
ATOM     11  C   UNL     1      -2.620   2.221   6.313  0.00  0.00    +0.117 C 
ATOM     12  N   UNL     1      -2.640   1.530   5.209  0.00  0.00    -0.212 NA
ATOM     13  H   UNL     1      -4.606   2.400   6.649  0.00  0.00    +0.156 HD
ENDROOT
BRANCH   6  14
ATOM     14  C   UNL     1      -1.333   0.715   8.331  0.00  0.00    +0.222 C 
ATOM     15  O   UNL     1      -1.491   0.089   7.304  0.00  0.00    -0.275 OA
ATOM     16  N   UNL     1      -1.287   0.069   9.513  0.00  0.00    -0.285 N 
ATOM     17  H   UNL     1      -1.081   0.558  10.325  0.00  0.00    +0.155 HD
BRANCH  16  18
ATOM     18  C   UNL     1      -1.536  -1.306   9.569  0.00  0.00    +0.036 A 
ATOM     19  C   UNL     1      -2.307  -1.915   8.587  0.00  0.00    +0.023 A 
ATOM     20  C   UNL     1      -2.550  -3.273   8.645  0.00  0.00    +0.002 A 
ATOM     21  C   UNL     1      -2.029  -4.027   9.681  0.00  0.00    +0.000 A 
ATOM     22  C   UNL     1      -1.261  -3.424  10.660  0.00  0.00    +0.005 A 
ATOM     23  C   UNL     1      -1.008  -2.067  10.604  0.00  0.00    -0.029 A 
ATOM     24  C   UNL     1      -0.166  -1.412  11.668  0.00  0.00    +0.045 C 
ENDBRANCH  16  18
ENDBRANCH   6  14
BRANCH   1  25
ATOM     25  S   UNL     1      -1.675   0.323   3.045  0.00  0.00    -0.084 S 
BRANCH  25  26
ATOM     26  C   UNL     1       0.037   0.061   2.506  0.00  0.00    +0.112 C 
BRANCH  26  33
ATOM     27  C   UNL     1      -0.014   1.520   0.013  0.00  0.00    +0.044 C 
ATOM     28  C   UNL     1       0.018   0.014   0.004  0.00  0.00    -0.046 A 
ATOM     29  C   UNL     1       0.029  -0.670  -1.198  0.00  0.00    +0.003 A 
ATOM     30  C   UNL     1       0.059  -2.052  -1.206  0.00  0.00    +0.000 A 
ATOM     31  C   UNL     1       0.078  -2.750  -0.013  0.00  0.00    +0.000 A 
ATOM     32  C   UNL     1       0.068  -2.067   1.188  0.00  0.00    +0.005 A 
ATOM     33  C   UNL     1       0.043  -0.684   1.197  0.00  0.00    -0.034 A 
ENDBRANCH  26  33
ENDBRANCH  25  26
ENDBRANCH   1  25
TORSDOF 5
