REMARK  Name = ZINC37289626
REMARK  9 active torsions:
REMARK  status: ('A' for Active; 'I' for Inactive)
REMARK    1  A    between atoms: C_1  and  C_2
REMARK    2  A    between atoms: C_2  and  C_3
REMARK    3  A    between atoms: C_3  and  N_4
REMARK    4  A    between atoms: C_5  and  C_7
REMARK    5  A    between atoms: C_7  and  C_9
REMARK    6  A    between atoms: C_7  and  O_10
REMARK    7  A    between atoms: O_10  and  C_11
REMARK    8  A    between atoms: C_14  and  N_20
REMARK    9  A    between atoms: C_16  and  C_17
REMARK                            x       y       z     vdW  Elec       q    Type
REMARK                         _______ _______ _______ _____ _____    ______ ____
ROOT
ATOM      1  C   UNL     1      -4.068  -5.827  -0.821  0.00  0.00    +0.136 A 
ATOM      2  C   UNL     1      -2.973  -6.513  -1.323  0.00  0.00    +0.048 A 
ATOM      3  C   UNL     1      -3.154  -7.671  -2.052  0.00  0.00    +0.026 A 
ATOM      4  C   UNL     1      -4.436  -8.158  -2.290  0.00  0.00    +0.026 A 
ATOM      5  C   UNL     1      -5.539  -7.485  -1.797  0.00  0.00    +0.041 A 
ATOM      6  C   UNL     1      -5.363  -6.314  -1.051  0.00  0.00    +0.106 A 
ENDROOT
BRANCH   6   7
ATOM      7  C   UNL     1      -6.530  -5.595  -0.517  0.00  0.00    +0.390 C 
ATOM      8  O   UNL     1      -7.658  -6.024  -0.720  0.00  0.00    -0.240 OA
ATOM      9  O   UNL     1      -6.373  -4.569   0.131  0.00  0.00    -0.240 OA
ENDBRANCH   6   7
BRANCH   4  10
ATOM     10  N   UNL     1      -4.609  -9.332  -3.032  0.00  0.00    -0.358 N 
ATOM     11  H   UNL     1      -3.836  -9.805  -3.379  0.00  0.00    +0.142 HD
ATOM     12  H   UNL     1      -5.502  -9.674  -3.199  0.00  0.00    +0.142 HD
ENDBRANCH   4  10
BRANCH   1  13
ATOM     13  O   UNL     1      -3.888  -4.689  -0.103  0.00  0.00    -0.479 OA
BRANCH  13  14
ATOM     14  C   UNL     1      -2.552  -4.190  -0.004  0.00  0.00    +0.255 C 
ATOM     15  C   UNL     1      -1.830  -4.893   1.147  0.00  0.00    +0.062 C 
BRANCH  14  17
ATOM     16  N   UNL     1      -1.441  -1.999   0.289  0.00  0.00    -0.312 N 
ATOM     17  C   UNL     1      -2.588  -2.706   0.257  0.00  0.00    +0.254 C 
ATOM     18  O   UNL     1      -3.650  -2.148   0.439  0.00  0.00    -0.272 OA
ATOM     19  H   UNL     1      -0.593  -2.446   0.143  0.00  0.00    +0.149 HD
BRANCH  16  20
ATOM     20  C   UNL     1      -1.477  -0.557   0.543  0.00  0.00    +0.104 C 
BRANCH  20  22
ATOM     21  C   UNL     1      -0.088   1.505   0.791  0.00  0.00    +0.005 C 
ATOM     22  C   UNL     1      -0.051  -0.001   0.526  0.00  0.00    +0.015 C 
ENDBRANCH  20  22
ENDBRANCH  16  20
ENDBRANCH  14  17
ENDBRANCH  13  14
ENDBRANCH   1  13
TORSDOF 7
