REMARK  Name = ZINC28968452
REMARK  8 active torsions:
REMARK  status: ('A' for Active; 'I' for Inactive)
REMARK    1  A    between atoms: C_1  and  N_2
REMARK    2  A    between atoms: C_6  and  C_7
REMARK    3  A    between atoms: C_7  and  C_9
REMARK    4  A    between atoms: C_7  and  N_16
REMARK    5  A    between atoms: C_17  and  C_19
REMARK    6  A    between atoms: C_22  and  S_25
REMARK    7  A    between atoms: S_25  and  N_28
REMARK    8  A    between atoms: N_28  and  C_29
REMARK                            x       y       z     vdW  Elec       q    Type
REMARK                         _______ _______ _______ _____ _____    ______ ____
ROOT
ATOM      1  N   UNL     1       0.183  -3.588   0.311  0.00  0.00    -0.297 N 
ATOM      2  C   UNL     1       0.710  -3.424   1.540  0.00  0.00    +0.245 C 
ATOM      3  O   UNL     1       1.732  -2.782   1.683  0.00  0.00    -0.270 OA
ATOM      4  H   UNL     1      -0.742  -4.169   0.181  0.00  0.00    +0.150 HD
ENDROOT
BRANCH   2   5
ATOM      5  C   UNL     1       0.045  -4.027   2.716  0.00  0.00    +0.037 A 
ATOM      6  C   UNL     1      -1.132  -4.760   2.555  0.00  0.00    +0.015 A 
ATOM      7  C   UNL     1      -1.745  -5.324   3.655  0.00  0.00    +0.029 A 
ATOM      8  C   UNL     1      -1.201  -5.154   4.917  0.00  0.00    +0.109 A 
ATOM      9  C   UNL     1      -0.038  -4.423   5.083  0.00  0.00    +0.029 A 
ATOM     10  C   UNL     1       0.588  -3.859   3.990  0.00  0.00    +0.015 A 
BRANCH   8  11
ATOM     11  S   UNL     1      -1.994  -5.872   6.317  0.00  0.00    +0.072 S 
ATOM     12  O   UNL     1      -2.861  -6.882   5.820  0.00  0.00    -0.150 OA
ATOM     13  O   UNL     1      -0.973  -6.144   7.267  0.00  0.00    -0.150 OA
BRANCH  11  14
ATOM     14  N   UNL     1      -2.962  -4.704   6.983  0.00  0.00    -0.216 N 
ATOM     15  H   UNL     1      -2.761  -4.339   8.001  0.00  0.00    +0.174 HD
BRANCH  14  16
ATOM     16  C   UNL     1      -4.028  -4.186   6.255  0.00  0.00    +0.051 A 
ATOM     17  C   UNL     1      -3.966  -2.905   5.708  0.00  0.00    +0.042 A 
ATOM     18  C   UNL     1      -5.042  -2.430   4.988  0.00  0.00    +0.084 A 
ATOM     19  N   UNL     1      -6.125  -3.168   4.825  0.00  0.00    -0.367 N 
ATOM     20  C   UNL     1      -6.225  -4.382   5.333  0.00  0.00    +0.084 A 
ATOM     21  C   UNL     1      -5.191  -4.932   6.060  0.00  0.00    +0.042 A 
ATOM     22  H   UNL     1      -6.978  -2.774   4.253  0.00  0.00    +0.165 HD
ENDBRANCH  14  16
ENDBRANCH  11  14
ENDBRANCH   8  11
ENDBRANCH   2   5
BRANCH   1  23
ATOM     23  C   UNL     1       0.842  -2.991  -0.854  0.00  0.00    +0.172 C 
BRANCH  23  24
ATOM     24  C   UNL     1       0.477  -3.769  -2.091  0.00  0.00    +0.015 A 
ATOM     25  C   UNL     1      -0.701  -4.492  -2.131  0.00  0.00    +0.009 A 
ATOM     26  C   UNL     1      -1.036  -5.206  -3.267  0.00  0.00    +0.001 A 
ATOM     27  C   UNL     1      -0.194  -5.197  -4.363  0.00  0.00    +0.003 A 
ATOM     28  C   UNL     1       0.984  -4.476  -4.325  0.00  0.00    +0.039 A 
ATOM     29  C   UNL     1       1.318  -3.757  -3.191  0.00  0.00    +0.129 A 
ATOM     30  F   UNL     1       2.467  -3.046  -3.155  0.00  0.00    -0.205 F 
ENDBRANCH  23  24
BRANCH  23  36
ATOM     31  C   UNL     1       2.648  -0.542  -1.439  0.00  0.00    +0.150 C 
ATOM     32  N   UNL     1       1.194  -0.506  -1.263  0.00  0.00    -0.336 N 
ATOM     33  C   UNL     1       0.395   0.604  -1.328  0.00  0.00    +0.106 A 
ATOM     34  C   UNL     1      -0.867   0.189  -1.111  0.00  0.00    +0.130 A 
ATOM     35  N   UNL     1      -0.840  -1.138  -0.918  0.00  0.00    -0.238 NA
ATOM     36  C   UNL     1       0.391  -1.561  -1.008  0.00  0.00    +0.134 A 
ENDBRANCH  23  36
ENDBRANCH   1  23
TORSDOF 7
