REMARK  Name = ZINC39315160
REMARK  18 active torsions:
REMARK  status: ('A' for Active; 'I' for Inactive)
REMARK    1  A    between atoms: C_1  and  C_2
REMARK    2  A    between atoms: C_2  and  O_3
REMARK    3  A    between atoms: O_3  and  C_4
REMARK    4  A    between atoms: C_4  and  C_6
REMARK    5  A    between atoms: C_6  and  C_40
REMARK    6  A    between atoms: C_7  and  C_8
REMARK    7  A    between atoms: C_11  and  C_14
REMARK    8  A    between atoms: C_14  and  C_16
REMARK    9  A    between atoms: C_14  and  C_25
REMARK   10  A    between atoms: C_19  and  N_22
REMARK   11  A    between atoms: N_22  and  C_23
REMARK   12  A    between atoms: N_22  and  C_24
REMARK   13  A    between atoms: C_29  and  C_31
REMARK   14  A    between atoms: C_32  and  C_33
REMARK   15  A    between atoms: C_32  and  C_35
REMARK   16  A    between atoms: C_35  and  O_37
REMARK   17  A    between atoms: O_37  and  C_38
REMARK   18  A    between atoms: C_38  and  C_39
REMARK                            x       y       z     vdW  Elec       q    Type
REMARK                         _______ _______ _______ _____ _____    ______ ____
ROOT
ATOM      1  C   UNL     1      -7.967  -4.196   0.333  0.00  0.00    +0.094 C 
ENDROOT
BRANCH   1   5
ATOM      2  C   UNL     1      -4.295  -4.351   0.126  0.00  0.00    +0.041 A 
ATOM      3  C   UNL     1      -4.600  -5.701   0.238  0.00  0.00    +0.027 A 
ATOM      4  C   UNL     1      -5.988  -5.800   0.328  0.00  0.00    +0.024 A 
ATOM      5  C   UNL     1      -6.502  -4.545   0.271  0.00  0.00    +0.026 A 
ATOM      6  N   UNL     1      -5.486  -3.656   0.154  0.00  0.00    -0.358 N 
ATOM      7  H   UNL     1      -5.580  -2.692   0.098  0.00  0.00    +0.166 HD
BRANCH   2   9
ATOM      8  C   UNL     1      -2.843  -2.417   0.029  0.00  0.00    +0.137 C 
ATOM      9  C   UNL     1      -3.007  -3.794   0.010  0.00  0.00    +0.051 C 
BRANCH   8  10
ATOM     10  C   UNL     1      -1.495  -1.840   0.027  0.00  0.00    +0.350 C 
ATOM     11  O   UNL     1      -0.522  -2.568   0.009  0.00  0.00    -0.244 OA
BRANCH  10  12
ATOM     12  O   UNL     1      -1.335  -0.500   0.045  0.00  0.00    -0.461 OA
BRANCH  12  14
ATOM     13  C   UNL     1      -0.014   1.523   0.064  0.00  0.00    +0.048 C 
ATOM     14  C   UNL     1       0.006  -0.007   0.042  0.00  0.00    +0.229 C 
ENDBRANCH  12  14
ENDBRANCH  10  12
ENDBRANCH   8  10
BRANCH   8  15
ATOM     15  C   UNL     1      -3.990  -1.560   0.050  0.00  0.00    +0.106 C 
ATOM     16  N   UNL     1      -4.899  -0.879   0.067  0.00  0.00    -0.191 NA
ENDBRANCH   8  15
ENDBRANCH   2   9
ENDBRANCH   1   5
BRANCH   1  17
ATOM     17  C   UNL     1      -8.400  -4.101   1.774  0.00  0.00    -0.036 A 
ATOM     18  C   UNL     1      -8.277  -5.199   2.605  0.00  0.00    +0.006 A 
ATOM     19  C   UNL     1      -8.672  -5.115   3.925  0.00  0.00    +0.023 A 
ATOM     20  C   UNL     1      -9.194  -3.926   4.418  0.00  0.00    +0.029 A 
ATOM     21  C   UNL     1      -9.317  -2.825   3.581  0.00  0.00    +0.023 A 
ATOM     22  C   UNL     1      -8.914  -2.914   2.263  0.00  0.00    +0.006 A 
BRANCH  20  23
ATOM     23  N   UNL     1      -9.596  -3.839   5.753  0.00  0.00    -0.336 N 
ATOM     24  C   UNL     1      -9.467  -5.001   6.635  0.00  0.00    +0.129 C 
ATOM     25  C   UNL     1     -10.147  -2.584   6.272  0.00  0.00    +0.129 C 
ENDBRANCH  20  23
ENDBRANCH   1  17
BRANCH   1  26
ATOM     26  C   UNL     1      -8.781  -5.282  -0.373  0.00  0.00    +0.142 C 
ATOM     27  C   UNL     1     -10.244  -4.902  -0.403  0.00  0.00    +0.002 C 
ATOM     28  C   UNL     1     -10.889  -5.853   0.265  0.00  0.00    +0.025 C 
ATOM     29  C   UNL     1      -9.924  -6.856   0.743  0.00  0.00    +0.060 C 
ATOM     30  N   UNL     1      -8.712  -6.539   0.382  0.00  0.00    -0.276 NA
BRANCH  29  31
ATOM     31  C   UNL     1     -10.280  -8.056   1.522  0.00  0.00    +0.053 C 
ATOM     32  C   UNL     1      -9.309  -8.923   1.917  0.00  0.00    +0.137 C 
BRANCH  32  33
ATOM     33  C   UNL     1      -7.941  -8.670   1.576  0.00  0.00    +0.106 C 
ATOM     34  N   UNL     1      -6.856  -8.470   1.305  0.00  0.00    -0.191 NA
ENDBRANCH  32  33
BRANCH  32  35
ATOM     35  C   UNL     1      -9.665 -10.124   2.698  0.00  0.00    +0.350 C 
ATOM     36  O   UNL     1     -10.825 -10.339   2.988  0.00  0.00    -0.244 OA
BRANCH  35  37
ATOM     37  O   UNL     1      -8.703 -10.983   3.089  0.00  0.00    -0.461 OA
BRANCH  37  38
ATOM     38  C   UNL     1      -9.119 -12.124   3.842  0.00  0.00    +0.229 C 
ATOM     39  C   UNL     1      -7.898 -12.976   4.193  0.00  0.00    +0.048 C 
ENDBRANCH  37  38
ENDBRANCH  35  37
ENDBRANCH  32  35
ENDBRANCH  29  31
ENDBRANCH   1  26
TORSDOF 14
