REMARK  Name = ZINC63754912
REMARK  10 active torsions:
REMARK  status: ('A' for Active; 'I' for Inactive)
REMARK    1  A    between atoms: C_1  and  C_2
REMARK    2  A    between atoms: C_2  and  C_3
REMARK    3  A    between atoms: C_3  and  C_4
REMARK    4  A    between atoms: C_4  and  N_5
REMARK    5  A    between atoms: N_5  and  C_6
REMARK    6  A    between atoms: N_5  and  C_14
REMARK    7  A    between atoms: C_6  and  C_7
REMARK    8  A    between atoms: C_14  and  C_15
REMARK    9  A    between atoms: C_17  and  C_21
REMARK   10  A    between atoms: C_18  and  C_20
REMARK                            x       y       z     vdW  Elec       q    Type
REMARK                         _______ _______ _______ _____ _____    ______ ____
ROOT
ATOM      1  N   UNL     1      -2.808  -2.412   0.341  0.00  0.00    +0.388 N 
ATOM      2  H   UNL     1      -3.288  -1.866   1.042  0.00  0.00    -0.081 HD
ENDROOT
BRANCH   1   3
ATOM      3  C   UNL     1      -1.401  -1.994   0.274  0.00  0.00    -0.078 C 
BRANCH   3   4
ATOM      4  C   UNL     1      -1.328  -0.484   0.041  0.00  0.00    -0.019 C 
BRANCH   4   6
ATOM      5  C   UNL     1       0.195   1.496  -0.013  0.00  0.00    +0.004 C 
ATOM      6  C   UNL     1       0.131  -0.027   0.110  0.00  0.00    -0.005 C 
ENDBRANCH   4   6
ENDBRANCH   3   4
ENDBRANCH   1   3
BRANCH   1   7
ATOM      7  C   UNL     1      -2.880  -3.835   0.696  0.00  0.00    -0.039 C 
BRANCH   7   8
ATOM      8  C   UNL     1      -2.338  -4.034   2.088  0.00  0.00    -0.029 A 
ATOM      9  C   UNL     1      -1.045  -4.489   2.269  0.00  0.00    +0.004 A 
ATOM     10  C   UNL     1      -0.548  -4.671   3.545  0.00  0.00    +0.000 A 
ATOM     11  C   UNL     1      -1.342  -4.398   4.644  0.00  0.00    +0.003 A 
ATOM     12  C   UNL     1      -2.635  -3.943   4.466  0.00  0.00    +0.038 A 
ATOM     13  C   UNL     1      -3.133  -3.755   3.187  0.00  0.00    +0.125 A 
ATOM     14  F   UNL     1      -4.395  -3.306   3.012  0.00  0.00    -0.205 F 
ENDBRANCH   7   8
ENDBRANCH   1   7
BRANCH   1  15
ATOM     15  C   UNL     1      -3.445  -2.200  -0.965  0.00  0.00    +0.019 C 
BRANCH  15  16
ATOM     16  C   UNL     1      -4.916  -2.511  -0.863  0.00  0.00    +0.179 A 
ATOM     17  N   UNL     1      -5.846  -1.672  -0.504  0.00  0.00    -0.220 NA
ATOM     18  C   UNL     1      -7.032  -2.305  -0.532  0.00  0.00    +0.079 A 
ATOM     19  C   UNL     1      -6.809  -3.571  -0.921  0.00  0.00    +0.125 A 
ATOM     20  O   UNL     1      -5.484  -3.694  -1.133  0.00  0.00    -0.447 OA
ATOM     21  C   UNL     1      -7.848  -4.649  -1.095  0.00  0.00    +0.088 C 
ATOM     22  C   UNL     1      -8.369  -1.702  -0.187  0.00  0.00    +0.069 C 
ENDBRANCH  15  16
ENDBRANCH   1  15
TORSDOF 7
