REMARK  Name = ZINC39697137
REMARK  6 active torsions:
REMARK  status: ('A' for Active; 'I' for Inactive)
REMARK    1  A    between atoms: C_1  and  C_2
REMARK    2  A    between atoms: C_5  and  C_8
REMARK    3  A    between atoms: C_8  and  N_9
REMARK    4  A    between atoms: C_10  and  C_12
REMARK    5  A    between atoms: C_23  and  C_25
REMARK    6  A    between atoms: C_28  and  C_30
REMARK                            x       y       z     vdW  Elec       q    Type
REMARK                         _______ _______ _______ _____ _____    ______ ____
ROOT
ATOM      1  C   UNL     1      -2.947  -6.540  -0.338  0.00  0.00    +0.100 C 
ATOM      2  C   UNL     1      -3.614  -5.996  -1.621  0.00  0.00    +0.121 C 
ATOM      3  N   UNL     1      -3.401  -7.059  -2.632  0.00  0.00    -0.294 N 
ATOM      4  C   UNL     1      -3.596  -8.324  -1.884  0.00  0.00    +0.115 C 
ATOM      5  C   UNL     1      -2.940  -8.068  -0.512  0.00  0.00    -0.004 C 
ATOM      6  C   UNL     1      -3.755  -8.730   0.594  0.00  0.00    -0.010 C 
ATOM      7  C   UNL     1      -3.684 -10.251   0.433  0.00  0.00    -0.082 C 
ATOM      8  N   UNL     1      -2.285 -10.688   0.500  0.00  0.00    +0.379 N 
ATOM      9  C   UNL     1      -1.529 -10.120  -0.623  0.00  0.00    -0.082 C 
ATOM     10  C   UNL     1      -1.508  -8.594  -0.507  0.00  0.00    -0.010 C 
ATOM     11  C   UNL     1      -3.100  -6.909  -3.937  0.00  0.00    +0.282 C 
ATOM     12  O   UNL     1      -2.955  -7.888  -4.645  0.00  0.00    -0.267 OA
ATOM     13  H   UNL     1      -1.878 -10.377   1.369  0.00  0.00    -0.086 HD
ATOM     14  H   UNL     1      -2.246 -11.695   0.455  0.00  0.00    -0.086 HD
ENDROOT
BRANCH  11  15
ATOM     15  C   UNL     1      -2.946  -5.567  -4.504  0.00  0.00    +0.190 A 
ATOM     16  C   UNL     1      -2.646  -5.272  -5.816  0.00  0.00    +0.055 A 
ATOM     17  C   UNL     1      -2.596  -3.878  -5.915  0.00  0.00    +0.051 A 
ATOM     18  C   UNL     1      -2.865  -3.377  -4.673  0.00  0.00    +0.139 A 
ATOM     19  O   UNL     1      -3.079  -4.403  -3.833  0.00  0.00    -0.450 OA
BRANCH  18  20
ATOM     20  C   UNL     1      -2.917  -1.946  -4.316  0.00  0.00    +0.052 A 
ATOM     21  C   UNL     1      -1.873  -1.093  -4.682  0.00  0.00    +0.014 A 
ATOM     22  C   UNL     1      -1.928   0.243  -4.344  0.00  0.00    +0.001 A 
ATOM     23  C   UNL     1      -3.014   0.741  -3.644  0.00  0.00    +0.003 A 
ATOM     24  C   UNL     1      -4.051  -0.096  -3.277  0.00  0.00    +0.039 A 
ATOM     25  C   UNL     1      -4.014  -1.436  -3.613  0.00  0.00    +0.134 A 
ATOM     26  F   UNL     1      -5.030  -2.253  -3.260  0.00  0.00    -0.205 F 
ENDBRANCH  18  20
ENDBRANCH  11  15
BRANCH   1  28
ATOM     27  N   UNL     1      -0.977  -5.866   0.997  0.00  0.00    -0.309 N 
ATOM     28  C   UNL     1      -1.538  -6.019  -0.218  0.00  0.00    +0.219 C 
ATOM     29  O   UNL     1      -0.909  -5.737  -1.216  0.00  0.00    -0.275 OA
ATOM     30  H   UNL     1      -1.480  -6.091   1.796  0.00  0.00    +0.149 HD
BRANCH  27  31
ATOM     31  C   UNL     1       0.393  -5.360   1.113  0.00  0.00    +0.161 C 
BRANCH  31  36
ATOM     32  C   UNL     1       1.872  -5.122   6.601  0.00  0.00    +0.067 C 
ATOM     33  C   UNL     1       1.486  -5.198   5.146  0.00  0.00    +0.056 A 
ATOM     34  C   UNL     1       0.798  -4.152   4.557  0.00  0.00    +0.134 A 
ATOM     35  N   UNL     1       0.460  -4.218   3.282  0.00  0.00    -0.255 NA
ATOM     36  C   UNL     1       0.779  -5.284   2.568  0.00  0.00    +0.076 A 
ATOM     37  C   UNL     1       1.467  -6.330   3.157  0.00  0.00    +0.136 A 
ATOM     38  N   UNL     1       1.810  -6.261   4.431  0.00  0.00    -0.257 NA
ENDBRANCH  31  36
ENDBRANCH  27  31
ENDBRANCH   1  28
TORSDOF 5
