REMARK  Name = ZINC03270181
REMARK  8 active torsions:
REMARK  status: ('A' for Active; 'I' for Inactive)
REMARK    1  A    between atoms: C_4  and  C_7
REMARK    2  A    between atoms: C_9  and  C_12
REMARK    3  A    between atoms: C_12  and  O_13
REMARK    4  A    between atoms: O_13  and  C_14
REMARK    5  A    between atoms: C_14  and  C_16
REMARK    6  A    between atoms: C_16  and  O_17
REMARK    7  A    between atoms: O_17  and  C_18
REMARK    8  A    between atoms: C_23  and  N_24
REMARK                            x       y       z     vdW  Elec       q    Type
REMARK                         _______ _______ _______ _____ _____    ______ ____
ROOT
ATOM      1  O   UNL     1       5.988   1.953  -0.045  0.00  0.00    -0.456 OA
ENDROOT
BRANCH   1   2
ATOM      2  C   UNL     1       4.756   1.421  -0.036  0.00  0.00    +0.345 C 
ATOM      3  O   UNL     1       4.615   0.221  -0.041  0.00  0.00    -0.247 OA
BRANCH   2   4
ATOM      4  C   UNL     1       3.547   2.321  -0.019  0.00  0.00    +0.349 C 
BRANCH   4   5
ATOM      5  O   UNL     1       2.360   1.524  -0.012  0.00  0.00    -0.479 OA
BRANCH   5   6
ATOM      6  C   UNL     1       1.173   2.186   0.003  0.00  0.00    +0.151 A 
ATOM      7  C   UNL     1       1.151   3.574   0.010  0.00  0.00    +0.048 A 
ATOM      8  C   UNL     1      -0.057   4.244   0.024  0.00  0.00    +0.004 A 
ATOM      9  C   UNL     1      -1.243   3.533   0.032  0.00  0.00    +0.002 A 
ATOM     10  C   UNL     1      -1.224   2.151   0.019  0.00  0.00    +0.036 A 
ATOM     11  C   UNL     1      -0.018   1.476   0.010  0.00  0.00    +0.168 A 
BRANCH  11  12
ATOM     12  N   UNL     1       0.002  -0.004   0.002  0.00  0.00    +0.060 N 
ATOM     13  O   UNL     1      -1.044  -0.627   0.009  0.00  0.00    -0.126 OA
ATOM     14  O   UNL     1       1.065  -0.599  -0.011  0.00  0.00    -0.126 OA
ENDBRANCH  11  12
ENDBRANCH   5   6
ENDBRANCH   4   5
ENDBRANCH   2   4
ENDBRANCH   1   2
BRANCH   1  15
ATOM     15  C   UNL     1       7.106   1.026  -0.060  0.00  0.00    +0.288 C 
BRANCH  15  18
ATOM     16  C   UNL     1      10.698   1.817  -0.090  0.00  0.00    +0.109 A 
ATOM     17  N   UNL     1       9.546   1.161  -0.077  0.00  0.00    -0.241 NA
ATOM     18  C   UNL     1       8.399   1.799  -0.068  0.00  0.00    +0.086 A 
ATOM     19  C   UNL     1       8.380   3.158  -0.061  0.00  0.00    +0.074 A 
ATOM     20  S   UNL     1      10.133   3.513  -0.076  0.00  0.00    -0.075 S 
BRANCH  16  24
ATOM     21  C   UNL     1      14.664   0.297  -0.137  0.00  0.00    +0.000 A 
ATOM     22  C   UNL     1      14.451   1.663  -0.128  0.00  0.00    +0.001 A 
ATOM     23  C   UNL     1      13.165   2.164  -0.113  0.00  0.00    +0.010 A 
ATOM     24  C   UNL     1      12.079   1.288  -0.107  0.00  0.00    +0.007 A 
ATOM     25  C   UNL     1      12.301  -0.090  -0.111  0.00  0.00    +0.010 A 
ATOM     26  C   UNL     1      13.592  -0.577  -0.132  0.00  0.00    +0.001 A 
ENDBRANCH  16  24
ENDBRANCH  15  18
ENDBRANCH   1  15
TORSDOF 8
