REMARK  Name = ZINC09339279
REMARK  3 active torsions:
REMARK  status: ('A' for Active; 'I' for Inactive)
REMARK    1  A    between atoms: C_1  and  C_2
REMARK    2  A    between atoms: C_4  and  C_13
REMARK    3  A    between atoms: C_5  and  C_12
REMARK                            x       y       z     vdW  Elec       q    Type
REMARK                         _______ _______ _______ _____ _____    ______ ____
ROOT
ATOM      1  C   UNL     1      -0.013   1.086   0.008  0.00  0.00    +0.191 C 
ATOM      2  N   UNL     1      -0.693   1.556   1.221  0.00  0.00    -0.322 N 
ATOM      3  C   UNL     1      -1.110   2.881   1.277  0.00  0.00    +0.041 A 
ATOM      4  C   UNL     1      -1.187   3.575   2.472  0.00  0.00    +0.024 A 
ATOM      5  C   UNL     1      -1.604   4.893   2.471  0.00  0.00    +0.002 A 
ATOM      6  C   UNL     1      -1.944   5.524   1.285  0.00  0.00    +0.001 A 
ATOM      7  C   UNL     1      -1.873   4.846   0.086  0.00  0.00    +0.015 A 
ATOM      8  C   UNL     1      -1.456   3.518   0.072  0.00  0.00    +0.058 A 
ATOM      9  C   UNL     1      -1.371   2.744  -1.180  0.00  0.00    +0.247 C 
ATOM     10  O   UNL     1      -1.889   3.161  -2.198  0.00  0.00    -0.270 OA
ATOM     11  N   UNL     1      -0.714   1.567  -1.182  0.00  0.00    -0.289 N 
ATOM     12  H   UNL     1      -0.849   0.956   1.966  0.00  0.00    +0.148 HD
ATOM     13  H   UNL     1      -0.704   1.031  -1.990  0.00  0.00    +0.151 HD
ENDROOT
BRANCH   1  17
ATOM     14  C   UNL     1       4.506   2.874   1.543  0.00  0.00    +0.064 C 
ATOM     15  C   UNL     1       3.369   2.384   0.683  0.00  0.00    +0.023 A 
ATOM     16  C   UNL     1       2.160   1.984   1.124  0.00  0.00    +0.030 A 
ATOM     17  C   UNL     1       1.402   1.604  -0.003  0.00  0.00    +0.012 A 
ATOM     18  C   UNL     1       2.173   1.795  -1.092  0.00  0.00    +0.029 A 
ATOM     19  N   UNL     1       3.384   2.275  -0.679  0.00  0.00    -0.297 N 
ATOM     20  C   UNL     1       4.457   2.598  -1.509  0.00  0.00    +0.178 A 
ATOM     21  N   UNL     1       4.543   2.513  -2.821  0.00  0.00    -0.231 NA
ATOM     22  C   UNL     1       5.641   2.869  -3.458  0.00  0.00    +0.121 A 
ATOM     23  C   UNL     1       6.694   3.317  -2.731  0.00  0.00    +0.068 A 
ATOM     24  S   UNL     1       6.024   3.210  -1.078  0.00  0.00    -0.058 S 
ATOM     25  C   UNL     1       1.769   1.526  -2.519  0.00  0.00    +0.064 C 
ENDBRANCH   1  17
TORSDOF 1
