REMARK  Name = ZINC35967195
REMARK  10 active torsions:
REMARK  status: ('A' for Active; 'I' for Inactive)
REMARK    1  A    between atoms: C_1  and  C_2
REMARK    2  A    between atoms: C_2  and  N_3
REMARK    3  A    between atoms: C_6  and  C_11
REMARK    4  A    between atoms: C_15  and  O_17
REMARK    5  A    between atoms: O_17  and  C_18
REMARK    6  A    between atoms: N_26  and  C_28
REMARK    7  A    between atoms: C_28  and  C_29
REMARK    8  A    between atoms: C_29  and  C_30
REMARK    9  A    between atoms: N_32  and  C_33
REMARK   10  A    between atoms: C_33  and  C_34
REMARK                            x       y       z     vdW  Elec       q    Type
REMARK                         _______ _______ _______ _____ _____    ______ ____
ROOT
ATOM      1  N   UNL     1       0.895  -0.446   1.095  0.00  0.00    -0.257 N 
ATOM      2  C   UNL     1       2.233  -0.703   1.008  0.00  0.00    +0.042 C 
ATOM      3  C   UNL     1       2.929  -1.154   2.071  0.00  0.00    +0.058 C 
ATOM      4  C   UNL     1       2.175  -1.366   3.368  0.00  0.00    +0.142 C 
ATOM      5  N   UNL     1       0.734  -1.061   3.360  0.00  0.00    -0.288 N 
ATOM      6  C   UNL     1       0.180  -0.611   2.216  0.00  0.00    +0.307 C 
ATOM      7  O   UNL     1      -1.007  -0.352   2.200  0.00  0.00    -0.252 OA
ATOM      8  C   UNL     1       4.284  -1.341   1.728  0.00  0.00    +0.247 C 
ATOM      9  O   UNL     1       5.140  -1.742   2.495  0.00  0.00    -0.270 OA
ATOM     10  N   UNL     1       4.507  -1.019   0.441  0.00  0.00    -0.292 N 
ATOM     11  C   UNL     1       3.223  -0.586  -0.129  0.00  0.00    +0.159 C 
ATOM     12  H   UNL     1       0.198  -1.177   4.159  0.00  0.00    +0.151 HD
ENDROOT
BRANCH   4  13
ATOM     13  C   UNL     1       2.341  -2.809   3.771  0.00  0.00    -0.019 A 
ATOM     14  C   UNL     1       1.567  -3.787   3.172  0.00  0.00    +0.006 A 
ATOM     15  C   UNL     1       1.717  -5.111   3.539  0.00  0.00    +0.004 A 
ATOM     16  C   UNL     1       2.640  -5.462   4.505  0.00  0.00    +0.046 A 
ATOM     17  C   UNL     1       3.417  -4.483   5.108  0.00  0.00    +0.129 A 
ATOM     18  C   UNL     1       3.269  -3.155   4.734  0.00  0.00    +0.052 A 
BRANCH  17  19
ATOM     19  O   UNL     1       4.325  -4.825   6.059  0.00  0.00    -0.456 OA
BRANCH  19  20
ATOM     20  C   UNL     1       4.100  -4.412   7.334  0.00  0.00    +0.128 A 
ATOM     21  C   UNL     1       2.909  -3.780   7.660  0.00  0.00    +0.046 A 
ATOM     22  C   UNL     1       2.683  -3.362   8.956  0.00  0.00    +0.004 A 
ATOM     23  C   UNL     1       3.642  -3.571   9.929  0.00  0.00    +0.000 A 
ATOM     24  C   UNL     1       4.831  -4.200   9.607  0.00  0.00    +0.004 A 
ATOM     25  C   UNL     1       5.059  -4.627   8.313  0.00  0.00    +0.046 A 
ENDBRANCH  19  20
ENDBRANCH  17  19
ENDBRANCH   4  13
BRANCH   1  27
ATOM     26  C   UNL     1       0.256   1.572  -0.130  0.00  0.00    +0.025 C 
ATOM     27  C   UNL     1       0.204   0.043  -0.100  0.00  0.00    +0.111 C 
ENDBRANCH   1  27
BRANCH  10  28
ATOM     28  C   UNL     1       5.791  -1.088  -0.262  0.00  0.00    +0.117 C 
BRANCH  28  29
ATOM     29  C   UNL     1       5.951  -2.471  -0.897  0.00  0.00    +0.114 C 
BRANCH  29  30
ATOM     30  C   UNL     1       7.271  -2.542  -1.619  0.00  0.00    +0.215 C 
ATOM     31  O   UNL     1       8.011  -1.581  -1.627  0.00  0.00    -0.276 OA
ATOM     32  N   UNL     1       7.630  -3.674  -2.258  0.00  0.00    -0.313 N 
ATOM     33  H   UNL     1       7.039  -4.442  -2.252  0.00  0.00    +0.149 HD
BRANCH  32  34
ATOM     34  C   UNL     1       8.914  -3.743  -2.961  0.00  0.00    +0.135 C 
BRANCH  34  35
ATOM     35  C   UNL     1       9.074  -5.126  -3.595  0.00  0.00    +0.135 C 
ATOM     36  C   UNL     1      10.442  -5.232  -4.315  0.00  0.00    +0.035 C 
ATOM     37  C   UNL     1      10.670  -6.768  -4.290  0.00  0.00    +0.031 C 
ATOM     38  C   UNL     1      10.028  -7.173  -2.946  0.00  0.00    +0.160 C 
ATOM     39  O   UNL     1       9.103  -6.140  -2.578  0.00  0.00    -0.375 OA
ENDBRANCH  34  35
ENDBRANCH  32  34
ENDBRANCH  29  30
ENDBRANCH  28  29
ENDBRANCH  10  28
TORSDOF 9
