REMARK  Name = ZINC13123085
REMARK  4 active torsions:
REMARK  status: ('A' for Active; 'I' for Inactive)
REMARK    1  A    between atoms: C_1  and  C_2
REMARK    2  A    between atoms: C_2  and  C_8
REMARK    3  A    between atoms: N_3  and  N_4
REMARK    4  A    between atoms: C_13  and  O_14
REMARK                            x       y       z     vdW  Elec       q    Type
REMARK                         _______ _______ _______ _____ _____    ______ ____
ROOT
ATOM      1  C   UNL     1      -0.018   1.503   0.010  0.00  0.00    +0.068 C 
ATOM      2  C   UNL     1       0.002  -0.004   0.002  0.00  0.00    +0.067 C 
ATOM      3  N   UNL     1       0.022  -0.659   1.122  0.00  0.00    -0.183 NA
ENDROOT
BRANCH   2   4
ATOM      4  C   UNL     1      -0.000  -0.734  -1.278  0.00  0.00    +0.042 A 
ATOM      5  C   UNL     1      -0.015  -0.033  -2.486  0.00  0.00    +0.033 A 
ATOM      6  C   UNL     1      -0.017  -0.722  -3.682  0.00  0.00    +0.043 A 
ATOM      7  C   UNL     1      -0.004  -2.107  -3.689  0.00  0.00    +0.043 A 
ATOM      8  C   UNL     1       0.011  -2.812  -2.500  0.00  0.00    +0.084 A 
ATOM      9  C   UNL     1       0.019  -2.135  -1.290  0.00  0.00    +0.144 A 
ATOM     10 CL   UNL     1       0.028  -4.548  -2.521  0.00  0.00    -0.080 Cl
ATOM     11 CL   UNL     1      -0.036   0.150  -5.183  0.00  0.00    -0.083 Cl
BRANCH   9  12
ATOM     12  O   UNL     1       0.039  -2.827  -0.121  0.00  0.00    -0.505 OA
ATOM     13  H   UNL     1      -0.839  -3.039   0.225  0.00  0.00    +0.292 HD
ENDBRANCH   9  12
ENDBRANCH   2   4
BRANCH   3  14
ATOM     14  N   UNL     1       0.024   0.035   2.339  0.00  0.00    -0.191 N 
ATOM     15  C   UNL     1       0.044  -0.645   3.503  0.00  0.00    +0.317 C 
ATOM     16  O   UNL     1       0.046  -0.043   4.559  0.00  0.00    -0.251 OA
ATOM     17  N   UNL     1       0.062  -1.993   3.495  0.00  0.00    -0.312 N 
ATOM     18  H   UNL     1       0.011   1.005   2.345  0.00  0.00    +0.179 HD
ATOM     19  H   UNL     1       0.061  -2.473   2.653  0.00  0.00    +0.147 HD
ATOM     20  H   UNL     1       0.077  -2.482   4.333  0.00  0.00    +0.147 HD
ENDBRANCH   3  14
TORSDOF 3
