REMARK  Name = ZINC39984081
REMARK  6 active torsions:
REMARK  status: ('A' for Active; 'I' for Inactive)
REMARK    1  A    between atoms: C_1  and  S_2
REMARK    2  A    between atoms: S_2  and  C_3
REMARK    3  A    between atoms: C_8  and  C_10
REMARK    4  A    between atoms: C_10  and  S_11
REMARK    5  A    between atoms: S_11  and  C_12
REMARK    6  A    between atoms: C_15  and  N_19
REMARK                            x       y       z     vdW  Elec       q    Type
REMARK                         _______ _______ _______ _____ _____    ______ ____
ROOT
ATOM      1  C   UNL     1       3.893  -2.120  -6.851  0.00  0.00    +0.168 C 
ENDROOT
BRANCH   1   7
ATOM      2  C   UNL     1       0.848  -0.411  -1.489  0.00  0.00    +0.160 A 
ATOM      3  N   UNL     1       1.370   0.380  -2.415  0.00  0.00    -0.133 NA
ATOM      4  N   UNL     1       1.950  -0.081  -3.436  0.00  0.00    -0.125 NA
ATOM      5  C   UNL     1       2.074  -1.381  -3.645  0.00  0.00    +0.189 A 
ATOM      6  N   UNL     1       2.674  -2.065  -4.699  0.00  0.00    -0.263 N 
ATOM      7  C   UNL     1       3.243  -1.380  -5.710  0.00  0.00    +0.229 C 
ATOM      8  O   UNL     1       3.233  -0.167  -5.702  0.00  0.00    -0.275 OA
ATOM      9  S   UNL     1       1.256  -2.011  -2.182  0.00  0.00    -0.024 S 
ATOM     10  H   UNL     1       2.682  -3.035  -4.706  0.00  0.00    +0.157 HD
BRANCH   2  12
ATOM     11  C   UNL     1      -0.022   1.810   0.012  0.00  0.00    +0.092 C 
ATOM     12  S   UNL     1       0.002  -0.004   0.002  0.00  0.00    -0.100 S 
ENDBRANCH   2  12
ENDBRANCH   1   7
BRANCH   1  13
ATOM     13  S   UNL     1       4.562  -0.927  -8.043  0.00  0.00    -0.108 S 
BRANCH  13  14
ATOM     14  C   UNL     1       5.299  -1.965  -9.335  0.00  0.00    +0.254 C 
ATOM     15  N   UNL     1       6.337  -2.854  -8.756  0.00  0.00    -0.278 NA
ATOM     16  C   UNL     1       6.136  -4.094  -9.547  0.00  0.00    +0.138 C 
ATOM     17  N   UNL     1       4.743  -4.023 -10.007  0.00  0.00    -0.191 NA
ATOM     18  N   UNL     1       4.292  -2.877  -9.895  0.00  0.00    -0.163 NA
ATOM     19  H   UNL     1       7.261  -2.476  -8.905  0.00  0.00    +0.125 HD
BRANCH  16  20
ATOM     20  N   UNL     1       6.338  -5.279  -8.701  0.00  0.00    +0.402 N 
ATOM     21  H   UNL     1       5.678  -5.264  -7.939  0.00  0.00    -0.085 HD
ATOM     22  H   UNL     1       6.198  -6.112  -9.252  0.00  0.00    -0.085 HD
ATOM     23  H   UNL     1       7.277  -5.272  -8.333  0.00  0.00    -0.085 HD
ENDBRANCH  16  20
ENDBRANCH  13  14
ENDBRANCH   1  13
TORSDOF 5
