REMARK  Name = ZINC27017997
REMARK  11 active torsions:
REMARK  status: ('A' for Active; 'I' for Inactive)
REMARK    1  A    between atoms: C_1  and  C_2
REMARK    2  A    between atoms: C_3  and  C_32
REMARK    3  A    between atoms: C_4  and  C_10
REMARK    4  A    between atoms: N_12  and  C_26
REMARK    5  A    between atoms: C_14  and  C_15
REMARK    6  A    between atoms: C_18  and  O_24
REMARK    7  A    between atoms: C_19  and  N_21
REMARK    8  A    between atoms: O_24  and  C_25
REMARK    9  A    between atoms: C_32  and  O_34
REMARK   10  A    between atoms: O_34  and  C_35
REMARK   11  A    between atoms: C_35  and  C_36
REMARK                            x       y       z     vdW  Elec       q    Type
REMARK                         _______ _______ _______ _____ _____    ______ ____
ROOT
ATOM      1  C   UNL     1      -2.702  -0.928   0.703  0.00  0.00    +0.023 A 
ATOM      2  C   UNL     1      -3.708  -1.797   0.461  0.00  0.00    +0.121 A 
ATOM      3  N   UNL     1      -3.288  -2.663  -0.498  0.00  0.00    -0.239 N 
ATOM      4  N   UNL     1      -1.982  -2.308  -0.861  0.00  0.00    -0.166 NA
ATOM      5  C   UNL     1      -1.627  -1.263  -0.144  0.00  0.00    +0.098 A 
ENDROOT
BRANCH   1   9
ATOM      6  C   UNL     1      -6.076   0.881   3.487  0.00  0.00    +0.061 C 
ATOM      7  C   UNL     1      -4.642   0.513   3.205  0.00  0.00    +0.021 C 
ATOM      8  C   UNL     1      -4.175   0.581   1.939  0.00  0.00    +0.078 C 
ATOM      9  C   UNL     1      -2.728   0.202   1.700  0.00  0.00    +0.147 C 
ATOM     10  N   UNL     1      -1.943  -0.212   2.876  0.00  0.00    -0.288 N 
ATOM     11  C   UNL     1      -2.551  -0.229   4.078  0.00  0.00    +0.304 C 
ATOM     12  O   UNL     1      -1.912  -0.570   5.055  0.00  0.00    -0.252 OA
ATOM     13  N   UNL     1      -3.835   0.117   4.233  0.00  0.00    -0.273 N 
ATOM     14  H   UNL     1      -0.888  -0.498   2.759  0.00  0.00    +0.151 HD
ATOM     15  H   UNL     1      -4.234   0.069   5.257  0.00  0.00    +0.156 HD
BRANCH   8  16
ATOM     16  C   UNL     1      -5.009   0.992   0.873  0.00  0.00    +0.339 C 
ATOM     17  O   UNL     1      -6.142   1.375   1.100  0.00  0.00    -0.245 OA
BRANCH  16  18
ATOM     18  O   UNL     1      -4.549   0.959  -0.395  0.00  0.00    -0.457 OA
BRANCH  18  19
ATOM     19  C   UNL     1      -5.480   1.279  -1.431  0.00  0.00    +0.259 C 
BRANCH  19  20
ATOM     20  C   UNL     1      -4.827   1.073  -2.774  0.00  0.00    +0.006 C 
ATOM     21  C   UNL     1      -5.454   0.409  -3.712  0.00  0.00    +0.007 C 
ENDBRANCH  19  20
ENDBRANCH  18  19
ENDBRANCH  16  18
ENDBRANCH   8  16
ENDBRANCH   1   9
BRANCH   5  22
ATOM     22  C   UNL     1      -0.320  -0.563  -0.211  0.00  0.00    +0.005 A 
ATOM     23  C   UNL     1      -0.273   0.830  -0.199  0.00  0.00    +0.014 A 
ATOM     24  C   UNL     1       0.943   1.477  -0.261  0.00  0.00    +0.048 A 
ATOM     25  C   UNL     1       2.119   0.743  -0.335  0.00  0.00    +0.150 A 
ATOM     26  C   UNL     1       2.075  -0.644  -0.346  0.00  0.00    +0.168 A 
ATOM     27  C   UNL     1       0.862  -1.298  -0.284  0.00  0.00    +0.046 A 
BRANCH  26  28
ATOM     28  N   UNL     1       3.331  -1.424  -0.425  0.00  0.00    +0.060 N 
ATOM     29  O   UNL     1       3.293  -2.641  -0.435  0.00  0.00    -0.126 OA
ATOM     30  O   UNL     1       4.403  -0.848  -0.479  0.00  0.00    -0.126 OA
ENDBRANCH  26  28
BRANCH  25  31
ATOM     31  O   UNL     1       3.316   1.384  -0.396  0.00  0.00    -0.493 OA
ATOM     32  C   UNL     1       3.289   2.812  -0.380  0.00  0.00    +0.277 C 
ENDBRANCH  25  31
ENDBRANCH   5  22
BRANCH   3  33
ATOM     33  C   UNL     1      -4.030  -3.725  -1.031  0.00  0.00    +0.065 A 
ATOM     34  C   UNL     1      -5.319  -3.971  -0.575  0.00  0.00    +0.028 A 
ATOM     35  C   UNL     1      -6.050  -5.015  -1.106  0.00  0.00    +0.002 A 
ATOM     36  C   UNL     1      -5.497  -5.822  -2.083  0.00  0.00    +0.000 A 
ATOM     37  C   UNL     1      -4.213  -5.583  -2.536  0.00  0.00    +0.002 A 
ATOM     38  C   UNL     1      -3.478  -4.537  -2.012  0.00  0.00    +0.028 A 
ENDBRANCH   3  33
TORSDOF 9
