REMARK  Name = ZINC16725013
REMARK  14 active torsions:
REMARK  status: ('A' for Active; 'I' for Inactive)
REMARK    1  A    between atoms: C_1  and  C_2
REMARK    2  A    between atoms: C_5  and  O_31
REMARK    3  A    between atoms: C_6  and  N_8
REMARK    4  A    between atoms: C_9  and  C_11
REMARK    5  A    between atoms: C_11  and  C_13
REMARK    6  A    between atoms: C_11  and  S_14
REMARK    7  A    between atoms: S_14  and  C_15
REMARK    8  A    between atoms: C_18  and  C_21
REMARK    9  A    between atoms: N_19  and  N_20
REMARK   10  A    between atoms: C_24  and  C_27
REMARK   11  A    between atoms: C_27  and  C_28
REMARK   12  A    between atoms: C_27  and  C_29
REMARK   13  A    between atoms: C_27  and  C_30
REMARK   14  A    between atoms: O_31  and  C_32
REMARK                            x       y       z     vdW  Elec       q    Type
REMARK                         _______ _______ _______ _____ _____    ______ ____
ROOT
ATOM      1  C   UNL     1      -7.566   0.081   0.400  0.00  0.00    +0.209 A 
ATOM      2  N   UNL     1      -7.516   1.329  -0.009  0.00  0.00    -0.121 NA
ATOM      3  N   UNL     1      -8.682   1.864   0.066  0.00  0.00    -0.127 NA
ATOM      4  C   UNL     1      -9.547   0.992   0.528  0.00  0.00    +0.182 A 
ATOM      5  N   UNL     1      -8.860  -0.179   0.751  0.00  0.00    -0.224 N 
ENDROOT
BRANCH   4   6
ATOM      6  C   UNL     1     -10.989   1.222   0.759  0.00  0.00    +0.021 A 
ATOM      7  C   UNL     1     -11.728   0.324   1.531  0.00  0.00    +0.012 A 
ATOM      8  C   UNL     1     -13.072   0.547   1.747  0.00  0.00    +0.005 A 
ATOM      9  C   UNL     1     -13.690   1.654   1.193  0.00  0.00    -0.042 A 
ATOM     10  C   UNL     1     -12.965   2.546   0.422  0.00  0.00    +0.005 A 
ATOM     11  C   UNL     1     -11.619   2.336   0.203  0.00  0.00    +0.012 A 
BRANCH   9  12
ATOM     12  C   UNL     1     -15.160   1.889   1.429  0.00  0.00    -0.013 C 
ATOM     13  C   UNL     1     -15.895   1.904   0.087  0.00  0.00    +0.015 C 
ATOM     14  C   UNL     1     -15.721   0.767   2.305  0.00  0.00    +0.015 C 
ATOM     15  C   UNL     1     -15.355   3.233   2.133  0.00  0.00    +0.015 C 
ENDBRANCH   9  12
ENDBRANCH   4   6
BRANCH   5  16
ATOM     16  N   UNL     1      -9.366  -1.355   1.226  0.00  0.00    -0.295 N 
ATOM     17  H   UNL     1      -9.318  -1.389   2.233  0.00  0.00    +0.163 HD
ATOM     18  H   UNL     1     -10.312  -1.498   0.905  0.00  0.00    +0.163 HD
ENDBRANCH   5  16
BRANCH   1  19
ATOM     19  S   UNL     1      -6.216  -1.049   0.476  0.00  0.00    -0.072 S 
BRANCH  19  20
ATOM     20  C   UNL     1      -4.885   0.010  -0.143  0.00  0.00    +0.137 C 
ATOM     21  C   UNL     1      -5.163   0.378  -1.602  0.00  0.00    +0.029 C 
BRANCH  20  23
ATOM     22  N   UNL     1      -2.418  -0.038   0.037  0.00  0.00    -0.282 N 
ATOM     23  C   UNL     1      -3.573  -0.727  -0.052  0.00  0.00    +0.230 C 
ATOM     24  O   UNL     1      -3.557  -1.940  -0.059  0.00  0.00    -0.274 OA
ATOM     25  H   UNL     1      -2.435   0.928   0.123  0.00  0.00    +0.155 HD
BRANCH  22  31
ATOM     26  C   UNL     1       0.203  -3.978  -1.300  0.00  0.00    +0.044 C 
ATOM     27  C   UNL     1       0.106  -2.628  -0.636  0.00  0.00    -0.048 A 
ATOM     28  C   UNL     1       1.227  -2.064  -0.055  0.00  0.00    +0.007 A 
ATOM     29  C   UNL     1       1.145  -0.826   0.555  0.00  0.00    +0.048 A 
ATOM     30  C   UNL     1      -0.063  -0.147   0.585  0.00  0.00    +0.141 A 
ATOM     31  C   UNL     1      -1.193  -0.718   0.004  0.00  0.00    +0.076 A 
ATOM     32  C   UNL     1      -1.102  -1.958  -0.611  0.00  0.00    +0.030 A 
BRANCH  30  33
ATOM     33  O   UNL     1      -0.145   1.070   1.185  0.00  0.00    -0.493 OA
ATOM     34  C   UNL     1       1.052   1.590   1.765  0.00  0.00    +0.277 C 
ENDBRANCH  30  33
ENDBRANCH  22  31
ENDBRANCH  20  23
ENDBRANCH  19  20
ENDBRANCH   1  19
TORSDOF 8
