REMARK  Name = ZINC06066692
REMARK  8 active torsions:
REMARK  status: ('A' for Active; 'I' for Inactive)
REMARK    1  A    between atoms: C_1  and  C_2
REMARK    2  A    between atoms: C_2  and  C_4
REMARK    3  A    between atoms: C_2  and  S_13
REMARK    4  A    between atoms: N_6  and  C_7
REMARK    5  A    between atoms: C_7  and  C_8
REMARK    6  A    between atoms: S_13  and  C_14
REMARK    7  A    between atoms: N_24  and  C_25
REMARK    8  A    between atoms: C_25  and  C_26
REMARK                            x       y       z     vdW  Elec       q    Type
REMARK                         _______ _______ _______ _____ _____    ______ ____
ROOT
ATOM      1  C   UNL     1      -5.141   0.755   0.658  0.00  0.00    +0.173 A 
ATOM      2  N   UNL     1      -4.900  -0.478   0.288  0.00  0.00    -0.223 NA
ATOM      3  C   UNL     1      -5.864  -1.421   0.301  0.00  0.00    +0.079 A 
ATOM      4  C   UNL     1      -5.606  -2.739  -0.088  0.00  0.00    +0.028 A 
ATOM      5  C   UNL     1      -6.614  -3.660  -0.065  0.00  0.00    +0.002 A 
ATOM      6  C   UNL     1      -7.895  -3.309   0.342  0.00  0.00    +0.001 A 
ATOM      7  C   UNL     1      -8.179  -2.028   0.729  0.00  0.00    +0.015 A 
ATOM      8  C   UNL     1      -7.169  -1.067   0.714  0.00  0.00    +0.065 A 
ATOM      9  C   UNL     1      -7.415   0.324   1.119  0.00  0.00    +0.262 A 
ATOM     10  O   UNL     1      -8.517   0.690   1.484  0.00  0.00    -0.267 OA
ATOM     11  N   UNL     1      -6.371   1.183   1.070  0.00  0.00    -0.285 N 
ENDROOT
BRANCH   1  12
ATOM     12  S   UNL     1      -3.818   1.918   0.614  0.00  0.00    -0.075 S 
BRANCH  12  14
ATOM     13  C   UNL     1      -2.799   0.384  -1.403  0.00  0.00    +0.029 C 
ATOM     14  C   UNL     1      -2.482   0.853   0.018  0.00  0.00    +0.137 C 
BRANCH  14  15
ATOM     15  C   UNL     1      -1.187   1.624   0.017  0.00  0.00    +0.227 C 
ATOM     16  O   UNL     1      -1.204   2.837   0.023  0.00  0.00    -0.275 OA
ATOM     17  N   UNL     1      -0.011   0.966   0.007  0.00  0.00    -0.307 N 
ATOM     18  H   UNL     1       0.002  -0.004   0.002  0.00  0.00    +0.149 HD
BRANCH  17  19
ATOM     19  C   UNL     1       1.248   1.716  -0.001  0.00  0.00    +0.178 C 
BRANCH  19  20
ATOM     20  C   UNL     1       2.406   0.752  -0.017  0.00  0.00    +0.122 A 
ATOM     21  C   UNL     1       2.997   0.251  -1.116  0.00  0.00    +0.046 A 
ATOM     22  C   UNL     1       4.032  -0.603  -0.672  0.00  0.00    +0.041 A 
ATOM     23  C   UNL     1       4.007  -0.579   0.673  0.00  0.00    +0.195 A 
ATOM     24  O   UNL     1       3.020   0.243   1.064  0.00  0.00    -0.466 OA
ENDBRANCH  19  20
ENDBRANCH  17  19
ENDBRANCH  14  15
ENDBRANCH  12  14
ENDBRANCH   1  12
BRANCH  11  25
ATOM     25  C   UNL     1      -6.560   2.582   1.463  0.00  0.00    +0.159 C 
BRANCH  25  26
ATOM     26  C   UNL     1      -6.966   3.405   0.238  0.00  0.00    +0.138 C 
ATOM     27  C   UNL     1      -7.102   4.901   0.617  0.00  0.00    +0.035 C 
ATOM     28  C   UNL     1      -6.862   5.577  -0.760  0.00  0.00    +0.031 C 
ATOM     29  C   UNL     1      -5.831   4.631  -1.413  0.00  0.00    +0.160 C 
ATOM     30  O   UNL     1      -5.930   3.363  -0.756  0.00  0.00    -0.375 OA
ENDBRANCH  25  26
ENDBRANCH  11  25
TORSDOF 7
