REMARK  Name = ZINC00923575
REMARK  11 active torsions:
REMARK  status: ('A' for Active; 'I' for Inactive)
REMARK    1  A    between atoms: C_1  and  C_2
REMARK    2  A    between atoms: C_5  and  N_9
REMARK    3  A    between atoms: C_6  and  C_8
REMARK    4  A    between atoms: N_9  and  C_10
REMARK    5  A    between atoms: C_10  and  C_11
REMARK    6  A    between atoms: C_14  and  S_23
REMARK    7  A    between atoms: N_15  and  C_16
REMARK    8  A    between atoms: C_16  and  C_17
REMARK    9  A    between atoms: S_23  and  C_24
REMARK   10  A    between atoms: C_24  and  C_25
REMARK   11  A    between atoms: N_27  and  C_28
REMARK                            x       y       z     vdW  Elec       q    Type
REMARK                         _______ _______ _______ _____ _____    ______ ____
ROOT
ATOM      1  C   UNL     1       0.080  -6.385  -1.079  0.00  0.00    +0.151 A 
ATOM      2  N   UNL     1       1.140  -7.130  -0.939  0.00  0.00    -0.132 NA
ATOM      3  N   UNL     1       0.798  -8.347  -0.710  0.00  0.00    -0.122 NA
ATOM      4  C   UNL     1      -0.511  -8.446  -0.691  0.00  0.00    +0.192 A 
ATOM      5  N   UNL     1      -1.010  -7.196  -0.921  0.00  0.00    -0.302 N 
ENDROOT
BRANCH   1   6
ATOM      6  C   UNL     1       0.058  -4.904  -1.356  0.00  0.00    +0.178 C 
BRANCH   6   7
ATOM      7  N   UNL     1       0.059  -4.170  -0.089  0.00  0.00    -0.336 N 
ATOM      8  H   UNL     1       0.071  -4.653   0.752  0.00  0.00    +0.147 HD
BRANCH   7  13
ATOM      9  C   UNL     1      -0.017   1.500  -0.098  0.00  0.00    +0.044 C 
ATOM     10  C   UNL     1       0.003  -0.006  -0.096  0.00  0.00    -0.050 A 
ATOM     11  C   UNL     1       0.003  -0.698  -1.293  0.00  0.00    +0.005 A 
ATOM     12  C   UNL     1       0.022  -2.079  -1.294  0.00  0.00    +0.023 A 
ATOM     13  C   UNL     1       0.040  -2.773  -0.091  0.00  0.00    +0.030 A 
ATOM     14  C   UNL     1       0.040  -2.075   1.110  0.00  0.00    -0.029 A 
ATOM     15  C   UNL     1       0.027  -0.694   1.104  0.00  0.00    +0.008 A 
ATOM     16  C   UNL     1       0.060  -2.824   2.417  0.00  0.00    +0.045 C 
ENDBRANCH   7  13
ENDBRANCH   6   7
ENDBRANCH   1   6
BRANCH   5  17
ATOM     17  C   UNL     1      -2.420  -6.805  -0.987  0.00  0.00    +0.157 C 
BRANCH  17  18
ATOM     18  C   UNL     1      -2.918  -6.936  -2.428  0.00  0.00    +0.138 C 
ATOM     19  C   UNL     1      -4.367  -6.412  -2.531  0.00  0.00    +0.035 C 
ATOM     20  C   UNL     1      -5.016  -7.429  -3.509  0.00  0.00    +0.031 C 
ATOM     21  C   UNL     1      -4.269  -8.729  -3.120  0.00  0.00    +0.160 C 
ATOM     22  O   UNL     1      -2.926  -8.315  -2.816  0.00  0.00    -0.375 OA
ENDBRANCH  17  18
ENDBRANCH   5  17
BRANCH   4  23
ATOM     23  S   UNL     1      -1.447  -9.914  -0.415  0.00  0.00    -0.077 S 
BRANCH  23  24
ATOM     24  C   UNL     1      -0.188 -11.197  -0.173  0.00  0.00    +0.173 C 
BRANCH  24  25
ATOM     25  C   UNL     1      -0.863 -12.522   0.076  0.00  0.00    +0.228 C 
ATOM     26  O   UNL     1      -2.074 -12.592   0.089  0.00  0.00    -0.275 OA
ATOM     27  N   UNL     1      -0.121 -13.627   0.284  0.00  0.00    -0.284 N 
ATOM     28  H   UNL     1       0.845 -13.584   0.210  0.00  0.00    +0.155 HD
BRANCH  27  29
ATOM     29  C   UNL     1      -0.745 -14.838   0.609  0.00  0.00    +0.047 A 
ATOM     30  C   UNL     1      -1.981 -15.152   0.061  0.00  0.00    +0.024 A 
ATOM     31  C   UNL     1      -2.594 -16.347   0.383  0.00  0.00    +0.002 A 
ATOM     32  C   UNL     1      -1.978 -17.231   1.250  0.00  0.00    +0.001 A 
ATOM     33  C   UNL     1      -0.747 -16.922   1.798  0.00  0.00    +0.017 A 
ATOM     34  C   UNL     1      -0.125 -15.730   1.475  0.00  0.00    +0.039 A 
ATOM     35 BR   UNL     1       1.562 -15.310   2.219  0.00  0.00    -0.048 Br
ENDBRANCH  27  29
ENDBRANCH  24  25
ENDBRANCH  23  24
ENDBRANCH   4  23
TORSDOF 9
