REMARK  Name = ZINC40982259
REMARK  14 active torsions:
REMARK  status: ('A' for Active; 'I' for Inactive)
REMARK    1  A    between atoms: C_1  and  C_2
REMARK    2  A    between atoms: C_2  and  C_3
REMARK    3  A    between atoms: C_3  and  C_4
REMARK    4  A    between atoms: C_4  and  O_5
REMARK    5  A    between atoms: O_5  and  C_6
REMARK    6  A    between atoms: C_11  and  C_12
REMARK    7  A    between atoms: C_14  and  C_27
REMARK    8  A    between atoms: C_15  and  C_26
REMARK    9  A    between atoms: C_20  and  S_22
REMARK   10  A    between atoms: S_22  and  C_23
REMARK   11  A    between atoms: C_23  and  C_24
REMARK   12  A    between atoms: C_24  and  C_25
REMARK   13  A    between atoms: N_29  and  C_30
REMARK   14  A    between atoms: C_35  and  C_36
REMARK                            x       y       z     vdW  Elec       q    Type
REMARK                         _______ _______ _______ _____ _____    ______ ____
ROOT
ATOM      1  C   UNL     1       2.380  -3.093  -4.312  0.00  0.00    +0.181 C 
ATOM      2  C   UNL     1       2.031  -3.345  -5.755  0.00  0.00    +0.060 C 
ATOM      3  C   UNL     1       2.872  -3.931  -6.619  0.00  0.00    +0.018 C 
ATOM      4  N   UNL     1       4.131  -4.339  -6.253  0.00  0.00    -0.287 N 
ATOM      5  C   UNL     1       4.617  -3.894  -5.031  0.00  0.00    +0.219 A 
ATOM      6  N   UNL     1       3.811  -3.305  -4.113  0.00  0.00    -0.220 N 
ATOM      7  N   UNL     1       4.618  -2.981  -3.023  0.00  0.00    -0.141 NA
ATOM      8  C   UNL     1       5.835  -3.382  -3.320  0.00  0.00    +0.210 A 
ATOM      9  N   UNL     1       5.826  -3.937  -4.542  0.00  0.00    -0.187 NA
ATOM     10  C   UNL     1       2.420  -4.150  -8.040  0.00  0.00    +0.061 C 
ATOM     11  H   UNL     1       4.660  -4.916  -6.826  0.00  0.00    +0.155 HD
ENDROOT
BRANCH   1  17
ATOM     12  C   UNL     1       0.766  -3.546  -2.447  0.00  0.00    +0.126 A 
ATOM     13  C   UNL     1       0.050  -4.422  -1.644  0.00  0.00    +0.046 A 
ATOM     14  C   UNL     1       0.177  -5.785  -1.827  0.00  0.00    +0.004 A 
ATOM     15  C   UNL     1       1.017  -6.277  -2.809  0.00  0.00    +0.001 A 
ATOM     16  C   UNL     1       1.733  -5.406  -3.609  0.00  0.00    +0.009 A 
ATOM     17  C   UNL     1       1.605  -4.041  -3.434  0.00  0.00    +0.023 A 
BRANCH  12  18
ATOM     18  O   UNL     1       0.643  -2.204  -2.269  0.00  0.00    -0.492 OA
BRANCH  18  19
ATOM     19  C   UNL     1      -0.151  -1.766  -1.165  0.00  0.00    +0.229 C 
BRANCH  19  20
ATOM     20  C   UNL     1      -0.213  -0.237  -1.155  0.00  0.00    +0.041 C 
BRANCH  20  22
ATOM     21  C   UNL     1      -1.220   1.757  -0.037  0.00  0.00    +0.004 C 
ATOM     22  C   UNL     1      -1.158   0.228  -0.045  0.00  0.00    -0.000 C 
ENDBRANCH  20  22
ENDBRANCH  19  20
ENDBRANCH  18  19
ENDBRANCH  12  18
ENDBRANCH   1  17
BRANCH   2  23
ATOM     23  C   UNL     1       0.756  -2.944  -6.220  0.00  0.00    +0.248 C 
ATOM     24  O   UNL     1       0.534  -1.769  -6.450  0.00  0.00    -0.270 OA
ATOM     25  N   UNL     1      -0.211  -3.863  -6.408  0.00  0.00    -0.281 N 
ATOM     26  H   UNL     1      -0.058  -4.788  -6.159  0.00  0.00    +0.155 HD
BRANCH  25  27
ATOM     27  C   UNL     1      -1.438  -3.483  -6.963  0.00  0.00    +0.037 A 
ATOM     28  C   UNL     1      -1.542  -2.294  -7.673  0.00  0.00    +0.023 A 
ATOM     29  C   UNL     1      -2.754  -1.922  -8.220  0.00  0.00    +0.002 A 
ATOM     30  C   UNL     1      -3.864  -2.732  -8.061  0.00  0.00    +0.000 A 
ATOM     31  C   UNL     1      -3.763  -3.916  -7.355  0.00  0.00    +0.005 A 
ATOM     32  C   UNL     1      -2.552  -4.297  -6.811  0.00  0.00    -0.029 A 
ATOM     33  C   UNL     1      -2.443  -5.591  -6.046  0.00  0.00    +0.045 C 
ENDBRANCH  25  27
ENDBRANCH   2  23
BRANCH   8  34
ATOM     34  S   UNL     1       7.249  -3.216  -2.282  0.00  0.00    -0.084 S 
BRANCH  34  35
ATOM     35  C   UNL     1       8.594  -3.952  -3.252  0.00  0.00    +0.077 C 
BRANCH  35  36
ATOM     36  C   UNL     1       9.898  -3.873  -2.456  0.00  0.00    +0.008 C 
ATOM     37  C   UNL     1      11.033  -4.494  -3.274  0.00  0.00    +0.004 C 
ENDBRANCH  35  36
ENDBRANCH  34  35
ENDBRANCH   8  34
TORSDOF 10
