REMARK  Name = ZINC13425404
REMARK  6 active torsions:
REMARK  status: ('A' for Active; 'I' for Inactive)
REMARK    1  A    between atoms: C_1  and  C_2
REMARK    2  A    between atoms: C_2  and  C_3
REMARK    3  A    between atoms: C_2  and  C_4
REMARK    4  A    between atoms: C_17  and  C_20
REMARK    5  A    between atoms: C_23  and  S_26
REMARK    6  A    between atoms: S_26  and  N_29
REMARK                            x       y       z     vdW  Elec       q    Type
REMARK                         _______ _______ _______ _____ _____    ______ ____
ROOT
ATOM      1  C   UNL     1      -5.199   3.279   1.989  0.00  0.00    -0.044 A 
ATOM      2  C   UNL     1      -4.922   3.242   3.344  0.00  0.00    +0.006 A 
ATOM      3  C   UNL     1      -3.810   2.602   3.794  0.00  0.00    +0.023 A 
ATOM      4  C   UNL     1      -2.915   2.022   2.903  0.00  0.00    +0.031 A 
ATOM      5  C   UNL     1      -3.188   2.059   1.538  0.00  0.00    -0.019 A 
ATOM      6  C   UNL     1      -4.331   2.686   1.090  0.00  0.00    +0.010 A 
ATOM      7  C   UNL     1      -2.235   1.399   0.620  0.00  0.00    +0.049 C 
ATOM      8  C   UNL     1      -2.087   1.821  -0.796  0.00  0.00    -0.023 C 
ATOM      9  C   UNL     1      -0.827   1.629  -1.167  0.00  0.00    -0.030 C 
ATOM     10  C   UNL     1      -0.013   1.086   0.008  0.00  0.00    +0.033 C 
ATOM     11  C   UNL     1      -0.807   1.618   1.208  0.00  0.00    +0.029 C 
ATOM     12  C   UNL     1      -0.765   0.799   2.486  0.00  0.00    +0.105 C 
ATOM     13  N   UNL     1      -1.745   1.431   3.396  0.00  0.00    -0.336 N 
ATOM     14  H   UNL     1      -1.574   1.437   4.351  0.00  0.00    +0.147 HD
ENDROOT
BRANCH  12  15
ATOM     15  C   UNL     1       0.615   0.848   3.090  0.00  0.00    -0.027 A 
ATOM     16  C   UNL     1       1.007   1.949   3.829  0.00  0.00    +0.007 A 
ATOM     17  C   UNL     1       2.271   1.992   4.388  0.00  0.00    +0.029 A 
ATOM     18  C   UNL     1       3.146   0.939   4.199  0.00  0.00    +0.105 A 
ATOM     19  C   UNL     1       2.756  -0.160   3.457  0.00  0.00    +0.029 A 
ATOM     20  C   UNL     1       1.490  -0.205   2.902  0.00  0.00    +0.007 A 
BRANCH  18  21
ATOM     21  S   UNL     1       4.759   0.997   4.906  0.00  0.00    +0.061 S 
ATOM     22  O   UNL     1       4.686   1.889   6.010  0.00  0.00    -0.153 OA
ATOM     23  O   UNL     1       5.191  -0.350   5.042  0.00  0.00    -0.153 OA
BRANCH  21  24
ATOM     24  N   UNL     1       5.757   1.704   3.791  0.00  0.00    -0.172 NA
ATOM     25  C   UNL     1       6.474   0.893   2.794  0.00  0.00    +0.137 C 
ATOM     26  C   UNL     1       6.220   1.504   1.407  0.00  0.00    +0.177 C 
ATOM     27  O   UNL     1       6.541   2.897   1.441  0.00  0.00    -0.377 OA
ATOM     28  C   UNL     1       5.734   3.661   2.339  0.00  0.00    +0.177 C 
ATOM     29  C   UNL     1       5.959   3.162   3.771  0.00  0.00    +0.137 C 
ENDBRANCH  21  24
ENDBRANCH  18  21
ENDBRANCH  12  15
BRANCH   1  31
ATOM     30  C   UNL     1      -7.676   3.289   2.103  0.00  0.00    +0.012 C 
ATOM     31  C   UNL     1      -6.446   3.964   1.493  0.00  0.00    +0.013 C 
ATOM     32  C   UNL     1      -6.416   5.437   1.904  0.00  0.00    +0.012 C 
ENDBRANCH   1  31
TORSDOF 4
