REMARK  Name = ZINC00180156
REMARK  4 active torsions:
REMARK  status: ('A' for Active; 'I' for Inactive)
REMARK    1  A    between atoms: C_1  and  C_2
REMARK    2  A    between atoms: C_2  and  C_3
REMARK    3  A    between atoms: C_2  and  C_4
REMARK    4  A    between atoms: C_4  and  C_5
REMARK                            x       y       z     vdW  Elec       q    Type
REMARK                         _______ _______ _______ _____ _____    ______ ____
ROOT
ATOM      1  C   UNL     1       0.009   1.071   2.508  0.00  0.00    +0.159 C 
ATOM      2  C   UNL     1      -0.782   1.377   3.764  0.00  0.00    +0.239 C 
ATOM      3  O   UNL     1      -1.891   0.976   4.047  0.00  0.00    -0.273 OA
ATOM      4  N   UNL     1       0.004   2.187   4.501  0.00  0.00    -0.266 N 
ATOM      5  C   UNL     1       1.169   2.433   3.891  0.00  0.00    +0.137 C 
ATOM      6  S   UNL     1       2.399   3.424   4.551  0.00  0.00    -0.018 S 
ATOM      7  N   UNL     1       1.268   1.811   2.698  0.00  0.00    -0.315 N 
ATOM      8  H   UNL     1      -0.244   2.547   5.367  0.00  0.00    +0.157 HD
ATOM      9  H   UNL     1       2.020   1.844   2.086  0.00  0.00    +0.148 HD
ENDROOT
BRANCH   1  10
ATOM     10  C   UNL     1      -0.731   1.578   1.269  0.00  0.00    +0.034 C 
BRANCH  10  12
ATOM     11  C   UNL     1      -0.626   1.786  -1.219  0.00  0.00    +0.007 C 
ATOM     12  C   UNL     1       0.031   1.156   0.011  0.00  0.00    -0.015 C 
ATOM     13  C   UNL     1      -0.001  -0.368  -0.118  0.00  0.00    +0.007 C 
ENDBRANCH  10  12
ENDBRANCH   1  10
TORSDOF 2
