REMARK  Name = ZINC19892403
REMARK  17 active torsions:
REMARK  status: ('A' for Active; 'I' for Inactive)
REMARK    1  A    between atoms: C_1  and  C_2
REMARK    2  A    between atoms: C_2  and  C_3
REMARK    3  A    between atoms: C_3  and  C_4
REMARK    4  A    between atoms: C_4  and  O_5
REMARK    5  A    between atoms: O_5  and  C_6
REMARK    6  A    between atoms: C_6  and  C_8
REMARK    7  A    between atoms: C_9  and  C_41
REMARK    8  A    between atoms: C_13  and  C_15
REMARK    9  A    between atoms: C_17  and  O_23
REMARK   10  A    between atoms: C_20  and  O_21
REMARK   11  A    between atoms: O_21  and  C_22
REMARK   12  A    between atoms: O_23  and  C_24
REMARK   13  A    between atoms: C_28  and  C_31
REMARK   14  A    between atoms: C_34  and  O_39
REMARK   15  A    between atoms: C_35  and  O_37
REMARK   16  A    between atoms: O_37  and  C_38
REMARK   17  A    between atoms: O_39  and  C_40
REMARK                            x       y       z     vdW  Elec       q    Type
REMARK                         _______ _______ _______ _____ _____    ______ ____
ROOT
ATOM      1  C   UNL     1      -4.966   3.117   4.038  0.00  0.00    +0.065 C 
ATOM      2  C   UNL     1      -4.013   3.846   4.645  0.00  0.00    +0.016 C 
ATOM      3  N   UNL     1      -2.994   3.231   5.318  0.00  0.00    -0.321 N 
ATOM      4  C   UNL     1      -3.117   1.932   5.733  0.00  0.00    +0.016 C 
ATOM      5  C   UNL     1      -4.032   1.117   5.168  0.00  0.00    +0.024 C 
ATOM      6  C   UNL     1      -4.938   1.617   4.071  0.00  0.00    +0.096 C 
ATOM      7  C   UNL     1      -4.168  -0.220   5.584  0.00  0.00    +0.162 C 
ATOM      8  O   UNL     1      -5.012  -0.923   5.064  0.00  0.00    -0.292 OA
ATOM      9  C   UNL     1      -3.288  -0.794   6.660  0.00  0.00    +0.088 C 
ATOM     10  C   UNL     1      -1.945  -0.056   6.651  0.00  0.00    +0.032 C 
ATOM     11  C   UNL     1      -2.211   1.440   6.834  0.00  0.00    +0.059 C 
ATOM     12  C   UNL     1      -4.069   5.351   4.585  0.00  0.00    +0.061 C 
ATOM     13  H   UNL     1      -2.065   3.780   5.530  0.00  0.00    +0.152 HD
ENDROOT
BRANCH   6  14
ATOM     14  C   UNL     1      -4.439   1.103   2.745  0.00  0.00    +0.010 A 
ATOM     15  C   UNL     1      -3.179   1.451   2.299  0.00  0.00    +0.053 A 
ATOM     16  C   UNL     1      -2.723   0.983   1.076  0.00  0.00    +0.121 A 
ATOM     17  C   UNL     1      -3.527   0.156   0.306  0.00  0.00    +0.049 A 
ATOM     18  C   UNL     1      -4.785  -0.197   0.754  0.00  0.00    +0.049 A 
ATOM     19  C   UNL     1      -5.244   0.276   1.975  0.00  0.00    +0.124 A 
BRANCH  19  20
ATOM     20  O   UNL     1      -6.482  -0.070   2.417  0.00  0.00    -0.495 OA
ATOM     21  C   UNL     1      -7.256  -0.925   1.573  0.00  0.00    +0.277 C 
ENDBRANCH  19  20
BRANCH  16  22
ATOM     22  O   UNL     1      -1.484   1.330   0.634  0.00  0.00    -0.495 OA
ATOM     23  C   UNL     1      -1.077   0.807  -0.632  0.00  0.00    +0.277 C 
ENDBRANCH  16  22
ENDBRANCH   6  14
BRANCH  10  24
ATOM     24  C   UNL     1      -1.083  -0.559   7.780  0.00  0.00    -0.040 A 
ATOM     25  C   UNL     1      -1.526  -0.453   9.085  0.00  0.00    +0.008 A 
ATOM     26  C   UNL     1      -0.741  -0.918  10.124  0.00  0.00    +0.049 A 
ATOM     27  C   UNL     1       0.497  -1.482   9.859  0.00  0.00    +0.161 A 
ATOM     28  C   UNL     1       0.945  -1.584   8.546  0.00  0.00    +0.162 A 
ATOM     29  C   UNL     1       0.151  -1.121   7.508  0.00  0.00    +0.053 A 
BRANCH  28  30
ATOM     30  O   UNL     1       2.159  -2.136   8.280  0.00  0.00    -0.491 OA
ATOM     31  C   UNL     1       2.553  -2.208   6.909  0.00  0.00    +0.277 C 
ENDBRANCH  28  30
BRANCH  27  32
ATOM     32  O   UNL     1       1.272  -1.935  10.880  0.00  0.00    -0.491 OA
ATOM     33  C   UNL     1       0.748  -1.798  12.203  0.00  0.00    +0.277 C 
ENDBRANCH  27  32
ENDBRANCH  10  24
BRANCH   1  34
ATOM     34  C   UNL     1      -6.015   3.777   3.357  0.00  0.00    +0.338 C 
ATOM     35  O   UNL     1      -6.119   4.987   3.425  0.00  0.00    -0.245 OA
BRANCH  34  36
ATOM     36  O   UNL     1      -6.901   3.064   2.630  0.00  0.00    -0.461 OA
BRANCH  36  37
ATOM     37  C   UNL     1      -7.935   3.795   1.968  0.00  0.00    +0.232 C 
BRANCH  37  38
ATOM     38  C   UNL     1      -8.835   2.825   1.201  0.00  0.00    +0.041 C 
BRANCH  38  40
ATOM     39  C   UNL     1     -10.841   2.637  -0.276  0.00  0.00    +0.004 C 
ATOM     40  C   UNL     1      -9.941   3.607   0.491  0.00  0.00    -0.000 C 
ENDBRANCH  38  40
ENDBRANCH  37  38
ENDBRANCH  36  37
ENDBRANCH  34  36
ENDBRANCH   1  34
TORSDOF 11
