REMARK  Name = ZINC58972035
REMARK  9 active torsions:
REMARK  status: ('A' for Active; 'I' for Inactive)
REMARK    1  A    between atoms: C_1  and  C_2
REMARK    2  A    between atoms: C_5  and  C_35
REMARK    3  A    between atoms: N_8  and  C_10
REMARK    4  A    between atoms: C_10  and  C_11
REMARK    5  A    between atoms: C_11  and  C_12
REMARK    6  A    between atoms: C_12  and  C_13
REMARK    7  A    between atoms: C_13  and  N_14
REMARK    8  A    between atoms: C_15  and  C_17
REMARK    9  A    between atoms: C_23  and  C_25
REMARK                            x       y       z     vdW  Elec       q    Type
REMARK                         _______ _______ _______ _____ _____    ______ ____
ROOT
ATOM      1  N   UNL     1       2.880   0.155   7.313  0.00  0.00    -0.314 N 
ATOM      2  C   UNL     1       2.443   0.581   8.514  0.00  0.00    +0.234 C 
ATOM      3  O   UNL     1       1.552   1.402   8.579  0.00  0.00    -0.274 OA
ATOM      4  H   UNL     1       3.593  -0.502   7.261  0.00  0.00    +0.149 HD
ENDROOT
BRANCH   2   5
ATOM      5  C   UNL     1       3.061   0.038   9.777  0.00  0.00    +0.162 C 
ATOM      6  C   UNL     1       2.831  -1.486   9.860  0.00  0.00    +0.033 C 
ATOM      7  C   UNL     1       2.553  -1.713  11.370  0.00  0.00    +0.021 C 
ATOM      8  C   UNL     1       1.774  -0.427  11.740  0.00  0.00    +0.108 C 
ATOM      9  N   UNL     1       2.415   0.645  10.950  0.00  0.00    -0.289 N 
ATOM     10  C   UNL     1       2.411   1.958  11.253  0.00  0.00    +0.222 C 
ATOM     11  O   UNL     1       3.041   2.739  10.572  0.00  0.00    -0.275 OA
BRANCH  10  12
ATOM     12  C   UNL     1       1.624   2.456  12.438  0.00  0.00    +0.048 C 
ATOM     13  C   UNL     1       2.296   1.985  13.730  0.00  0.00    +0.019 C 
ATOM     14  C   UNL     1       1.497   2.490  14.933  0.00  0.00    -0.009 C 
ATOM     15  C   UNL     1       1.451   4.020  14.909  0.00  0.00    +0.007 C 
ATOM     16  C   UNL     1       0.780   4.490  13.617  0.00  0.00    -0.009 C 
ATOM     17  C   UNL     1       1.579   3.985  12.414  0.00  0.00    +0.019 C 
ATOM     18  C   UNL     1      -0.645   3.936  13.552  0.00  0.00    +0.007 C 
ATOM     19  C   UNL     1      -0.600   2.407  13.576  0.00  0.00    -0.009 C 
ATOM     20  C   UNL     1       0.072   1.937  14.868  0.00  0.00    +0.007 C 
ATOM     21  C   UNL     1       0.199   1.902  12.373  0.00  0.00    +0.019 C 
ENDBRANCH  10  12
ENDBRANCH   2   5
BRANCH   1  22
ATOM     22  C   UNL     1       2.280   0.682   6.085  0.00  0.00    +0.104 C 
BRANCH  22  23
ATOM     23  C   UNL     1       2.952   0.039   4.871  0.00  0.00    +0.017 C 
BRANCH  23  24
ATOM     24  C   UNL     1       2.325   0.591   3.589  0.00  0.00    -0.017 C 
BRANCH  24  25
ATOM     25  C   UNL     1       2.998  -0.052   2.374  0.00  0.00    -0.079 C 
BRANCH  25  31
ATOM     26  C   UNL     1       0.420   2.213  -0.081  0.00  0.00    +0.005 C 
ATOM     27  C   UNL     1       0.333   0.688  -0.162  0.00  0.00    -0.031 C 
ATOM     28  C   UNL     1       1.066   0.200  -1.415  0.00  0.00    +0.003 C 
ATOM     29  C   UNL     1       2.549   0.562  -1.301  0.00  0.00    -0.031 C 
ATOM     30  C   UNL     1       3.120  -0.049  -0.019  0.00  0.00    -0.076 C 
ATOM     31  N   UNL     1       2.396   0.477   1.143  0.00  0.00    +0.380 N 
ATOM     32  C   UNL     1       0.985   0.072   1.077  0.00  0.00    -0.076 C 
ATOM     33  C   UNL     1       3.304   0.011  -2.512  0.00  0.00    +0.005 C 
ATOM     34  H   UNL     1       2.455   1.484   1.148  0.00  0.00    -0.082 HD
ENDBRANCH  25  31
ENDBRANCH  24  25
ENDBRANCH  23  24
ENDBRANCH  22  23
ENDBRANCH   1  22
TORSDOF 7
