REMARK  Name = ZINC12419813
REMARK  9 active torsions:
REMARK  status: ('A' for Active; 'I' for Inactive)
REMARK    1  A    between atoms: C_1  and  C_2
REMARK    2  A    between atoms: C_2  and  C_3
REMARK    3  A    between atoms: C_3  and  C_4
REMARK    4  A    between atoms: C_4  and  C_5
REMARK    5  A    between atoms: C_5  and  C_6
REMARK    6  A    between atoms: C_6  and  N_7
REMARK    7  A    between atoms: C_15  and  C_16
REMARK    8  A    between atoms: N_21  and  C_23
REMARK    9  A    between atoms: C_26  and  C_29
REMARK                            x       y       z     vdW  Elec       q    Type
REMARK                         _______ _______ _______ _____ _____    ______ ____
ROOT
ATOM      1  N   UNL     1       0.216   5.218   0.033  0.00  0.00    -0.327 N 
ATOM      2  C   UNL     1      -0.103   3.875   0.019  0.00  0.00    +0.069 A 
ATOM      3  C   UNL     1      -1.296   3.165   0.028  0.00  0.00    +0.028 A 
ATOM      4  C   UNL     1      -1.270   1.787   0.001  0.00  0.00    +0.002 A 
ATOM      5  C   UNL     1      -0.061   1.107  -0.022  0.00  0.00    +0.002 A 
ATOM      6  C   UNL     1       1.123   1.789  -0.030  0.00  0.00    +0.030 A 
ATOM      7  C   UNL     1       1.121   3.186  -0.010  0.00  0.00    +0.089 A 
ATOM      8  N   UNL     1       2.103   4.124  -0.012  0.00  0.00    -0.232 NA
ATOM      9  C   UNL     1       1.573   5.312   0.014  0.00  0.00    +0.116 A 
ENDROOT
BRANCH   9  10
ATOM     10  C   UNL     1       2.350   6.603   0.021  0.00  0.00    +0.082 C 
ATOM     11  C   UNL     1       3.408   6.607   1.149  0.00  0.00    +0.109 C 
ATOM     12  C   UNL     1       4.592   7.327   0.544  0.00  0.00    +0.221 C 
ATOM     13  O   UNL     1       5.521   7.788   1.174  0.00  0.00    -0.275 OA
ATOM     14  N   UNL     1       4.466   7.384  -0.793  0.00  0.00    -0.271 N 
ATOM     15  C   UNL     1       3.233   6.724  -1.240  0.00  0.00    +0.125 C 
BRANCH  14  16
ATOM     16  C   UNL     1       5.391   7.993  -1.649  0.00  0.00    +0.036 A 
ATOM     17  C   UNL     1       6.464   8.700  -1.123  0.00  0.00    +0.024 A 
ATOM     18  C   UNL     1       7.378   9.296  -1.971  0.00  0.00    +0.005 A 
ATOM     19  C   UNL     1       7.219   9.197  -3.341  0.00  0.00    -0.050 A 
ATOM     20  C   UNL     1       6.148   8.498  -3.867  0.00  0.00    +0.005 A 
ATOM     21  C   UNL     1       5.234   7.896  -3.025  0.00  0.00    +0.024 A 
ATOM     22  C   UNL     1       8.214   9.854  -4.262  0.00  0.00    +0.044 C 
ENDBRANCH  14  16
ENDBRANCH   9  10
BRANCH   1  23
ATOM     23  C   UNL     1      -0.731   6.336   0.064  0.00  0.00    +0.123 C 
BRANCH  23  24
ATOM     24  C   UNL     1      -1.083   6.746  -1.367  0.00  0.00    +0.022 C 
BRANCH  24  25
ATOM     25  C   UNL     1      -2.072   7.913  -1.335  0.00  0.00    +0.002 C 
BRANCH  25  26
ATOM     26  C   UNL     1      -2.424   8.322  -2.766  0.00  0.00    -0.000 C 
BRANCH  26  28
ATOM     27  C   UNL     1      -3.765   9.899  -4.166  0.00  0.00    +0.004 C 
ATOM     28  C   UNL     1      -3.413   9.489  -2.734  0.00  0.00    -0.003 C 
ENDBRANCH  26  28
ENDBRANCH  25  26
ENDBRANCH  24  25
ENDBRANCH  23  24
ENDBRANCH   1  23
TORSDOF 7
