REMARK  Name = ZINC02339285
REMARK  10 active torsions:
REMARK  status: ('A' for Active; 'I' for Inactive)
REMARK    1  A    between atoms: C_1  and  C_2
REMARK    2  A    between atoms: C_2  and  C_3
REMARK    3  A    between atoms: C_6  and  C_9
REMARK    4  A    between atoms: N_10  and  N_11
REMARK    5  A    between atoms: C_12  and  C_14
REMARK    6  A    between atoms: C_14  and  S_15
REMARK    7  A    between atoms: S_15  and  C_16
REMARK    8  A    between atoms: C_19  and  C_23
REMARK    9  A    between atoms: N_20  and  C_21
REMARK   10  A    between atoms: C_21  and  C_22
REMARK                            x       y       z     vdW  Elec       q    Type
REMARK                         _______ _______ _______ _____ _____    ______ ____
ROOT
ATOM      1  C   UNL     1      -1.478  -0.633  -0.104  0.00  0.00    +0.174 C 
ENDROOT
BRANCH   1   3
ATOM      2  N   UNL     1      -0.340   1.562  -0.184  0.00  0.00    -0.206 N 
ATOM      3  C   UNL     1      -0.236   0.218  -0.151  0.00  0.00    +0.242 C 
ATOM      4  O   UNL     1       0.858  -0.305  -0.159  0.00  0.00    -0.273 OA
ATOM      5  H   UNL     1      -1.215   1.980  -0.182  0.00  0.00    +0.177 HD
BRANCH   2   7
ATOM      6  C   UNL     1       0.714   3.647  -0.261  0.00  0.00    +0.138 C 
ATOM      7  N   UNL     1       0.815   2.353  -0.228  0.00  0.00    -0.188 NA
BRANCH   6  11
ATOM      8  C   UNL     1       4.214   6.045  -0.392  0.00  0.00    -0.048 A 
ATOM      9  C   UNL     1       2.967   6.645  -0.384  0.00  0.00    +0.004 A 
ATOM     10  C   UNL     1       1.826   5.872  -0.341  0.00  0.00    +0.010 A 
ATOM     11  C   UNL     1       1.930   4.480  -0.307  0.00  0.00    -0.005 A 
ATOM     12  C   UNL     1       3.192   3.880  -0.310  0.00  0.00    +0.010 A 
ATOM     13  C   UNL     1       4.325   4.666  -0.357  0.00  0.00    +0.004 A 
BRANCH   8  15
ATOM     14  C   UNL     1       5.904   7.222   0.988  0.00  0.00    +0.009 C 
ATOM     15  C   UNL     1       5.456   6.896  -0.438  0.00  0.00    +0.032 C 
ENDBRANCH   8  15
ENDBRANCH   6  11
ENDBRANCH   2   7
ENDBRANCH   1   3
BRANCH   1  16
ATOM     16  S   UNL     1      -1.011  -2.381  -0.067  0.00  0.00    -0.077 S 
BRANCH  16  17
ATOM     17  C   UNL     1      -2.608  -3.124  -0.016  0.00  0.00    +0.192 A 
ATOM     18  N   UNL     1      -3.761  -2.494  -0.004  0.00  0.00    -0.122 NA
ATOM     19  N   UNL     1      -4.727  -3.341   0.032  0.00  0.00    -0.128 NA
ATOM     20  C   UNL     1      -4.250  -4.563   0.055  0.00  0.00    +0.165 A 
ATOM     21  N   UNL     1      -2.878  -4.462   0.025  0.00  0.00    -0.302 N 
BRANCH  20  22
ATOM     22  C   UNL     1      -5.038  -5.813   0.104  0.00  0.00    +0.019 A 
ATOM     23  C   UNL     1      -4.438  -7.004   0.518  0.00  0.00    +0.011 A 
ATOM     24  C   UNL     1      -5.180  -8.166   0.566  0.00  0.00    +0.001 A 
ATOM     25  C   UNL     1      -6.513  -8.155   0.195  0.00  0.00    +0.000 A 
ATOM     26  C   UNL     1      -7.112  -6.979  -0.221  0.00  0.00    +0.001 A 
ATOM     27  C   UNL     1      -6.383  -5.809  -0.268  0.00  0.00    +0.011 A 
ENDBRANCH  20  22
BRANCH  21  28
ATOM     28  C   UNL     1      -1.909  -5.561   0.034  0.00  0.00    +0.122 C 
ATOM     29  C   UNL     1      -1.483  -5.854   1.474  0.00  0.00    +0.027 C 
ENDBRANCH  21  28
ENDBRANCH  16  17
ENDBRANCH   1  16
TORSDOF 8
