REMARK  Name = ZINC50589659
REMARK  8 active torsions:
REMARK  status: ('A' for Active; 'I' for Inactive)
REMARK    1  A    between atoms: C_1  and  C_2
REMARK    2  A    between atoms: C_3  and  C_27
REMARK    3  A    between atoms: C_5  and  C_7
REMARK    4  A    between atoms: C_10  and  N_13
REMARK    5  A    between atoms: C_14  and  C_16
REMARK    6  A    between atoms: C_16  and  N_17
REMARK    7  A    between atoms: N_20  and  C_21
REMARK    8  A    between atoms: C_21  and  C_22
REMARK                            x       y       z     vdW  Elec       q    Type
REMARK                         _______ _______ _______ _____ _____    ______ ____
ROOT
ATOM      1  N   UNL     1       0.110  -6.587   4.041  0.00  0.00    -0.284 N 
ATOM      2  C   UNL     1       0.210  -6.435   5.377  0.00  0.00    +0.234 C 
ATOM      3  O   UNL     1       0.192  -5.325   5.864  0.00  0.00    -0.274 OA
ATOM      4  H   UNL     1       0.057  -7.476   3.657  0.00  0.00    +0.155 HD
ENDROOT
BRANCH   1   8
ATOM      5  C   UNL     1       0.028  -3.237   1.563  0.00  0.00    +0.037 A 
ATOM      6  C   UNL     1       0.661  -4.406   1.138  0.00  0.00    +0.015 A 
ATOM      7  C   UNL     1       0.686  -5.512   1.959  0.00  0.00    +0.024 A 
ATOM      8  C   UNL     1       0.082  -5.464   3.211  0.00  0.00    +0.033 A 
ATOM      9  C   UNL     1      -0.550  -4.301   3.637  0.00  0.00    +0.024 A 
ATOM     10  C   UNL     1      -0.573  -3.190   2.823  0.00  0.00    +0.015 A 
BRANCH   5  15
ATOM     11  C   UNL     1      -0.866   1.361  -0.152  0.00  0.00    +0.069 C 
ATOM     12  C   UNL     1      -0.383  -0.064  -0.066  0.00  0.00    +0.080 A 
ATOM     13  C   UNL     1       0.301  -0.727  -1.015  0.00  0.00    +0.125 A 
ATOM     14  O   UNL     1       0.538  -1.968  -0.544  0.00  0.00    -0.440 OA
ATOM     15  C   UNL     1      -0.001  -2.049   0.684  0.00  0.00    +0.228 A 
ATOM     16  N   UNL     1      -0.553  -0.894   0.975  0.00  0.00    -0.214 NA
ATOM     17  C   UNL     1       0.723  -0.185  -2.356  0.00  0.00    +0.088 C 
ENDBRANCH   5  15
ENDBRANCH   1   8
BRANCH   2  18
ATOM     18  C   UNL     1       0.344  -7.645   6.265  0.00  0.00    +0.202 C 
BRANCH  18  19
ATOM     19  N   UNL     1       0.434  -7.217   7.663  0.00  0.00    -0.291 N 
ATOM     20  C   UNL     1       0.561  -8.135   8.642  0.00  0.00    +0.300 C 
ATOM     21  O   UNL     1       0.599  -9.318   8.365  0.00  0.00    -0.253 OA
ATOM     22  N   UNL     1       0.644  -7.741   9.928  0.00  0.00    -0.299 N 
ATOM     23  H   UNL     1       0.404  -6.273   7.884  0.00  0.00    +0.151 HD
ATOM     24  H   UNL     1       0.614  -6.798  10.149  0.00  0.00    +0.150 HD
BRANCH  22  25
ATOM     25  C   UNL     1       0.782  -8.739  10.992  0.00  0.00    +0.109 C 
BRANCH  25  26
ATOM     26  C   UNL     1       0.855  -8.033  12.347  0.00  0.00    +0.006 C 
ATOM     27  C   UNL     1       2.171  -7.236  12.457  0.00  0.00    +0.005 C 
ATOM     28  C   UNL     1       2.593  -7.402  13.938  0.00  0.00    +0.000 C 
ATOM     29  C   UNL     1       2.200  -8.869  14.243  0.00  0.00    +0.000 C 
ATOM     30  C   UNL     1       0.874  -9.071  13.483  0.00  0.00    +0.005 C 
ENDBRANCH  25  26
ENDBRANCH  22  25
ENDBRANCH  18  19
ENDBRANCH   2  18
TORSDOF 6
