REMARK  Name = ZINC08937032
REMARK  8 active torsions:
REMARK  status: ('A' for Active; 'I' for Inactive)
REMARK    1  A    between atoms: C_1  and  C_2
REMARK    2  A    between atoms: C_2  and  C_29
REMARK    3  A    between atoms: N_5  and  N_9
REMARK    4  A    between atoms: C_10  and  C_12
REMARK    5  A    between atoms: C_12  and  N_66
REMARK    6  A    between atoms: C_15  and  N_18
REMARK    7  A    between atoms: C_29  and  C_30
REMARK    8  A    between atoms: C_30  and  C_31
REMARK                            x       y       z     vdW  Elec       q    Type
REMARK                         _______ _______ _______ _____ _____    ______ ____
ROOT
ATOM      1  N   UNL     1      -6.074  -6.348  -1.468  0.00  0.00    -0.225 N 
ATOM      2  C   UNL     1      -5.329  -5.241  -1.281  0.00  0.00    +0.213 C 
ATOM      3  O   UNL     1      -5.245  -4.411  -2.161  0.00  0.00    -0.276 OA
ATOM      4  H   UNL     1      -6.141  -7.012  -0.763  0.00  0.00    +0.173 HD
ENDROOT
BRANCH   1   9
ATOM      5  C   UNL     1      -6.714  -6.801  -6.039  0.00  0.00    +0.041 C 
ATOM      6  C   UNL     1      -7.382  -7.277  -4.747  0.00  0.00    +0.112 C 
ATOM      7  C   UNL     1      -6.361  -7.407  -3.635  0.00  0.00    +0.263 C 
ATOM      8  O   UNL     1      -5.394  -8.138  -3.611  0.00  0.00    -0.271 OA
ATOM      9  N   UNL     1      -6.751  -6.541  -2.679  0.00  0.00    -0.137 N 
ATOM     10  C   UNL     1      -7.868  -5.893  -3.026  0.00  0.00    +0.326 C 
ATOM     11  O   UNL     1      -8.415  -5.064  -2.325  0.00  0.00    -0.251 OA
ATOM     12  N   UNL     1      -8.317  -6.258  -4.241  0.00  0.00    -0.284 N 
ATOM     13  H   UNL     1      -9.105  -5.918  -4.694  0.00  0.00    +0.151 HD
BRANCH   6  14
ATOM     14  C   UNL     1      -8.105  -8.607  -4.972  0.00  0.00    +0.040 C 
BRANCH  14  15
ATOM     15  C   UNL     1      -9.129  -8.446  -6.098  0.00  0.00    +0.038 C 
BRANCH  15  16
ATOM     16  C   UNL     1      -9.841  -9.756  -6.319  0.00  0.00    -0.047 A 
ATOM     17  C   UNL     1      -9.339 -10.671  -7.226  0.00  0.00    +0.003 A 
ATOM     18  C   UNL     1      -9.990 -11.874  -7.426  0.00  0.00    +0.000 A 
ATOM     19  C   UNL     1     -11.148 -12.158  -6.726  0.00  0.00    +0.000 A 
ATOM     20  C   UNL     1     -11.652 -11.241  -5.823  0.00  0.00    +0.000 A 
ATOM     21  C   UNL     1     -10.999 -10.040  -5.620  0.00  0.00    +0.003 A 
ENDBRANCH  15  16
ENDBRANCH  14  15
ENDBRANCH   6  14
ENDBRANCH   1   9
BRANCH   2  22
ATOM     22  C   UNL     1      -4.601  -5.033   0.022  0.00  0.00    +0.020 C 
BRANCH  22  28
ATOM     23  C   UNL     1      -5.019  -2.649   0.047  0.00  0.00    -0.076 C 
ATOM     24  C   UNL     1      -4.354  -1.278  -0.087  0.00  0.00    +0.006 C 
ATOM     25  C   UNL     1      -3.377  -1.074   1.075  0.00  0.00    +0.089 C 
ATOM     26  C   UNL     1      -2.345  -2.205   1.069  0.00  0.00    +0.006 C 
ATOM     27  C   UNL     1      -3.069  -3.550   1.168  0.00  0.00    -0.076 C 
ATOM     28  N   UNL     1      -3.975  -3.695   0.009  0.00  0.00    +0.386 N 
ATOM     29  H   UNL     1      -3.430  -3.590  -0.855  0.00  0.00    -0.081 HD
BRANCH  25  30
ATOM     30  N   UNL     1      -2.694   0.213   0.920  0.00  0.00    -0.289 N 
ATOM     31  C   UNL     1      -2.729   1.268   1.828  0.00  0.00    +0.070 A 
ATOM     32  C   UNL     1      -3.351   1.449   3.054  0.00  0.00    +0.028 A 
ATOM     33  C   UNL     1      -3.195   2.640   3.736  0.00  0.00    +0.002 A 
ATOM     34  C   UNL     1      -2.419   3.654   3.201  0.00  0.00    +0.002 A 
ATOM     35  C   UNL     1      -1.796   3.483   1.980  0.00  0.00    +0.028 A 
ATOM     36  C   UNL     1      -1.947   2.291   1.288  0.00  0.00    +0.067 A 
ATOM     37  N   UNL     1      -1.466   1.828   0.067  0.00  0.00    -0.306 N 
ATOM     38  H   UNL     1      -0.891   2.320  -0.541  0.00  0.00    +0.170 HD
ATOM     39  C   UNL     1      -1.926   0.577  -0.124  0.00  0.00    +0.328 A 
ATOM     40  O   UNL     1      -1.688  -0.117  -1.094  0.00  0.00    -0.247 OA
ENDBRANCH  25  30
ENDBRANCH  22  28
ENDBRANCH   2  22
TORSDOF 7
