REMARK  Name = ZINC39943603
REMARK  5 active torsions:
REMARK  status: ('A' for Active; 'I' for Inactive)
REMARK    1  A    between atoms: C_8  and  C_11
REMARK    2  A    between atoms: C_14  and  C_16
REMARK    3  A    between atoms: N_18  and  N_19
REMARK    4  A    between atoms: C_20  and  C_21
REMARK    5  A    between atoms: C_24  and  C_27
REMARK                            x       y       z     vdW  Elec       q    Type
REMARK                         _______ _______ _______ _____ _____    ______ ____
ROOT
ATOM      1  C   UNL     1       0.239  -3.006  -0.018  0.00  0.00    +0.077 C 
ATOM      2  N   UNL     1      -1.032  -2.668  -0.010  0.00  0.00    -0.153 NA
ATOM      3  N   UNL     1      -1.836  -3.659  -0.007  0.00  0.00    -0.148 NA
ATOM      4  C   UNL     1      -1.251  -4.830  -0.013  0.00  0.00    +0.132 C 
ATOM      5  C   UNL     1       0.238  -4.526  -0.027  0.00  0.00    +0.120 C 
ENDROOT
BRANCH   1  13
ATOM      6  C   UNL     1      -0.017   1.364   0.009  0.00  0.00    +0.001 A 
ATOM      7  C   UNL     1       1.154   2.123   0.002  0.00  0.00    +0.004 A 
ATOM      8  C   UNL     1       2.371   1.512  -0.013  0.00  0.00    -0.039 A 
ATOM      9  C   UNL     1       2.403   0.121  -0.020  0.00  0.00    -0.011 A 
ATOM     10  C   UNL     1       3.681  -0.431  -0.035  0.00  0.00    -0.039 A 
ATOM     11  C   UNL     1       3.812  -1.790  -0.044  0.00  0.00    +0.005 A 
ATOM     12  C   UNL     1       2.702  -2.623  -0.038  0.00  0.00    +0.010 A 
ATOM     13  C   UNL     1       1.398  -2.115  -0.023  0.00  0.00    +0.006 A 
ATOM     14  C   UNL     1       1.236  -0.660  -0.013  0.00  0.00    -0.008 A 
ATOM     15  C   UNL     1       0.002  -0.004   0.002  0.00  0.00    +0.009 A 
ATOM     16  C   UNL     1       4.665   0.717  -0.039  0.00  0.00    +0.040 C 
ATOM     17  C   UNL     1       3.801   1.996  -0.025  0.00  0.00    +0.040 C 
ENDBRANCH   1  13
BRANCH   4  18
ATOM     18  C   UNL     1      -1.892  -6.146  -0.012  0.00  0.00    +0.280 C 
ATOM     19  O   UNL     1      -1.211  -7.155  -0.017  0.00  0.00    -0.267 OA
ATOM     20  N   UNL     1      -3.236  -6.241  -0.004  0.00  0.00    -0.202 N 
ATOM     21  H   UNL     1      -3.779  -5.437   0.000  0.00  0.00    +0.178 HD
BRANCH  20  22
ATOM     22  N   UNL     1      -3.850  -7.500  -0.003  0.00  0.00    -0.187 NA
ATOM     23  C   UNL     1      -5.146  -7.592   0.004  0.00  0.00    +0.138 C 
BRANCH  23  24
ATOM     24  C   UNL     1      -5.791  -8.915   0.005  0.00  0.00    -0.005 A 
ATOM     25  C   UNL     1      -5.008 -10.075   0.005  0.00  0.00    +0.010 A 
ATOM     26  C   UNL     1      -5.606 -11.303   0.006  0.00  0.00    +0.016 A 
ATOM     27  C   UNL     1      -7.002 -11.401   0.008  0.00  0.00    +0.063 A 
ATOM     28  C   UNL     1      -7.785 -10.241   0.009  0.00  0.00    +0.016 A 
ATOM     29  C   UNL     1      -7.187  -9.014   0.013  0.00  0.00    +0.010 A 
BRANCH  27  30
ATOM     30  C   UNL     1      -7.647 -12.725   0.009  0.00  0.00    +0.387 C 
ATOM     31  O   UNL     1      -6.962 -13.739   0.008  0.00  0.00    -0.241 OA
ATOM     32  O   UNL     1      -8.867 -12.811   0.011  0.00  0.00    -0.241 OA
ENDBRANCH  27  30
ENDBRANCH  23  24
ENDBRANCH  20  22
ENDBRANCH   4  18
TORSDOF 5
