REMARK  Name = ZINC35089826
REMARK  12 active torsions:
REMARK  status: ('A' for Active; 'I' for Inactive)
REMARK    1  A    between atoms: C_1  and  C_2
REMARK    2  A    between atoms: C_2  and  C_3
REMARK    3  A    between atoms: C_8  and  N_9
REMARK    4  A    between atoms: C_19  and  C_20
REMARK    5  A    between atoms: C_20  and  C_22
REMARK    6  A    between atoms: C_20  and  N_23
REMARK    7  A    between atoms: N_23  and  C_24
REMARK    8  A    between atoms: C_24  and  C_25
REMARK    9  A    between atoms: C_25  and  N_26
REMARK   10  A    between atoms: N_26  and  C_27
REMARK   11  A    between atoms: N_26  and  C_28
REMARK   12  A    between atoms: C_29  and  C_31
REMARK                            x       y       z     vdW  Elec       q    Type
REMARK                         _______ _______ _______ _____ _____    ______ ____
ROOT
ATOM      1  C   UNL     1      -0.499   1.663   2.992  0.00  0.00    +0.140 C 
ATOM      2  C   UNL     1       0.569   1.229   3.999  0.00  0.00    +0.036 C 
ENDROOT
BRANCH   1  13
ATOM      3  N   UNL     1      -1.349  -0.517   2.223  0.00  0.00    -0.263 N 
ATOM      4  C   UNL     1      -2.291  -1.486   2.142  0.00  0.00    +0.266 A 
ATOM      5  O   UNL     1      -2.092  -2.510   1.516  0.00  0.00    -0.267 OA
ATOM      6  C   UNL     1      -3.564  -1.252   2.841  0.00  0.00    +0.065 A 
ATOM      7  C   UNL     1      -4.597  -2.187   2.820  0.00  0.00    +0.015 A 
ATOM      8  C   UNL     1      -5.769  -1.917   3.492  0.00  0.00    +0.001 A 
ATOM      9  C   UNL     1      -5.927  -0.725   4.187  0.00  0.00    +0.002 A 
ATOM     10  C   UNL     1      -4.918   0.211   4.219  0.00  0.00    +0.028 A 
ATOM     11  C   UNL     1      -3.720  -0.039   3.546  0.00  0.00    +0.078 A 
ATOM     12  N   UNL     1      -2.701   0.856   3.553  0.00  0.00    -0.231 NA
ATOM     13  C   UNL     1      -1.585   0.621   2.931  0.00  0.00    +0.138 A 
BRANCH   3  19
ATOM     14  C   UNL     1       0.024  -0.325   0.244  0.00  0.00    -0.024 A 
ATOM     15  C   UNL     1       1.240  -0.492  -0.390  0.00  0.00    +0.005 A 
ATOM     16  C   UNL     1       2.313  -1.026   0.300  0.00  0.00    +0.000 A 
ATOM     17  C   UNL     1       2.172  -1.394   1.626  0.00  0.00    +0.002 A 
ATOM     18  C   UNL     1       0.959  -1.230   2.264  0.00  0.00    +0.026 A 
ATOM     19  C   UNL     1      -0.119  -0.689   1.576  0.00  0.00    +0.054 A 
BRANCH  14  21
ATOM     20  C   UNL     1      -1.191   1.770  -0.288  0.00  0.00    +0.009 C 
ATOM     21  C   UNL     1      -1.145   0.256  -0.508  0.00  0.00    +0.034 C 
ENDBRANCH  14  21
ENDBRANCH   3  19
ENDBRANCH   1  13
BRANCH   1  22
ATOM     22  N   UNL     1      -1.074   2.944   3.412  0.00  0.00    -0.289 N 
ATOM     23  C   UNL     1      -0.986   4.019   2.605  0.00  0.00    +0.248 C 
ATOM     24  O   UNL     1      -0.500   3.909   1.496  0.00  0.00    -0.270 OA
BRANCH  23  25
ATOM     25  C   UNL     1      -1.478   5.330   3.067  0.00  0.00    +0.045 A 
ATOM     26  C   UNL     1      -2.802   5.487   3.450  0.00  0.00    +0.014 A 
ATOM     27  C   UNL     1      -3.272   6.720   3.886  0.00  0.00    +0.001 A 
ATOM     28  C   UNL     1      -2.450   7.805   3.950  0.00  0.00    +0.008 A 
ATOM     29  C   UNL     1      -1.101   7.692   3.572  0.00  0.00    -0.017 A 
ATOM     30  C   UNL     1      -0.602   6.443   3.130  0.00  0.00    -0.006 A 
ATOM     31  C   UNL     1       0.744   6.330   2.758  0.00  0.00    +0.009 A 
ATOM     32  C   UNL     1       1.558   7.421   2.831  0.00  0.00    +0.001 A 
ATOM     33  C   UNL     1       1.071   8.650   3.271  0.00  0.00    +0.001 A 
ATOM     34  C   UNL     1      -0.235   8.798   3.628  0.00  0.00    +0.008 A 
ENDBRANCH  23  25
BRANCH  22  35
ATOM     35  C   UNL     1      -1.745   3.055   4.710  0.00  0.00    +0.090 C 
BRANCH  35  36
ATOM     36  C   UNL     1      -0.761   3.599   5.748  0.00  0.00    -0.060 C 
BRANCH  36  37
ATOM     37  N   UNL     1      -1.434   3.711   7.049  0.00  0.00    +0.377 N 
ATOM     38  C   UNL     1      -1.800   2.371   7.527  0.00  0.00    -0.097 C 
ATOM     39  C   UNL     1      -0.527   4.345   8.016  0.00  0.00    -0.097 C 
ATOM     40  H   UNL     1      -2.266   4.272   6.950  0.00  0.00    -0.083 HD
ENDBRANCH  36  37
ENDBRANCH  35  36
ENDBRANCH  22  35
ENDBRANCH   1  22
TORSDOF 8
