REMARK  Name = ZINC18050528
REMARK  6 active torsions:
REMARK  status: ('A' for Active; 'I' for Inactive)
REMARK    1  A    between atoms: C_1  and  C_2
REMARK    2  A    between atoms: C_2  and  C_4
REMARK    3  A    between atoms: C_2  and  O_21
REMARK    4  A    between atoms: N_6  and  N_7
REMARK    5  A    between atoms: C_8  and  C_10
REMARK    6  A    between atoms: O_21  and  C_22
REMARK                            x       y       z     vdW  Elec       q    Type
REMARK                         _______ _______ _______ _____ _____    ______ ____
ROOT
ATOM      1  C   UNL     1       7.229   0.279  -0.237  0.00  0.00    +0.270 C 
ATOM      2  O   UNL     1       7.278   1.473  -0.031  0.00  0.00    -0.270 OA
ATOM      3  N   UNL     1       6.037  -0.329  -0.395  0.00  0.00    -0.231 N 
ATOM      4  H   UNL     1       5.997  -1.284  -0.560  0.00  0.00    +0.173 HD
ENDROOT
BRANCH   3   5
ATOM      5  N   UNL     1       4.854   0.418  -0.321  0.00  0.00    -0.230 N 
ATOM      6  C   UNL     1       3.661  -0.190  -0.479  0.00  0.00    +0.260 C 
ATOM      7  O   UNL     1       3.612  -1.387  -0.686  0.00  0.00    -0.269 OA
ATOM      8  H   UNL     1       4.893   1.373  -0.156  0.00  0.00    +0.173 HD
BRANCH   6   9
ATOM      9  C   UNL     1       2.417   0.597  -0.400  0.00  0.00    +0.040 A 
ATOM     10  C   UNL     1       2.475   1.974  -0.163  0.00  0.00    +0.014 A 
ATOM     11  C   UNL     1       1.311   2.706  -0.092  0.00  0.00    +0.017 A 
ATOM     12  C   UNL     1       0.083   2.079  -0.257  0.00  0.00    +0.030 A 
ATOM     13  C   UNL     1       0.009   0.701  -0.491  0.00  0.00    +0.048 A 
ATOM     14  C   UNL     1       1.182  -0.034  -0.564  0.00  0.00    +0.037 A 
ATOM     15  N   UNL     1      -1.214   0.054  -0.647  0.00  0.00    -0.284 N 
ATOM     16  C   UNL     1      -2.364   0.620  -1.003  0.00  0.00    +0.227 C 
ATOM     17  O   UNL     1      -3.343  -0.089  -1.106  0.00  0.00    -0.275 OA
ATOM     18  C   UNL     1      -2.517   2.089  -1.285  0.00  0.00    +0.170 C 
ATOM     19  S   UNL     1      -1.411   3.016  -0.180  0.00  0.00    -0.114 S 
ATOM     20  H   UNL     1      -1.228  -0.902  -0.481  0.00  0.00    +0.155 HD
ENDBRANCH   6   9
ENDBRANCH   3   5
BRANCH   1  22
ATOM     21  C   UNL     1       8.491  -1.606   0.766  0.00  0.00    +0.062 C 
ATOM     22  C   UNL     1       8.501  -0.525  -0.317  0.00  0.00    +0.257 C 
BRANCH  22  23
ATOM     23  O   UNL     1       9.623   0.337  -0.119  0.00  0.00    -0.480 OA
BRANCH  23  24
ATOM     24  C   UNL     1      10.809  -0.062  -0.650  0.00  0.00    +0.122 A 
ATOM     25  C   UNL     1      10.908  -1.321  -1.250  0.00  0.00    +0.046 A 
ATOM     26  C   UNL     1      12.081  -1.748  -1.790  0.00  0.00    +0.012 A 
ATOM     27  C   UNL     1      13.213  -0.915  -1.745  0.00  0.00    -0.018 A 
ATOM     28  C   UNL     1      14.440  -1.324  -2.293  0.00  0.00    +0.008 A 
ATOM     29  C   UNL     1      15.516  -0.492  -2.234  0.00  0.00    +0.001 A 
ATOM     30  C   UNL     1      15.419   0.763  -1.636  0.00  0.00    +0.001 A 
ATOM     31  C   UNL     1      14.247   1.193  -1.094  0.00  0.00    +0.008 A 
ATOM     32  C   UNL     1      13.115   0.362  -1.137  0.00  0.00    -0.014 A 
ATOM     33  C   UNL     1      11.887   0.775  -0.594  0.00  0.00    +0.054 A 
ENDBRANCH  23  24
ENDBRANCH  22  23
ENDBRANCH   1  22
TORSDOF 5
