REMARK  Name = ZINC11907886
REMARK  8 active torsions:
REMARK  status: ('A' for Active; 'I' for Inactive)
REMARK    1  A    between atoms: C_1  and  C_2
REMARK    2  A    between atoms: C_5  and  C_28
REMARK    3  A    between atoms: C_6  and  N_8
REMARK    4  A    between atoms: C_9  and  C_11
REMARK    5  A    between atoms: C_11  and  S_12
REMARK    6  A    between atoms: S_12  and  C_13
REMARK    7  A    between atoms: C_19  and  C_27
REMARK    8  A    between atoms: C_24  and  C_26
REMARK                            x       y       z     vdW  Elec       q    Type
REMARK                         _______ _______ _______ _____ _____    ______ ____
ROOT
ATOM      1  C   UNL     1       0.955   0.849   2.929  0.00  0.00    +0.197 A 
ATOM      2  N   UNL     1       0.606   0.960   4.197  0.00  0.00    -0.122 NA
ATOM      3  N   UNL     1      -0.058  -0.076   4.557  0.00  0.00    -0.129 NA
ATOM      4  C   UNL     1      -0.084  -0.939   3.559  0.00  0.00    +0.162 A 
ATOM      5  N   UNL     1       0.309  -0.241   2.429  0.00  0.00    -0.270 N 
ATOM      6  C   UNL     1       0.049  -0.773   1.178  0.00  0.00    +0.061 A 
ATOM      7  C   UNL     1       0.018  -0.025   0.015  0.00  0.00    -0.026 A 
ATOM      8  C   UNL     1       0.055  -0.656  -1.218  0.00  0.00    +0.005 A 
ATOM      9  C   UNL     1       0.041  -2.036  -1.311  0.00  0.00    +0.001 A 
ATOM     10  C   UNL     1      -0.075  -2.799  -0.169  0.00  0.00    +0.010 A 
ATOM     11  C   UNL     1      -0.129  -2.174   1.077  0.00  0.00    +0.002 A 
ATOM     12  C   UNL     1      -0.443  -2.937   2.288  0.00  0.00    -0.038 A 
ATOM     13  C   UNL     1      -0.460  -2.296   3.479  0.00  0.00    +0.052 A 
ATOM     14  C   UNL     1      -0.735  -4.414   2.230  0.00  0.00    +0.044 C 
ATOM     15  C   UNL     1      -0.012   1.481   0.025  0.00  0.00    +0.046 C 
ENDROOT
BRANCH   1  16
ATOM     16  S   UNL     1       2.044   1.949   2.087  0.00  0.00    -0.076 S 
BRANCH  16  17
ATOM     17  C   UNL     1       2.429   3.100   3.430  0.00  0.00    +0.173 C 
BRANCH  17  19
ATOM     18  N   UNL     1       3.801   5.131   3.759  0.00  0.00    -0.285 N 
ATOM     19  C   UNL     1       3.374   4.160   2.927  0.00  0.00    +0.227 C 
ATOM     20  O   UNL     1       3.751   4.140   1.775  0.00  0.00    -0.275 OA
ATOM     21  H   UNL     1       3.439   5.195   4.656  0.00  0.00    +0.155 HD
BRANCH  18  27
ATOM     22  C   UNL     1       7.548   6.240   0.776  0.00  0.00    +0.044 C 
ATOM     23  C   UNL     1       6.596   6.611   1.883  0.00  0.00    -0.049 A 
ATOM     24  C   UNL     1       6.676   7.859   2.474  0.00  0.00    +0.004 A 
ATOM     25  C   UNL     1       5.804   8.203   3.490  0.00  0.00    +0.005 A 
ATOM     26  C   UNL     1       4.850   7.301   3.919  0.00  0.00    -0.029 A 
ATOM     27  C   UNL     1       4.766   6.047   3.327  0.00  0.00    +0.037 A 
ATOM     28  C   UNL     1       5.647   5.703   2.310  0.00  0.00    +0.027 A 
ATOM     29  C   UNL     1       3.900   7.677   5.026  0.00  0.00    +0.045 C 
ENDBRANCH  18  27
ENDBRANCH  17  19
ENDBRANCH  16  17
ENDBRANCH   1  16
TORSDOF 4
