REMARK  Name = ZINC39984955
REMARK  13 active torsions:
REMARK  status: ('A' for Active; 'I' for Inactive)
REMARK    1  A    between atoms: C_1  and  C_2
REMARK    2  A    between atoms: C_3  and  C_34
REMARK    3  A    between atoms: C_4  and  C_11
REMARK    4  A    between atoms: C_7  and  C_8
REMARK    5  A    between atoms: C_8  and  C_10
REMARK    6  A    between atoms: C_11  and  C_12
REMARK    7  A    between atoms: N_14  and  C_15
REMARK    8  A    between atoms: C_18  and  S_21
REMARK    9  A    between atoms: S_21  and  N_24
REMARK   10  A    between atoms: C_25  and  C_33
REMARK   11  A    between atoms: C_30  and  C_32
REMARK   12  A    between atoms: C_34  and  O_36
REMARK   13  A    between atoms: O_36  and  C_37
REMARK                            x       y       z     vdW  Elec       q    Type
REMARK                         _______ _______ _______ _____ _____    ______ ____
ROOT
ATOM      1  C   UNL     1       0.700  -6.153  -2.672  0.00  0.00    +0.223 C 
ATOM      2  O   UNL     1       1.105  -7.265  -2.935  0.00  0.00    -0.275 OA
ATOM      3  N   UNL     1       1.542  -5.101  -2.716  0.00  0.00    -0.285 N 
ATOM      4  H   UNL     1       1.203  -4.203  -2.577  0.00  0.00    +0.155 HD
ENDROOT
BRANCH   3   5
ATOM      5  C   UNL     1       2.904  -5.305  -2.962  0.00  0.00    +0.034 A 
ATOM      6  C   UNL     1       3.852  -4.506  -2.335  0.00  0.00    +0.025 A 
ATOM      7  C   UNL     1       5.196  -4.710  -2.579  0.00  0.00    +0.030 A 
ATOM      8  C   UNL     1       5.598  -5.709  -3.447  0.00  0.00    +0.106 A 
ATOM      9  C   UNL     1       4.657  -6.506  -4.073  0.00  0.00    +0.030 A 
ATOM     10  C   UNL     1       3.312  -6.311  -3.828  0.00  0.00    +0.025 A 
BRANCH   8  11
ATOM     11  S   UNL     1       7.314  -5.966  -3.756  0.00  0.00    +0.061 S 
ATOM     12  O   UNL     1       7.407  -6.602  -5.024  0.00  0.00    -0.153 OA
ATOM     13  O   UNL     1       7.966  -4.736  -3.472  0.00  0.00    -0.153 OA
BRANCH  11  14
ATOM     14  N   UNL     1       7.855  -7.059  -2.636  0.00  0.00    -0.171 NA
ATOM     15  C   UNL     1       8.378  -6.606  -1.340  0.00  0.00    +0.077 C 
ATOM     16  C   UNL     1       9.771  -7.208  -1.134  0.00  0.00    +0.020 C 
ATOM     17  C   UNL     1       9.694  -8.729  -1.284  0.00  0.00    +0.003 C 
ATOM     18  C   UNL     1       9.220  -9.081  -2.696  0.00  0.00    +0.020 C 
ATOM     19  C   UNL     1       7.815  -8.501  -2.918  0.00  0.00    +0.077 C 
ATOM     20  C   UNL     1       7.387  -8.728  -4.369  0.00  0.00    +0.026 C 
ATOM     21  C   UNL     1       8.468  -5.079  -1.329  0.00  0.00    +0.026 C 
ENDBRANCH  11  14
ENDBRANCH   8  11
ENDBRANCH   3   5
BRANCH   1  22
ATOM     22  C   UNL     1      -0.745  -5.946  -2.297  0.00  0.00    +0.150 C 
BRANCH  22  26
ATOM     23  C   UNL     1      -2.614 -10.521  -0.940  0.00  0.00    +0.047 C 
ATOM     24  C   UNL     1      -2.285  -9.278  -1.726  0.00  0.00    -0.008 A 
ATOM     25  C   UNL     1      -1.510  -8.185  -1.285  0.00  0.00    +0.083 A 
ATOM     26  C   UNL     1      -1.465  -7.270  -2.323  0.00  0.00    +0.040 A 
ATOM     27  N   UNL     1      -2.168  -7.757  -3.355  0.00  0.00    -0.354 N 
ATOM     28  H   UNL     1      -2.295  -7.312  -4.208  0.00  0.00    +0.166 HD
ATOM     29  C   UNL     1      -2.679  -8.993  -3.016  0.00  0.00    +0.086 A 
BRANCH  29  30
ATOM     30  C   UNL     1      -3.470  -9.823  -3.846  0.00  0.00    +0.176 C 
ATOM     31  O   UNL     1      -3.865 -10.894  -3.434  0.00  0.00    -0.291 OA
ATOM     32  C   UNL     1      -3.822  -9.376  -5.242  0.00  0.00    +0.093 C 
ENDBRANCH  29  30
BRANCH  25  33
ATOM     33  C   UNL     1      -0.869  -8.043   0.034  0.00  0.00    +0.341 C 
ATOM     34  O   UNL     1       0.264  -8.449   0.205  0.00  0.00    -0.245 OA
BRANCH  33  35
ATOM     35  O   UNL     1      -1.538  -7.463   1.049  0.00  0.00    -0.464 OA
ATOM     36  C   UNL     1      -0.855  -7.358   2.300  0.00  0.00    +0.280 C 
ENDBRANCH  33  35
ENDBRANCH  25  33
ENDBRANCH  22  26
ENDBRANCH   1  22
TORSDOF 8
