REMARK  Name = ZINC28249823
REMARK  11 active torsions:
REMARK  status: ('A' for Active; 'I' for Inactive)
REMARK    1  A    between atoms: C_1  and  C_2
REMARK    2  A    between atoms: C_5  and  N_9
REMARK    3  A    between atoms: C_6  and  C_8
REMARK    4  A    between atoms: C_10  and  C_12
REMARK    5  A    between atoms: C_14  and  C_35
REMARK    6  A    between atoms: C_16  and  C_24
REMARK    7  A    between atoms: C_18  and  C_22
REMARK    8  A    between atoms: C_18  and  O_23
REMARK    9  A    between atoms: N_26  and  C_27
REMARK   10  A    between atoms: C_30  and  C_34
REMARK   11  A    between atoms: C_32  and  C_33
REMARK                            x       y       z     vdW  Elec       q    Type
REMARK                         _______ _______ _______ _____ _____    ______ ____
ROOT
ATOM      1  C   UNL     1       1.629   1.383   0.027  0.00  0.00    +0.149 C 
ATOM      2  C   UNL     1       0.187   0.879  -0.090  0.00  0.00    +0.053 C 
ATOM      3  C   UNL     1       0.187  -0.649  -0.156  0.00  0.00    +0.115 C 
ATOM      4  C   UNL     1       0.740  -1.225   1.149  0.00  0.00    +0.082 C 
ATOM      5  C   UNL     1       2.203  -0.800   1.312  0.00  0.00    +0.110 C 
ATOM      6  C   UNL     1       2.280   0.707   1.214  0.00  0.00    +0.148 C 
ATOM      7  O   UNL     1       2.846   1.355   2.061  0.00  0.00    -0.296 OA
ATOM      8  C   UNL     1      -0.080  -0.697   2.328  0.00  0.00    +0.042 C 
ENDROOT
BRANCH   2   9
ATOM      9  C   UNL     1      -0.440   1.436  -1.342  0.00  0.00    -0.039 A 
ATOM     10  C   UNL     1       0.346   1.832  -2.414  0.00  0.00    +0.023 A 
ATOM     11  C   UNL     1      -0.265   2.334  -3.547  0.00  0.00    +0.111 A 
ATOM     12  N   UNL     1      -1.577   2.448  -3.612  0.00  0.00    -0.263 NA
ATOM     13  C   UNL     1      -2.355   2.087  -2.610  0.00  0.00    +0.111 A 
ATOM     14  C   UNL     1      -1.816   1.571  -1.447  0.00  0.00    +0.023 A 
ENDBRANCH   2   9
BRANCH   1  16
ATOM     15  N   UNL     1       2.795   3.538   0.361  0.00  0.00    -0.285 N 
ATOM     16  C   UNL     1       1.629   2.876   0.232  0.00  0.00    +0.228 C 
ATOM     17  O   UNL     1       0.579   3.481   0.280  0.00  0.00    -0.275 OA
ATOM     18  H   UNL     1       3.749   3.002   0.245  0.00  0.00    +0.155 HD
BRANCH  15  23
ATOM     19  C   UNL     1       2.788   9.094   1.510  0.00  0.00    +0.044 C 
ATOM     20  C   UNL     1       2.790   7.618   1.204  0.00  0.00    -0.050 A 
ATOM     21  C   UNL     1       1.798   7.077   0.408  0.00  0.00    +0.005 A 
ATOM     22  C   UNL     1       1.800   5.726   0.121  0.00  0.00    +0.024 A 
ATOM     23  C   UNL     1       2.794   4.909   0.644  0.00  0.00    +0.036 A 
ATOM     24  C   UNL     1       3.789   5.455   1.444  0.00  0.00    -0.029 A 
ATOM     25  C   UNL     1       3.784   6.809   1.721  0.00  0.00    +0.008 A 
ATOM     26  C   UNL     1       4.872   4.573   2.009  0.00  0.00    +0.045 C 
ENDBRANCH  15  23
ENDBRANCH   1  16
BRANCH   3  27
ATOM     27  C   UNL     1       1.047  -1.101  -1.308  0.00  0.00    +0.224 C 
ATOM     28  O   UNL     1       1.677  -0.288  -1.950  0.00  0.00    -0.275 OA
ATOM     29  N   UNL     1       1.117  -2.410  -1.624  0.00  0.00    -0.285 N 
ATOM     30  H   UNL     1       0.477  -3.137  -1.103  0.00  0.00    +0.155 HD
BRANCH  29  31
ATOM     31  C   UNL     1       2.005  -2.844  -2.615  0.00  0.00    +0.036 A 
ATOM     32  C   UNL     1       3.230  -2.211  -2.777  0.00  0.00    +0.024 A 
ATOM     33  C   UNL     1       4.107  -2.645  -3.752  0.00  0.00    +0.005 A 
ATOM     34  C   UNL     1       3.760  -3.702  -4.574  0.00  0.00    -0.050 A 
ATOM     35  C   UNL     1       2.538  -4.330  -4.419  0.00  0.00    +0.008 A 
ATOM     36  C   UNL     1       1.660  -3.904  -3.442  0.00  0.00    -0.029 A 
ATOM     37  C   UNL     1       0.328  -4.590  -3.273  0.00  0.00    +0.045 C 
ATOM     38  C   UNL     1       4.716  -4.170  -5.640  0.00  0.00    +0.044 C 
ENDBRANCH  29  31
ENDBRANCH   3  27
BRANCH   4  39
ATOM     39  O   UNL     1       0.659  -2.651   1.113  0.00  0.00    -0.388 OA
ATOM     40  H   UNL     1       1.012  -3.244   1.969  0.00  0.00    +0.210 HD
ENDBRANCH   4  39
TORSDOF 6
