REMARK  Name = ZINC15081193
REMARK  15 active torsions:
REMARK  status: ('A' for Active; 'I' for Inactive)
REMARK    1  A    between atoms: C_1  and  C_2
REMARK    2  A    between atoms: C_5  and  S_8
REMARK    3  A    between atoms: S_8  and  N_11
REMARK    4  A    between atoms: N_11  and  N_12
REMARK    5  A    between atoms: C_15  and  C_38
REMARK    6  A    between atoms: C_15  and  O_39
REMARK    7  A    between atoms: C_16  and  C_34
REMARK    8  A    between atoms: C_18  and  C_26
REMARK    9  A    between atoms: C_20  and  C_22
REMARK   10  A    between atoms: C_22  and  O_24
REMARK   11  A    between atoms: O_24  and  C_25
REMARK   12  A    between atoms: C_29  and  O_32
REMARK   13  A    between atoms: O_32  and  C_33
REMARK   14  A    between atoms: C_34  and  O_36
REMARK   15  A    between atoms: O_36  and  C_37
REMARK                            x       y       z     vdW  Elec       q    Type
REMARK                         _______ _______ _______ _____ _____    ______ ____
ROOT
ATOM      1  N   UNL     1      -5.324   4.677   2.084  0.00  0.00    -0.174 NA
ATOM      2  C   UNL     1      -4.773   4.081   1.094  0.00  0.00    +0.055 C 
ATOM      3  C   UNL     1      -5.465   4.004  -0.249  0.00  0.00    +0.088 C 
ATOM      4  C   UNL     1      -4.489   4.488  -1.327  0.00  0.00    +0.082 C 
ATOM      5  C   UNL     1      -3.193   3.680  -1.239  0.00  0.00    +0.138 C 
ATOM      6  C   UNL     1      -2.512   3.938   0.106  0.00  0.00    +0.055 C 
ATOM      7  C   UNL     1      -3.413   3.435   1.238  0.00  0.00    +0.152 C 
ATOM      8  C   UNL     1      -4.182   5.971  -1.110  0.00  0.00    +0.042 C 
ENDROOT
BRANCH   6   9
ATOM      9  C   UNL     1      -1.194   3.209   0.150  0.00  0.00    -0.042 A 
ATOM     10  C   UNL     1      -0.081   3.758  -0.459  0.00  0.00    +0.007 A 
ATOM     11  C   UNL     1       1.127   3.089  -0.425  0.00  0.00    +0.046 A 
ATOM     12  C   UNL     1       1.226   1.871   0.231  0.00  0.00    +0.120 A 
ATOM     13  C   UNL     1       0.109   1.325   0.847  0.00  0.00    +0.046 A 
ATOM     14  C   UNL     1      -1.098   1.995   0.805  0.00  0.00    +0.007 A 
BRANCH  12  15
ATOM     15  O   UNL     1       2.414   1.213   0.271  0.00  0.00    -0.495 OA
ATOM     16  C   UNL     1       2.442  -0.037   0.964  0.00  0.00    +0.277 C 
ENDBRANCH  12  15
ENDBRANCH   6   9
BRANCH   1  17
ATOM     17  N   UNL     1      -6.645   5.133   1.979  0.00  0.00    -0.137 N 
ATOM     18  H   UNL     1      -7.175   4.910   1.198  0.00  0.00    +0.197 HD
BRANCH  17  19
ATOM     19  S   UNL     1      -7.301   6.054   3.189  0.00  0.00    +0.086 S 
ATOM     20  O   UNL     1      -8.579   6.475   2.731  0.00  0.00    -0.149 OA
ATOM     21  O   UNL     1      -7.127   5.323   4.395  0.00  0.00    -0.149 OA
BRANCH  19  26
ATOM     22  C   UNL     1      -3.922  11.028   3.682  0.00  0.00    +0.044 C 
ATOM     23  C   UNL     1      -4.766   9.786   3.558  0.00  0.00    -0.050 A 
ATOM     24  C   UNL     1      -5.851   9.769   2.702  0.00  0.00    +0.005 A 
ATOM     25  C   UNL     1      -6.625   8.630   2.589  0.00  0.00    +0.029 A 
ATOM     26  C   UNL     1      -6.314   7.506   3.333  0.00  0.00    +0.110 A 
ATOM     27  C   UNL     1      -5.232   7.524   4.193  0.00  0.00    +0.029 A 
ATOM     28  C   UNL     1      -4.455   8.662   4.302  0.00  0.00    +0.005 A 
ENDBRANCH  19  26
ENDBRANCH  17  19
ENDBRANCH   1  17
BRANCH   7  29
ATOM     29  C   UNL     1      -2.812   3.811   2.568  0.00  0.00    +0.316 C 
ATOM     30  O   UNL     1      -1.770   4.420   2.610  0.00  0.00    -0.250 OA
BRANCH  29  31
ATOM     31  O   UNL     1      -3.436   3.469   3.707  0.00  0.00    -0.467 OA
ATOM     32  C   UNL     1      -2.799   3.864   4.951  0.00  0.00    +0.280 C 
ENDBRANCH  29  31
ENDBRANCH   7  29
BRANCH   5  33
ATOM     33  C   UNL     1      -3.508   2.212  -1.367  0.00  0.00    +0.313 C 
ATOM     34  O   UNL     1      -3.112   1.434  -0.532  0.00  0.00    -0.250 OA
BRANCH  33  35
ATOM     35  O   UNL     1      -4.228   1.769  -2.410  0.00  0.00    -0.468 OA
ATOM     36  C   UNL     1      -4.493   0.343  -2.469  0.00  0.00    +0.280 C 
ENDBRANCH  33  35
ENDBRANCH   5  33
BRANCH   4  37
ATOM     37  O   UNL     1      -5.077   4.306  -2.617  0.00  0.00    -0.388 OA
ATOM     38  H   UNL     1      -5.905   4.790  -2.744  0.00  0.00    +0.210 HD
ENDBRANCH   4  37
TORSDOF 10
