REMARK  Name = ZINC02085490
REMARK  3 active torsions:
REMARK  status: ('A' for Active; 'I' for Inactive)
REMARK    1  A    between atoms: C_3  and  C_9
REMARK    2  A    between atoms: N_11  and  C_12
REMARK    3  A    between atoms: C_13  and  C_23
REMARK                            x       y       z     vdW  Elec       q    Type
REMARK                         _______ _______ _______ _____ _____    ______ ____
ROOT
ATOM      1  C   UNL     1      -2.370   1.877   3.318  0.00  0.00    +0.090 A 
ATOM      2  C   UNL     1      -1.620   2.964   2.921  0.00  0.00    +0.084 A 
ATOM      3  C   UNL     1      -0.691   2.797   1.798  0.00  0.00    -0.018 A 
ATOM      4  C   UNL     1      -0.743   1.584   1.224  0.00  0.00    -0.004 A 
ATOM      5  S   UNL     1      -1.892   0.647   2.199  0.00  0.00    -0.077 S 
ATOM      6  C   UNL     1      -0.013   1.086   0.008  0.00  0.00    +0.043 C 
ATOM      7  C   UNL     1      -0.784   1.609  -1.217  0.00  0.00    +0.005 C 
ATOM      8  C   UNL     1      -0.935   3.129  -1.077  0.00  0.00    +0.000 C 
ATOM      9  C   UNL     1       0.477   3.675  -1.077  0.00  0.00    +0.000 C 
ATOM     10  C   UNL     1       1.164   3.618   0.277  0.00  0.00    +0.005 C 
ATOM     11  C   UNL     1       0.225   3.964   1.426  0.00  0.00    +0.037 C 
ENDROOT
BRANCH   1  14
ATOM     12  C   UNL     1      -3.935   0.634   4.589  0.00  0.00    +0.250 C 
ATOM     13  O   UNL     1      -3.715  -0.337   3.891  0.00  0.00    -0.270 OA
ATOM     14  N   UNL     1      -3.287   1.792   4.355  0.00  0.00    -0.275 N 
ATOM     15  H   UNL     1      -3.462   2.567   4.912  0.00  0.00    +0.156 HD
BRANCH  12  18
ATOM     16  C   UNL     1      -6.079   1.567   7.526  0.00  0.00    +0.021 A 
ATOM     17  C   UNL     1      -5.166   1.657   6.497  0.00  0.00    +0.016 A 
ATOM     18  C   UNL     1      -4.911   0.543   5.693  0.00  0.00    +0.055 A 
ATOM     19  C   UNL     1      -5.589  -0.655   5.935  0.00  0.00    +0.054 A 
ATOM     20  C   UNL     1      -6.496  -0.734   6.972  0.00  0.00    +0.040 A 
ATOM     21  C   UNL     1      -6.743   0.375   7.765  0.00  0.00    +0.042 A 
ATOM     22 CL   UNL     1      -7.891   0.270   9.063  0.00  0.00    -0.083 Cl
ATOM     23 CL   UNL     1      -5.285  -2.043   4.938  0.00  0.00    -0.083 Cl
ENDBRANCH  12  18
ENDBRANCH   1  14
BRANCH   2  24
ATOM     24  C   UNL     1      -1.740   4.223   3.594  0.00  0.00    +0.102 C 
ATOM     25  N   UNL     1      -1.835   5.221   4.127  0.00  0.00    -0.191 NA
ENDBRANCH   2  24
TORSDOF 3
