REMARK  Name = ZINC39604461
REMARK  10 active torsions:
REMARK  status: ('A' for Active; 'I' for Inactive)
REMARK    1  A    between atoms: C_1  and  C_2
REMARK    2  A    between atoms: C_2  and  O_3
REMARK    3  A    between atoms: O_3  and  C_4
REMARK    4  A    between atoms: C_4  and  C_5
REMARK    5  A    between atoms: C_5  and  C_6
REMARK    6  A    between atoms: C_6  and  N_7
REMARK    7  A    between atoms: C_8  and  C_10
REMARK    8  A    between atoms: C_21  and  C_23
REMARK    9  A    between atoms: C_28  and  S_29
REMARK   10  A    between atoms: S_29  and  C_30
REMARK                            x       y       z     vdW  Elec       q    Type
REMARK                         _______ _______ _______ _____ _____    ______ ____
ROOT
ATOM      1  C   UNL     1       3.766  -5.931  -5.621  0.00  0.00    +0.100 C 
ATOM      2  C   UNL     1       2.767  -5.456  -6.700  0.00  0.00    +0.121 C 
ATOM      3  N   UNL     1       2.749  -6.549  -7.700  0.00  0.00    -0.296 N 
ATOM      4  C   UNL     1       2.804  -7.790  -6.891  0.00  0.00    +0.115 C 
ATOM      5  C   UNL     1       3.787  -7.463  -5.749  0.00  0.00    -0.004 C 
ATOM      6  C   UNL     1       3.318  -8.109  -4.449  0.00  0.00    -0.010 C 
ATOM      7  C   UNL     1       3.403  -9.632  -4.581  0.00  0.00    -0.082 C 
ATOM      8  N   UNL     1       4.787 -10.023  -4.874  0.00  0.00    +0.379 N 
ATOM      9  C   UNL     1       5.199  -9.474  -6.171  0.00  0.00    -0.082 C 
ATOM     10  C   UNL     1       5.190  -7.944  -6.106  0.00  0.00    -0.010 C 
ATOM     11  C   UNL     1       2.694  -6.439  -9.042  0.00  0.00    +0.249 C 
ATOM     12  O   UNL     1       2.589  -7.436  -9.730  0.00  0.00    -0.270 OA
ATOM     13  H   UNL     1       5.396  -9.668  -4.151  0.00  0.00    -0.086 HD
ATOM     14  H   UNL     1       4.853 -11.030  -4.900  0.00  0.00    -0.086 HD
ENDROOT
BRANCH  11  15
ATOM     15  C   UNL     1       2.762  -5.110  -9.677  0.00  0.00    +0.069 A 
ATOM     16  C   UNL     1       2.171  -3.998  -9.066  0.00  0.00    +0.017 A 
ATOM     17  C   UNL     1       2.263  -2.773  -9.702  0.00  0.00    +0.020 A 
ATOM     18  C   UNL     1       2.929  -2.680 -10.911  0.00  0.00    +0.112 A 
ATOM     19  N   UNL     1       3.479  -3.739 -11.471  0.00  0.00    -0.248 NA
ATOM     20  C   UNL     1       3.426  -4.935 -10.903  0.00  0.00    +0.114 A 
BRANCH  20  21
ATOM     21  S   UNL     1       4.186  -6.315 -11.693  0.00  0.00    -0.069 S 
BRANCH  21  22
ATOM     22  C   UNL     1       4.737  -5.672 -13.238  0.00  0.00    +0.014 A 
ATOM     23  C   UNL     1       6.042  -5.215 -13.376  0.00  0.00    +0.015 A 
ATOM     24  C   UNL     1       6.471  -4.712 -14.588  0.00  0.00    +0.001 A 
ATOM     25  C   UNL     1       5.604  -4.661 -15.664  0.00  0.00    +0.000 A 
ATOM     26  C   UNL     1       4.304  -5.115 -15.530  0.00  0.00    +0.001 A 
ATOM     27  C   UNL     1       3.870  -5.625 -14.322  0.00  0.00    +0.015 A 
ENDBRANCH  21  22
ENDBRANCH  20  21
ENDBRANCH  11  15
BRANCH   1  29
ATOM     28  N   UNL     1       4.183  -5.300  -3.266  0.00  0.00    -0.315 N 
ATOM     29  C   UNL     1       3.290  -5.526  -4.250  0.00  0.00    +0.218 C 
ATOM     30  O   UNL     1       2.103  -5.403  -4.032  0.00  0.00    -0.275 OA
ATOM     31  H   UNL     1       5.132  -5.399  -3.440  0.00  0.00    +0.149 HD
BRANCH  28  32
ATOM     32  C   UNL     1       3.720  -4.906  -1.933  0.00  0.00    +0.106 C 
BRANCH  32  33
ATOM     33  C   UNL     1       4.925  -4.715  -1.010  0.00  0.00    +0.047 C 
BRANCH  33  34
ATOM     34  C   UNL     1       4.442  -4.303   0.382  0.00  0.00    +0.161 C 
BRANCH  34  35
ATOM     35  O   UNL     1       5.568  -4.124   1.244  0.00  0.00    -0.380 OA
BRANCH  35  37
ATOM     36  C   UNL     1       6.500  -3.575   3.404  0.00  0.00    +0.034 C 
ATOM     37  C   UNL     1       5.224  -3.737   2.575  0.00  0.00    +0.156 C 
ENDBRANCH  35  37
ENDBRANCH  34  35
ENDBRANCH  33  34
ENDBRANCH  32  33
ENDBRANCH  28  32
ENDBRANCH   1  29
TORSDOF 9
