REMARK  Name = ZINC36502648
REMARK  12 active torsions:
REMARK  status: ('A' for Active; 'I' for Inactive)
REMARK    1  A    between atoms: C_1  and  C_2
REMARK    2  A    between atoms: C_5  and  S_8
REMARK    3  A    between atoms: S_8  and  C_11
REMARK    4  A    between atoms: C_11  and  N_12
REMARK    5  A    between atoms: C_13  and  C_15
REMARK    6  A    between atoms: C_15  and  C_17
REMARK    7  A    between atoms: C_15  and  N_23
REMARK    8  A    between atoms: N_23  and  C_24
REMARK    9  A    between atoms: C_24  and  C_25
REMARK   10  A    between atoms: C_30  and  C_32
REMARK   11  A    between atoms: C_33  and  C_34
REMARK   12  A    between atoms: C_33  and  C_35
REMARK                            x       y       z     vdW  Elec       q    Type
REMARK                         _______ _______ _______ _____ _____    ______ ____
ROOT
ATOM      1  C   UNL     1       3.656  -5.451   3.916  0.00  0.00    +0.166 C 
ENDROOT
BRANCH   1   2
ATOM      2  C   UNL     1       2.615  -4.648   4.698  0.00  0.00    +0.019 C 
ATOM      3  C   UNL     1       2.735  -3.167   4.336  0.00  0.00    +0.006 C 
ATOM      4  C   UNL     1       1.694  -2.364   5.118  0.00  0.00    +0.000 C 
ATOM      5  C   UNL     1       1.934  -2.543   6.619  0.00  0.00    +0.000 C 
ATOM      6  C   UNL     1       1.814  -4.025   6.981  0.00  0.00    +0.000 C 
ATOM      7  C   UNL     1       2.855  -4.827   6.199  0.00  0.00    +0.006 C 
ENDBRANCH   1   2
BRANCH   1   9
ATOM      8  N   UNL     1       4.358  -4.551   1.721  0.00  0.00    -0.295 N 
ATOM      9  C   UNL     1       3.447  -5.239   2.438  0.00  0.00    +0.235 C 
ATOM     10  O   UNL     1       2.460  -5.688   1.895  0.00  0.00    -0.274 OA
ATOM     11  H   UNL     1       5.109  -4.130   2.167  0.00  0.00    +0.150 HD
BRANCH   8  12
ATOM     12  C   UNL     1       4.213  -4.440   0.267  0.00  0.00    +0.278 C 
BRANCH  12  13
ATOM     13  S   UNL     1       3.365  -2.889  -0.139  0.00  0.00    +0.013 S 
ATOM     14  O   UNL     1       2.199  -2.745   0.659  0.00  0.00    -0.168 OA
ATOM     15  O   UNL     1       3.303  -2.720  -1.549  0.00  0.00    -0.168 OA
BRANCH  13  20
ATOM     16  C   UNL     1       7.085   1.461   1.770  0.00  0.00    +0.044 C 
ATOM     17  C   UNL     1       6.156   0.375   1.293  0.00  0.00    -0.050 A 
ATOM     18  C   UNL     1       6.335  -0.190   0.044  0.00  0.00    +0.005 A 
ATOM     19  C   UNL     1       5.483  -1.186  -0.394  0.00  0.00    +0.027 A 
ATOM     20  C   UNL     1       4.452  -1.619   0.418  0.00  0.00    +0.090 A 
ATOM     21  C   UNL     1       4.273  -1.056   1.668  0.00  0.00    +0.027 A 
ATOM     22  C   UNL     1       5.127  -0.062   2.107  0.00  0.00    +0.005 A 
ENDBRANCH  13  20
ENDBRANCH  12  13
ENDBRANCH   8  12
ENDBRANCH   1   9
BRANCH   1  23
ATOM     23  N   UNL     1       3.513  -6.875   4.230  0.00  0.00    -0.279 N 
ATOM     24  C   UNL     1       4.503  -7.527   4.869  0.00  0.00    +0.240 C 
ATOM     25  O   UNL     1       5.517  -6.934   5.186  0.00  0.00    -0.271 OA
BRANCH  24  26
ATOM     26  C   UNL     1       4.359  -8.957   5.185  0.00  0.00    +0.066 C 
ATOM     27  C   UNL     1       5.378  -9.627   5.714  0.00  0.00    -0.071 C 
ATOM     28  C   UNL     1       6.732  -8.975   5.826  0.00  0.00    +0.039 C 
ATOM     29  C   UNL     1       5.180 -11.039   6.201  0.00  0.00    +0.039 C 
ENDBRANCH  24  26
BRANCH  23  30
ATOM     30  C   UNL     1       2.292  -7.589   3.849  0.00  0.00    +0.183 C 
BRANCH  30  31
ATOM     31  C   UNL     1       2.528  -8.336   2.561  0.00  0.00    +0.122 A 
ATOM     32  C   UNL     1       2.934  -9.614   2.456  0.00  0.00    +0.046 A 
ATOM     33  C   UNL     1       3.025  -9.903   1.075  0.00  0.00    +0.041 A 
ATOM     34  C   UNL     1       2.668  -8.784   0.419  0.00  0.00    +0.195 A 
ATOM     35  O   UNL     1       2.362  -7.840   1.324  0.00  0.00    -0.466 OA
ENDBRANCH  30  31
ENDBRANCH  23  30
ENDBRANCH   1  23
TORSDOF 9
