REMARK  Name = ZINC09105722
REMARK  4 active torsions:
REMARK  status: ('A' for Active; 'I' for Inactive)
REMARK    1  A    between atoms: C_4  and  C_7
REMARK    2  A    between atoms: C_13  and  S_18
REMARK    3  A    between atoms: S_18  and  C_19
REMARK    4  A    between atoms: C_19  and  C_20
REMARK                            x       y       z     vdW  Elec       q    Type
REMARK                         _______ _______ _______ _____ _____    ______ ____
ROOT
ATOM      1  C   UNL     1       1.303  -7.073   1.173  0.00  0.00    +0.046 A 
ATOM      2  C   UNL     1       1.317  -8.425   0.784  0.00  0.00    +0.145 A 
ATOM      3  N   UNL     1       1.305  -8.487  -0.521  0.00  0.00    -0.168 NA
ATOM      4  N   UNL     1       1.284  -7.190  -1.044  0.00  0.00    -0.163 N 
ATOM      5  C   UNL     1       1.282  -6.311   0.008  0.00  0.00    +0.171 A 
ATOM      6  N   UNL     1       1.263  -4.984  -0.217  0.00  0.00    -0.204 NA
ATOM      7  C   UNL     1       1.246  -4.520  -1.449  0.00  0.00    +0.173 A 
ATOM      8  N   UNL     1       1.241  -5.384  -2.516  0.00  0.00    -0.285 N 
ATOM      9  H   UNL     1       1.224  -5.037  -3.422  0.00  0.00    +0.172 HD
ATOM     10  C   UNL     1       1.266  -6.716  -2.306  0.00  0.00    +0.351 A 
ATOM     11  O   UNL     1       1.266  -7.485  -3.248  0.00  0.00    -0.245 OA
ENDROOT
BRANCH   1  15
ATOM     12  C   UNL     1       1.320  -5.593   5.157  0.00  0.00    +0.000 A 
ATOM     13  C   UNL     1       0.238  -6.323   4.698  0.00  0.00    +0.001 A 
ATOM     14  C   UNL     1       0.227  -6.806   3.406  0.00  0.00    +0.008 A 
ATOM     15  C   UNL     1       1.309  -6.558   2.562  0.00  0.00    -0.013 A 
ATOM     16  C   UNL     1       2.400  -5.827   3.032  0.00  0.00    +0.008 A 
ATOM     17  C   UNL     1       2.397  -5.344   4.325  0.00  0.00    +0.001 A 
ENDBRANCH   1  15
BRANCH   7  18
ATOM     18  S   UNL     1       1.220  -2.781  -1.730  0.00  0.00    -0.083 S 
BRANCH  18  19
ATOM     19  C   UNL     1       1.228  -2.186  -0.020  0.00  0.00    +0.112 C 
BRANCH  19  20
ATOM     20  C   UNL     1       1.208  -0.679  -0.013  0.00  0.00    -0.037 A 
ATOM     21  C   UNL     1       0.002  -0.004   0.002  0.00  0.00    +0.006 A 
ATOM     22  C   UNL     1      -0.017   1.378   0.010  0.00  0.00    +0.020 A 
ATOM     23  C   UNL     1       1.172   2.086   0.002  0.00  0.00    +0.041 A 
ATOM     24  C   UNL     1       2.379   1.409  -0.013  0.00  0.00    +0.020 A 
ATOM     25  C   UNL     1       2.397   0.027  -0.021  0.00  0.00    +0.006 A 
ATOM     26 CL   UNL     1       1.149   3.821   0.011  0.00  0.00    -0.084 Cl
ENDBRANCH  19  20
ENDBRANCH  18  19
ENDBRANCH   7  18
TORSDOF 4
