REMARK  Name = ZINC35887074
REMARK  7 active torsions:
REMARK  status: ('A' for Active; 'I' for Inactive)
REMARK    1  A    between atoms: C_1  and  C_2
REMARK    2  A    between atoms: C_2  and  N_3
REMARK    3  A    between atoms: C_8  and  C_23
REMARK    4  A    between atoms: C_10  and  C_13
REMARK    5  A    between atoms: C_17  and  C_19
REMARK    6  A    between atoms: C_23  and  N_24
REMARK    7  A    between atoms: N_27  and  C_30
REMARK                            x       y       z     vdW  Elec       q    Type
REMARK                         _______ _______ _______ _____ _____    ______ ____
ROOT
ATOM      1  N   UNL     1       1.290  -0.029  -0.928  0.00  0.00    -0.300 N 
ATOM      2  C   UNL     1       1.091  -1.341  -1.166  0.00  0.00    +0.302 C 
ATOM      3  O   UNL     1       0.587  -2.044  -0.312  0.00  0.00    -0.253 OA
ATOM      4  N   UNL     1       1.450  -1.873  -2.351  0.00  0.00    -0.285 N 
ATOM      5  C   UNL     1       1.308  -3.279  -2.796  0.00  0.00    +0.111 C 
ATOM      6  C   UNL     1       2.607  -3.575  -3.575  0.00  0.00    -0.001 C 
ATOM      7  C   UNL     1       3.115  -2.195  -4.041  0.00  0.00    +0.039 C 
ATOM      8  C   UNL     1       2.072  -1.184  -3.506  0.00  0.00    +0.117 C 
ATOM      9  H   UNL     1       1.692   0.531  -1.610  0.00  0.00    +0.150 HD
ENDROOT
BRANCH   7  10
ATOM     10  C   UNL     1       3.173  -2.138  -5.546  0.00  0.00    -0.042 A 
ATOM     11  C   UNL     1       4.393  -2.190  -6.194  0.00  0.00    +0.004 A 
ATOM     12  C   UNL     1       4.446  -2.139  -7.574  0.00  0.00    +0.001 A 
ATOM     13  C   UNL     1       3.278  -2.035  -8.307  0.00  0.00    +0.012 A 
ATOM     14  C   UNL     1       2.058  -1.985  -7.659  0.00  0.00    +0.055 A 
ATOM     15  C   UNL     1       2.005  -2.041  -6.279  0.00  0.00    +0.016 A 
BRANCH  14  16
ATOM     16  C   UNL     1       0.785  -1.872  -8.458  0.00  0.00    +0.417 C 
ATOM     17  F   UNL     1       1.093  -1.836  -9.822  0.00  0.00    -0.166 F 
ATOM     18  F   UNL     1      -0.031  -2.976  -8.193  0.00  0.00    -0.166 F 
ATOM     19  F   UNL     1       0.113  -0.698  -8.101  0.00  0.00    -0.166 F 
ENDBRANCH  14  16
ENDBRANCH   7  10
BRANCH   1  21
ATOM     20  C   UNL     1       1.231   2.043   0.369  0.00  0.00    +0.024 C 
ATOM     21  C   UNL     1       0.899   0.549   0.359  0.00  0.00    +0.102 C 
ENDBRANCH   1  21
BRANCH   6  22
ATOM     22  C   UNL     1       2.313  -4.471  -4.780  0.00  0.00    -0.073 C 
BRANCH  22  23
ATOM     23  N   UNL     1       1.768  -5.753  -4.315  0.00  0.00    +0.382 N 
ATOM     24  C   UNL     1       2.787  -6.462  -3.531  0.00  0.00    -0.060 C 
ATOM     25  C   UNL     1       2.183  -7.744  -2.951  0.00  0.00    +0.086 C 
ATOM     26  N   UNL     1       1.610  -8.531  -4.054  0.00  0.00    -0.333 N 
ATOM     27  C   UNL     1       0.701  -7.852  -4.990  0.00  0.00    +0.086 C 
ATOM     28  C   UNL     1       1.375  -6.564  -5.474  0.00  0.00    -0.060 C 
ATOM     29  H   UNL     1       0.959  -5.583  -3.736  0.00  0.00    -0.082 HD
BRANCH  26  30
ATOM     30  C   UNL     1       1.921  -9.885  -4.208  0.00  0.00    +0.030 A 
ATOM     31  C   UNL     1       2.679 -10.539  -3.246  0.00  0.00    +0.026 A 
ATOM     32  C   UNL     1       2.985 -11.877  -3.400  0.00  0.00    +0.040 A 
ATOM     33  C   UNL     1       2.536 -12.567  -4.513  0.00  0.00    +0.124 A 
ATOM     34  C   UNL     1       1.780 -11.917  -5.474  0.00  0.00    +0.040 A 
ATOM     35  C   UNL     1       1.467 -10.581  -5.322  0.00  0.00    +0.026 A 
ATOM     36  F   UNL     1       2.836 -13.876  -4.662  0.00  0.00    -0.205 F 
ENDBRANCH  26  30
ENDBRANCH  22  23
ENDBRANCH   6  22
TORSDOF 6
