REMARK  Name = ZINC67103672
REMARK  6 active torsions:
REMARK  status: ('A' for Active; 'I' for Inactive)
REMARK    1  A    between atoms: C_3  and  C_6
REMARK    2  A    between atoms: C_6  and  C_8
REMARK    3  A    between atoms: C_6  and  N_15
REMARK    4  A    between atoms: N_18  and  N_19
REMARK    5  A    between atoms: C_20  and  C_22
REMARK    6  A    between atoms: C_22  and  C_23
REMARK                            x       y       z     vdW  Elec       q    Type
REMARK                         _______ _______ _______ _____ _____    ______ ____
ROOT
ATOM      1  N   UNL     1       4.569   1.019  -0.924  0.00  0.00    -0.287 N 
ATOM      2  C   UNL     1       4.598   1.290  -2.244  0.00  0.00    +0.317 C 
ATOM      3  O   UNL     1       3.953   2.221  -2.688  0.00  0.00    -0.251 OA
ATOM      4  N   UNL     1       5.342   0.530  -3.072  0.00  0.00    -0.218 N 
ATOM      5  H   UNL     1       5.084   0.277  -0.570  0.00  0.00    +0.151 HD
ATOM      6  H   UNL     1       5.363   0.726  -4.022  0.00  0.00    +0.174 HD
ENDROOT
BRANCH   4   7
ATOM      7  N   UNL     1       6.086  -0.541  -2.561  0.00  0.00    -0.233 N 
ATOM      8  C   UNL     1       6.830  -1.301  -3.389  0.00  0.00    +0.229 C 
ATOM      9  O   UNL     1       6.856  -1.057  -4.576  0.00  0.00    -0.274 OA
ATOM     10  H   UNL     1       6.065  -0.737  -1.611  0.00  0.00    +0.173 HD
BRANCH   8  11
ATOM     11  C   UNL     1       7.629  -2.454  -2.838  0.00  0.00    +0.101 C 
BRANCH  11  12
ATOM     12  C   UNL     1       8.377  -3.147  -3.979  0.00  0.00    -0.002 C 
ATOM     13  C   UNL     1       9.409  -2.184  -4.571  0.00  0.00    +0.004 C 
ATOM     14  C   UNL     1      10.157  -2.876  -5.712  0.00  0.00    +0.000 C 
ATOM     15  C   UNL     1      10.869  -4.120  -5.175  0.00  0.00    +0.000 C 
ATOM     16  C   UNL     1       9.837  -5.082  -4.583  0.00  0.00    +0.000 C 
ATOM     17  C   UNL     1       9.089  -4.390  -3.442  0.00  0.00    +0.004 C 
ENDBRANCH  11  12
ENDBRANCH   8  11
ENDBRANCH   4   7
BRANCH   1  18
ATOM     18  C   UNL     1       3.761   1.845  -0.024  0.00  0.00    +0.142 C 
BRANCH  18  19
ATOM     19  C   UNL     1       4.330   1.776   1.369  0.00  0.00    -0.022 A 
ATOM     20  C   UNL     1       4.808   0.576   1.861  0.00  0.00    +0.008 A 
ATOM     21  C   UNL     1       5.331   0.511   3.139  0.00  0.00    +0.038 A 
ATOM     22  C   UNL     1       5.377   1.649   3.926  0.00  0.00    +0.123 A 
ATOM     23  C   UNL     1       4.899   2.851   3.432  0.00  0.00    +0.038 A 
ATOM     24  C   UNL     1       4.381   2.914   2.152  0.00  0.00    +0.008 A 
ATOM     25  F   UNL     1       5.888   1.587   5.175  0.00  0.00    -0.205 F 
ENDBRANCH  18  19
BRANCH  18  28
ATOM     26  C   UNL     1      -0.016   1.351   0.009  0.00  0.00    +0.008 A 
ATOM     27  C   UNL     1       1.183   2.038   0.002  0.00  0.00    +0.013 A 
ATOM     28  C   UNL     1       2.343   1.336  -0.013  0.00  0.00    +0.014 A 
ATOM     29  S   UNL     1       1.754  -0.349  -0.017  0.00  0.00    -0.099 S 
ATOM     30  C   UNL     1       0.002  -0.004   0.002  0.00  0.00    +0.045 A 
ENDBRANCH  18  28
ENDBRANCH   1  18
TORSDOF 6
