REMARK  Name = ZINC43384584
REMARK  5 active torsions:
REMARK  status: ('A' for Active; 'I' for Inactive)
REMARK    1  A    between atoms: C_1  and  C_2
REMARK    2  A    between atoms: N_7  and  C_8
REMARK    3  A    between atoms: N_10  and  C_11
REMARK    4  A    between atoms: C_11  and  C_13
REMARK    5  A    between atoms: C_11  and  C_14
REMARK                            x       y       z     vdW  Elec       q    Type
REMARK                         _______ _______ _______ _____ _____    ______ ____
ROOT
ATOM      1  C   UNL     1       2.399  -3.988  -0.030  0.00  0.00    +0.326 C 
ATOM      2  O   UNL     1       3.148  -3.026  -0.028  0.00  0.00    -0.251 OA
ATOM      3  N   UNL     1       2.907  -5.236  -0.040  0.00  0.00    -0.291 N 
ATOM      4  H   UNL     1       2.311  -6.002  -0.042  0.00  0.00    +0.151 HD
ENDROOT
BRANCH   1  11
ATOM      5  C   UNL     1      -0.018   1.503   0.010  0.00  0.00    +0.053 C 
ATOM      6  C   UNL     1       0.002  -0.004   0.002  0.00  0.00    +0.006 A 
ATOM      7  C   UNL     1      -1.025  -0.859   0.002  0.00  0.00    +0.095 A 
ATOM      8  N   UNL     1      -0.732  -2.188  -0.007  0.00  0.00    -0.342 N 
ATOM      9  H   UNL     1      -1.440  -2.851  -0.008  0.00  0.00    +0.167 HD
ATOM     10  C   UNL     1       0.575  -2.571  -0.014  0.00  0.00    +0.165 A 
ATOM     11  N   UNL     1       1.076  -3.804  -0.024  0.00  0.00    -0.139 NA
ATOM     12  S   UNL     1       1.403  -1.107  -0.018  0.00  0.00    -0.058 S 
ENDBRANCH   1  11
BRANCH   3  13
ATOM     13  C   UNL     1       4.358  -5.438  -0.047  0.00  0.00    +0.108 C 
ATOM     14  C   UNL     1       4.886  -5.392   1.388  0.00  0.00    +0.033 C 
BRANCH  13  15
ATOM     15  C   UNL     1       4.676  -6.778  -0.657  0.00  0.00    +0.011 A 
ATOM     16  C   UNL     1       5.683  -7.115  -1.498  0.00  0.00    +0.014 A 
ATOM     17  C   UNL     1       5.782  -8.423  -1.937  0.00  0.00    +0.028 A 
ATOM     18  C   UNL     1       4.867  -9.330  -1.510  0.00  0.00    +0.078 A 
ATOM     19  S   UNL     1       3.828  -8.336  -0.452  0.00  0.00    -0.080 S 
ATOM     20 CL   UNL     1       4.743 -11.019  -1.890  0.00  0.00    -0.076 Cl
ENDBRANCH  13  15
ENDBRANCH   3  13
TORSDOF 3
