REMARK  Name = ZINC03194179
REMARK  6 active torsions:
REMARK  status: ('A' for Active; 'I' for Inactive)
REMARK    1  A    between atoms: C_1  and  C_2
REMARK    2  A    between atoms: C_5  and  S_8
REMARK    3  A    between atoms: S_8  and  N_11
REMARK    4  A    between atoms: C_16  and  C_18
REMARK    5  A    between atoms: C_26  and  S_30
REMARK    6  A    between atoms: S_30  and  C_33
REMARK                            x       y       z     vdW  Elec       q    Type
REMARK                         _______ _______ _______ _____ _____    ______ ____
ROOT
ATOM      1  C   UNL     1      -4.309   2.567   1.611  0.00  0.00    +0.238 C 
ATOM      2  O   UNL     1      -3.564   3.524   1.631  0.00  0.00    -0.274 OA
ATOM      3  N   UNL     1      -5.446   2.614   0.888  0.00  0.00    -0.263 N 
ATOM      4  C   UNL     1      -5.763   3.754   0.168  0.00  0.00    +0.165 A 
ATOM      5  N   UNL     1      -5.091   4.877   0.066  0.00  0.00    -0.225 NA
ATOM      6  C   UNL     1      -5.523   5.917  -0.679  0.00  0.00    +0.080 A 
ATOM      7  C   UNL     1      -4.899   7.171  -0.873  0.00  0.00    +0.031 A 
ATOM      8  C   UNL     1      -5.478   8.125  -1.669  0.00  0.00    +0.029 A 
ATOM      9  C   UNL     1      -6.687   7.898  -2.311  0.00  0.00    +0.089 A 
ATOM     10  C   UNL     1      -7.324   6.682  -2.144  0.00  0.00    +0.044 A 
ATOM     11  C   UNL     1      -6.753   5.721  -1.348  0.00  0.00    +0.043 A 
ATOM     12  S   UNL     1      -7.188   4.068  -0.864  0.00  0.00    -0.052 S 
ATOM     13  H   UNL     1      -6.042   1.849   0.872  0.00  0.00    +0.157 HD
ENDROOT
BRANCH   1  19
ATOM     14  N   UNL     1      -2.677   0.792   1.928  0.00  0.00    -0.165 NA
ATOM     15  C   UNL     1      -2.080  -0.340   2.649  0.00  0.00    +0.110 C 
ATOM     16  C   UNL     1      -1.979   0.027   4.137  0.00  0.00    +0.017 C 
ATOM     17  C   UNL     1      -3.361   0.440   4.650  0.00  0.00    +0.003 C 
ATOM     18  C   UNL     1      -3.844   1.672   3.882  0.00  0.00    +0.030 C 
ATOM     19  C   UNL     1      -3.964   1.327   2.394  0.00  0.00    +0.166 C 
BRANCH  14  20
ATOM     20  S   UNL     1      -1.918   1.448   0.610  0.00  0.00    +0.062 S 
ATOM     21  O   UNL     1      -2.928   2.075  -0.169  0.00  0.00    -0.153 OA
ATOM     22  O   UNL     1      -1.068   0.438   0.086  0.00  0.00    -0.153 OA
BRANCH  20  27
ATOM     23  C   UNL     1       1.687   5.848   2.622  0.00  0.00    +0.044 C 
ATOM     24  C   UNL     1       0.785   4.750   2.123  0.00  0.00    -0.050 A 
ATOM     25  C   UNL     1       1.130   3.426   2.325  0.00  0.00    +0.005 A 
ATOM     26  C   UNL     1       0.302   2.418   1.867  0.00  0.00    +0.029 A 
ATOM     27  C   UNL     1      -0.867   2.733   1.201  0.00  0.00    +0.106 A 
ATOM     28  C   UNL     1      -1.215   4.056   1.003  0.00  0.00    +0.029 A 
ATOM     29  C   UNL     1      -0.388   5.065   1.461  0.00  0.00    +0.005 A 
ENDBRANCH  20  27
ENDBRANCH  14  20
ENDBRANCH   1  19
BRANCH   9  30
ATOM     30  S   UNL     1      -7.403   9.146  -3.327  0.00  0.00    -0.006 S 
ATOM     31  O   UNL     1      -6.303   9.929  -3.770  0.00  0.00    -0.170 OA
ATOM     32  O   UNL     1      -8.209   8.438  -4.258  0.00  0.00    -0.170 OA
ATOM     33  C   UNL     1      -8.449  10.117  -2.207  0.00  0.00    +0.200 C 
ENDBRANCH   9  30
TORSDOF 4
