REMARK  Name = ZINC39696516
REMARK  9 active torsions:
REMARK  status: ('A' for Active; 'I' for Inactive)
REMARK    1  A    between atoms: C_1  and  C_2
REMARK    2  A    between atoms: C_2  and  C_3
REMARK    3  A    between atoms: C_2  and  C_4
REMARK    4  A    between atoms: C_2  and  S_5
REMARK    5  A    between atoms: S_5  and  C_6
REMARK    6  A    between atoms: C_6  and  C_7
REMARK    7  A    between atoms: C_7  and  N_8
REMARK    8  A    between atoms: C_9  and  C_11
REMARK    9  A    between atoms: C_22  and  C_24
REMARK                            x       y       z     vdW  Elec       q    Type
REMARK                         _______ _______ _______ _____ _____    ______ ____
ROOT
ATOM      1  C   UNL     1       6.907   0.651  -3.393  0.00  0.00    +0.100 C 
ATOM      2  C   UNL     1       6.902   2.193  -3.485  0.00  0.00    +0.121 C 
ATOM      3  N   UNL     1       8.130   2.526  -4.245  0.00  0.00    -0.297 N 
ATOM      4  C   UNL     1       8.210   1.480  -5.292  0.00  0.00    +0.115 C 
ATOM      5  C   UNL     1       7.766   0.186  -4.581  0.00  0.00    -0.004 C 
ATOM      6  C   UNL     1       8.983  -0.587  -4.082  0.00  0.00    -0.010 C 
ATOM      7  C   UNL     1       9.791  -1.086  -5.283  0.00  0.00    -0.082 C 
ATOM      8  N   UNL     1       8.947  -1.949  -6.118  0.00  0.00    +0.379 N 
ATOM      9  C   UNL     1       7.829  -1.174  -6.669  0.00  0.00    -0.082 C 
ATOM     10  C   UNL     1       6.938  -0.677  -5.527  0.00  0.00    -0.010 C 
ATOM     11  C   UNL     1       8.980   3.550  -4.033  0.00  0.00    +0.260 C 
ATOM     12  O   UNL     1       8.828   4.276  -3.073  0.00  0.00    -0.271 OA
ATOM     13  H   UNL     1       9.498  -2.325  -6.875  0.00  0.00    -0.086 HD
ATOM     14  H   UNL     1       8.586  -2.707  -5.559  0.00  0.00    -0.086 HD
ENDROOT
BRANCH  11  15
ATOM     15  C   UNL     1      10.120   3.792  -4.988  0.00  0.00    +0.296 C 
ATOM     16  C   UNL     1       9.570   4.248  -6.346  0.00  0.00    +0.283 C 
ATOM     17  O   UNL     1      10.677   4.483  -7.223  0.00  0.00    -0.484 OA
ATOM     18  C   UNL     1      11.716   5.202  -6.717  0.00  0.00    +0.162 A 
ATOM     19  C   UNL     1      12.636   5.771  -7.584  0.00  0.00    +0.049 A 
ATOM     20  C   UNL     1      13.698   6.501  -7.085  0.00  0.00    +0.004 A 
ATOM     21  C   UNL     1      13.847   6.666  -5.721  0.00  0.00    +0.004 A 
ATOM     22  C   UNL     1      12.932   6.103  -4.851  0.00  0.00    +0.049 A 
ATOM     23  C   UNL     1      11.864   5.370  -5.345  0.00  0.00    +0.163 A 
ATOM     24  O   UNL     1      10.967   4.827  -4.476  0.00  0.00    -0.473 OA
ENDBRANCH  11  15
BRANCH   1  26
ATOM     25  N   UNL     1       5.205  -1.109  -3.034  0.00  0.00    -0.314 N 
ATOM     26  C   UNL     1       5.504   0.113  -3.518  0.00  0.00    +0.218 C 
ATOM     27  O   UNL     1       4.645   0.780  -4.054  0.00  0.00    -0.275 OA
ATOM     28  H   UNL     1       5.893  -1.642  -2.605  0.00  0.00    +0.149 HD
BRANCH  25  29
ATOM     29  C   UNL     1       3.842  -1.631  -3.156  0.00  0.00    +0.115 C 
BRANCH  29  30
ATOM     30  C   UNL     1       3.773  -3.026  -2.531  0.00  0.00    +0.088 C 
BRANCH  30  31
ATOM     31  S   UNL     1       2.085  -3.673  -2.682  0.00  0.00    -0.153 S 
BRANCH  31  33
ATOM     32  C   UNL     1       2.602  -5.158  -0.444  0.00  0.00    +0.022 C 
ATOM     33  C   UNL     1       2.171  -5.309  -1.904  0.00  0.00    +0.008 C 
ATOM     34  C   UNL     1       3.189  -6.175  -2.649  0.00  0.00    +0.022 C 
ATOM     35  C   UNL     1       0.795  -5.975  -1.963  0.00  0.00    +0.022 C 
ENDBRANCH  31  33
ENDBRANCH  30  31
ENDBRANCH  29  30
ENDBRANCH  25  29
ENDBRANCH   1  26
TORSDOF 6
