REMARK  Name = ZINC09683384
REMARK  6 active torsions:
REMARK  status: ('A' for Active; 'I' for Inactive)
REMARK    1  A    between atoms: C_1  and  C_2
REMARK    2  A    between atoms: C_2  and  C_4
REMARK    3  A    between atoms: C_2  and  N_65
REMARK    4  A    between atoms: N_6  and  C_7
REMARK    5  A    between atoms: C_8  and  C_15
REMARK    6  A    between atoms: C_20  and  C_23
REMARK                            x       y       z     vdW  Elec       q    Type
REMARK                         _______ _______ _______ _____ _____    ______ ____
ROOT
ATOM      1  C   UNL     1      -1.550   0.770  -5.451  0.00  0.00    -0.004 C 
ATOM      2  C   UNL     1      -1.421   2.293  -5.395  0.00  0.00    +0.016 C 
ENDROOT
BRANCH   2   8
ATOM      3  C   UNL     1      -3.776   2.846  -5.483  0.00  0.00    -0.077 C 
ATOM      4  C   UNL     1      -4.834   3.618  -6.274  0.00  0.00    -0.006 C 
ATOM      5  C   UNL     1      -4.971   3.002  -7.670  0.00  0.00    +0.072 C 
ATOM      6  C   UNL     1      -3.609   3.033  -8.369  0.00  0.00    -0.006 C 
ATOM      7  C   UNL     1      -2.587   2.278  -7.517  0.00  0.00    -0.077 C 
ATOM      8  N   UNL     1      -2.484   2.934  -6.196  0.00  0.00    +0.387 N 
ATOM      9  H   UNL     1      -2.247   3.924  -6.334  0.00  0.00    -0.081 HD
BRANCH   5  10
ATOM     10  C   UNL     1      -5.969   3.795  -8.474  0.00  0.00    +0.219 C 
ATOM     11  O   UNL     1      -5.583   4.584  -9.311  0.00  0.00    -0.275 OA
ATOM     12  N   UNL     1      -7.289   3.628  -8.264  0.00  0.00    -0.301 N 
ATOM     13  C   UNL     1      -8.216   4.502  -8.949  0.00  0.00    +0.108 C 
ATOM     14  C   UNL     1      -8.477   5.762  -8.098  0.00  0.00    +0.019 C 
ATOM     15  C   UNL     1      -9.289   5.422  -6.919  0.00  0.00    +0.002 C 
ATOM     16  C   UNL     1      -8.621   4.446  -5.956  0.00  0.00    +0.002 C 
ATOM     17  C   UNL     1      -8.874   3.033  -6.421  0.00  0.00    +0.019 C 
ATOM     18  C   UNL     1      -7.730   2.566  -7.340  0.00  0.00    +0.108 C 
ENDBRANCH   5  10
ENDBRANCH   2   8
BRANCH   2  19
ATOM     19  C   UNL     1      -0.082   2.705  -5.952  0.00  0.00    +0.204 C 
ATOM     20  O   UNL     1      -0.015   3.230  -7.043  0.00  0.00    -0.277 OA
ATOM     21  N   UNL     1       1.040   2.490  -5.237  0.00  0.00    -0.281 N 
ATOM     22  H   UNL     1       0.986   2.070  -4.364  0.00  0.00    +0.155 HD
BRANCH  21  23
ATOM     23  C   UNL     1       2.272   2.868  -5.749  0.00  0.00    +0.084 A 
ATOM     24  C   UNL     1       3.522   2.732  -5.172  0.00  0.00    +0.068 A 
ATOM     25  C   UNL     1       4.675   3.212  -5.932  0.00  0.00    -0.023 A 
ATOM     26  C   UNL     1       4.386   3.747  -7.132  0.00  0.00    -0.004 A 
ATOM     27  S   UNL     1       2.619   3.627  -7.265  0.00  0.00    -0.077 S 
ATOM     28  C   UNL     1       5.620   4.213  -7.854  0.00  0.00    +0.043 C 
ATOM     29  C   UNL     1       6.787   3.509  -7.127  0.00  0.00    +0.010 C 
ATOM     30  C   UNL     1       6.189   3.278  -5.725  0.00  0.00    +0.037 C 
BRANCH  24  31
ATOM     31  C   UNL     1       3.685   2.123  -3.848  0.00  0.00    +0.244 C 
ATOM     32  O   UNL     1       3.654   2.818  -2.850  0.00  0.00    -0.270 OA
ATOM     33  N   UNL     1       3.865   0.791  -3.736  0.00  0.00    -0.325 N 
ATOM     34  H   UNL     1       3.969   0.388  -2.860  0.00  0.00    +0.145 HD
ATOM     35  H   UNL     1       3.890   0.237  -4.532  0.00  0.00    +0.145 HD
ENDBRANCH  24  31
ENDBRANCH  21  23
ENDBRANCH   2  19
TORSDOF 5
