REMARK  Name = ZINC07672693
REMARK  12 active torsions:
REMARK  status: ('A' for Active; 'I' for Inactive)
REMARK    1  A    between atoms: C_1  and  C_2
REMARK    2  A    between atoms: C_5  and  O_8
REMARK    3  A    between atoms: O_8  and  C_9
REMARK    4  A    between atoms: C_9  and  C_10
REMARK    5  A    between atoms: C_10  and  O_11
REMARK    6  A    between atoms: O_11  and  C_12
REMARK    7  A    between atoms: C_12  and  C_14
REMARK    8  A    between atoms: C_14  and  C_15
REMARK    9  A    between atoms: C_15  and  C_16
REMARK   10  A    between atoms: C_17  and  C_27
REMARK   11  A    between atoms: C_21  and  C_26
REMARK   12  A    between atoms: C_24  and  C_25
REMARK                            x       y       z     vdW  Elec       q    Type
REMARK                         _______ _______ _______ _____ _____    ______ ____
ROOT
ATOM      1  C   UNL     1       1.249  -2.655  -1.467  0.00  0.00    +0.125 C 
ENDROOT
BRANCH   1   2
ATOM      2  C   UNL     1       1.300  -4.161  -1.476  0.00  0.00    +0.307 C 
ATOM      3  O   UNL     1       1.330  -4.771  -0.434  0.00  0.00    -0.251 OA
BRANCH   2   4
ATOM      4  O   UNL     1       1.311  -4.825  -2.643  0.00  0.00    -0.461 OA
BRANCH   4   5
ATOM      5  C   UNL     1       1.361  -6.275  -2.576  0.00  0.00    +0.273 C 
BRANCH   5   6
ATOM      6  C   UNL     1       1.367  -6.851  -3.993  0.00  0.00    +0.270 C 
BRANCH   6   7
ATOM      7  O   UNL     1       2.570  -6.463  -4.660  0.00  0.00    -0.489 OA
BRANCH   7  12
ATOM      8  C   UNL     1       3.251  -8.255  -9.956  0.00  0.00    +0.044 C 
ATOM      9  C   UNL     1       3.068  -7.775  -8.539  0.00  0.00    -0.050 A 
ATOM     10  C   UNL     1       4.043  -6.995  -7.944  0.00  0.00    +0.007 A 
ATOM     11  C   UNL     1       3.878  -6.555  -6.645  0.00  0.00    +0.046 A 
ATOM     12  C   UNL     1       2.734  -6.895  -5.938  0.00  0.00    +0.121 A 
ATOM     13  C   UNL     1       1.761  -7.682  -6.535  0.00  0.00    +0.046 A 
ATOM     14  C   UNL     1       1.927  -8.115  -7.837  0.00  0.00    +0.007 A 
ENDBRANCH   7  12
ENDBRANCH   6   7
ENDBRANCH   5   6
ENDBRANCH   4   5
ENDBRANCH   2   4
ENDBRANCH   1   2
BRANCH   1  15
ATOM     15  C   UNL     1       1.246  -2.154  -0.022  0.00  0.00    +0.050 C 
BRANCH  15  16
ATOM     16  C   UNL     1       1.195  -0.647  -0.013  0.00  0.00    -0.005 A 
ATOM     17  C   UNL     1       2.381   0.100  -0.020  0.00  0.00    +0.045 A 
ATOM     18  N   UNL     1       2.337   1.411  -0.012  0.00  0.00    -0.233 NA
ATOM     19  C   UNL     1       1.165   2.059   0.002  0.00  0.00    +0.156 A 
ATOM     20  C   UNL     1       0.836   3.408   0.013  0.00  0.00    +0.073 A 
ATOM     21  C   UNL     1      -0.547   3.504   0.027  0.00  0.00    +0.062 A 
ATOM     22  N   UNL     1      -1.060   2.293   0.030  0.00  0.00    -0.170 NA
ATOM     23  N   UNL     1      -0.016   1.361   0.009  0.00  0.00    -0.218 N 
ATOM     24  C   UNL     1       0.002  -0.004   0.002  0.00  0.00    +0.047 A 
ATOM     25  C   UNL     1      -1.287  -0.785   0.010  0.00  0.00    +0.066 C 
ATOM     26  C   UNL     1      -1.335   4.788   0.042  0.00  0.00    +0.067 C 
ATOM     27  C   UNL     1       3.713  -0.606  -0.037  0.00  0.00    +0.066 C 
ENDBRANCH  15  16
ENDBRANCH   1  15
TORSDOF 8
