REMARK  Name = ZINC12495699
REMARK  6 active torsions:
REMARK  status: ('A' for Active; 'I' for Inactive)
REMARK    1  A    between atoms: C_1  and  N_2
REMARK    2  A    between atoms: C_7  and  C_24
REMARK    3  A    between atoms: C_9  and  C_14
REMARK    4  A    between atoms: C_9  and  C_20
REMARK    5  A    between atoms: C_20  and  O_22
REMARK    6  A    between atoms: O_22  and  C_23
REMARK                            x       y       z     vdW  Elec       q    Type
REMARK                         _______ _______ _______ _____ _____    ______ ____
ROOT
ATOM      1  C   UNL     1       4.583   3.394   1.060  0.00  0.00    +0.141 C 
ATOM      2  N   UNL     1       3.420   2.543   0.795  0.00  0.00    -0.245 N 
ATOM      3  C   UNL     1       2.166   3.030   0.521  0.00  0.00    +0.224 C 
ATOM      4  O   UNL     1       1.760   4.160   0.686  0.00  0.00    -0.275 OA
ATOM      5  C   UNL     1       1.414   1.889  -0.001  0.00  0.00    +0.078 C 
ATOM      6  C   UNL     1      -0.018   1.495   0.010  0.00  0.00    -0.019 C 
ATOM      7  C   UNL     1       1.433  -0.436   0.154  0.00  0.00    +0.070 C 
ATOM      8  C   UNL     1       2.051   0.738   0.874  0.00  0.00    +0.090 C 
ATOM      9  C   UNL     1       3.464   1.174   0.795  0.00  0.00    +0.225 C 
ATOM     10  O   UNL     1       4.449   0.469   0.742  0.00  0.00    -0.275 OA
ATOM     11  N   UNL     1       0.013   0.004   0.003  0.00  0.00    +0.398 N 
ATOM     12  H   UNL     1      -0.366  -0.346  -0.884  0.00  0.00    -0.083 HD
ATOM     13  H   UNL     1      -0.548  -0.358   0.783  0.00  0.00    -0.083 HD
ENDROOT
BRANCH   7  14
ATOM     14  C   UNL     1       1.528  -1.690   0.986  0.00  0.00    -0.047 A 
ATOM     15  C   UNL     1       2.640  -1.912   1.776  0.00  0.00    +0.003 A 
ATOM     16  C   UNL     1       2.725  -3.060   2.542  0.00  0.00    +0.000 A 
ATOM     17  C   UNL     1       1.703  -3.990   2.510  0.00  0.00    +0.000 A 
ATOM     18  C   UNL     1       0.593  -3.770   1.715  0.00  0.00    +0.000 A 
ATOM     19  C   UNL     1       0.506  -2.620   0.953  0.00  0.00    +0.003 A 
ENDBRANCH   7  14
BRANCH   6  20
ATOM     20  C   UNL     1      -0.693   2.005   1.258  0.00  0.00    -0.023 A 
ATOM     21  C   UNL     1      -1.524   3.066   1.406  0.00  0.00    +0.009 A 
ATOM     22  C   UNL     1      -2.034   3.348   2.659  0.00  0.00    +0.008 A 
ATOM     23  C   UNL     1      -1.681   2.561   3.705  0.00  0.00    +0.045 A 
ATOM     24  S   UNL     1      -0.600   1.373   2.925  0.00  0.00    -0.103 S 
ENDBRANCH   6  20
BRANCH   7  25
ATOM     25  C   UNL     1       2.078  -0.639  -1.192  0.00  0.00    +0.301 C 
ATOM     26  O   UNL     1       3.237  -0.342  -1.358  0.00  0.00    -0.252 OA
BRANCH  25  27
ATOM     27  O   UNL     1       1.364  -1.151  -2.208  0.00  0.00    -0.469 OA
ATOM     28  C   UNL     1       2.050  -1.319  -3.477  0.00  0.00    +0.280 C 
ENDBRANCH  25  27
ENDBRANCH   7  25
TORSDOF 4
