REMARK  Name = ZINC40334008
REMARK  5 active torsions:
REMARK  status: ('A' for Active; 'I' for Inactive)
REMARK    1  A    between atoms: C_1  and  C_2
REMARK    2  A    between atoms: C_4  and  C_7
REMARK    3  A    between atoms: N_12  and  S_13
REMARK    4  A    between atoms: S_13  and  C_16
REMARK    5  A    between atoms: C_21  and  N_22
REMARK                            x       y       z     vdW  Elec       q    Type
REMARK                         _______ _______ _______ _____ _____    ______ ____
ROOT
ATOM      1  S   UNL     1      -2.438  -4.214  -0.770  0.00  0.00    +0.063 S 
ATOM      2  O   UNL     1      -2.854  -5.184   0.182  0.00  0.00    -0.153 OA
ATOM      3  O   UNL     1      -2.584  -2.818  -0.549  0.00  0.00    -0.153 OA
ENDROOT
BRANCH   1   4
ATOM      4  C   UNL     1      -3.291  -4.580  -2.267  0.00  0.00    +0.126 A 
ATOM      5  C   UNL     1      -3.937  -3.573  -2.959  0.00  0.00    +0.030 A 
ATOM      6  C   UNL     1      -4.607  -3.859  -4.133  0.00  0.00    +0.002 A 
ATOM      7  C   UNL     1      -4.634  -5.153  -4.621  0.00  0.00    +0.002 A 
ATOM      8  C   UNL     1      -3.991  -6.164  -3.935  0.00  0.00    +0.025 A 
ATOM      9  C   UNL     1      -3.312  -5.879  -2.757  0.00  0.00    +0.051 A 
BRANCH   9  10
ATOM     10  N   UNL     1      -2.655  -6.899  -2.063  0.00  0.00    -0.356 N 
ATOM     11  H   UNL     1      -2.250  -6.716  -1.201  0.00  0.00    +0.142 HD
ATOM     12  H   UNL     1      -2.605  -7.790  -2.444  0.00  0.00    +0.142 HD
ENDBRANCH   9  10
ENDBRANCH   1   4
BRANCH   1  17
ATOM     13  C   UNL     1       0.109  -3.527  -1.654  0.00  0.00    +0.148 C 
ATOM     14  C   UNL     1       1.498  -4.199  -1.687  0.00  0.00    +0.030 C 
ATOM     15  C   UNL     1       1.388  -5.280  -0.579  0.00  0.00    +0.019 C 
ATOM     16  C   UNL     1      -0.090  -5.722  -0.723  0.00  0.00    +0.110 C 
ATOM     17  N   UNL     1      -0.827  -4.484  -1.046  0.00  0.00    -0.166 NA
BRANCH  13  21
ATOM     18  C   UNL     1       0.348   1.372  -0.278  0.00  0.00    +0.069 C 
ATOM     19  C   UNL     1       0.272  -0.131  -0.204  0.00  0.00    +0.081 A 
ATOM     20  C   UNL     1       0.235  -1.011  -1.300  0.00  0.00    +0.072 A 
ATOM     21  C   UNL     1       0.168  -2.270  -0.826  0.00  0.00    +0.156 A 
ATOM     22  O   UNL     1       0.161  -2.207   0.515  0.00  0.00    -0.358 OA
ATOM     23  N   UNL     1       0.234  -0.843   0.887  0.00  0.00    -0.083 NA
ENDBRANCH  13  21
ENDBRANCH   1  17
TORSDOF 4
