REMARK  Name = ZINC39609237
REMARK  13 active torsions:
REMARK  status: ('A' for Active; 'I' for Inactive)
REMARK    1  A    between atoms: C_1  and  C_2
REMARK    2  A    between atoms: C_5  and  C_9
REMARK    3  A    between atoms: C_7  and  C_8
REMARK    4  A    between atoms: C_9  and  C_10
REMARK    5  A    between atoms: C_10  and  N_11
REMARK    6  A    between atoms: C_12  and  C_14
REMARK    7  A    between atoms: C_25  and  C_27
REMARK    8  A    between atoms: C_29  and  O_37
REMARK    9  A    between atoms: C_30  and  O_35
REMARK   10  A    between atoms: C_31  and  O_33
REMARK   11  A    between atoms: O_33  and  C_34
REMARK   12  A    between atoms: O_35  and  C_36
REMARK   13  A    between atoms: O_37  and  C_38
REMARK                            x       y       z     vdW  Elec       q    Type
REMARK                         _______ _______ _______ _____ _____    ______ ____
ROOT
ATOM      1  C   UNL     1       2.476  -9.028  -0.042  0.00  0.00    +0.100 C 
ATOM      2  C   UNL     1       1.762  -9.244  -1.396  0.00  0.00    +0.121 C 
ATOM      3  N   UNL     1       2.861  -9.409  -2.376  0.00  0.00    -0.296 N 
ATOM      4  C   UNL     1       3.875 -10.220  -1.661  0.00  0.00    +0.115 C 
ATOM      5  C   UNL     1       3.861  -9.674  -0.219  0.00  0.00    -0.004 C 
ATOM      6  C   UNL     1       4.045 -10.812   0.779  0.00  0.00    -0.010 C 
ATOM      7  C   UNL     1       5.450 -11.400   0.623  0.00  0.00    -0.082 C 
ATOM      8  N   UNL     1       6.450 -10.351   0.858  0.00  0.00    +0.379 N 
ATOM      9  C   UNL     1       6.326  -9.304  -0.164  0.00  0.00    -0.082 C 
ATOM     10  C   UNL     1       4.958  -8.628  -0.042  0.00  0.00    -0.010 C 
ATOM     11  C   UNL     1       2.923  -8.931  -3.635  0.00  0.00    +0.247 C 
ATOM     12  O   UNL     1       2.064  -8.173  -4.041  0.00  0.00    -0.270 OA
ATOM     13  H   UNL     1       6.304  -9.947   1.770  0.00  0.00    -0.086 HD
ATOM     14  H   UNL     1       7.374 -10.754   0.815  0.00  0.00    -0.086 HD
ENDROOT
BRANCH  11  15
ATOM     15  C   UNL     1       4.036  -9.327  -4.521  0.00  0.00    +0.044 A 
ATOM     16  C   UNL     1       4.759 -10.493  -4.257  0.00  0.00    +0.062 A 
ATOM     17  C   UNL     1       5.800 -10.862  -5.088  0.00  0.00    +0.166 A 
ATOM     18  C   UNL     1       6.128 -10.073  -6.187  0.00  0.00    +0.204 A 
ATOM     19  C   UNL     1       5.409  -8.911  -6.452  0.00  0.00    +0.166 A 
ATOM     20  C   UNL     1       4.363  -8.540  -5.628  0.00  0.00    +0.062 A 
BRANCH  19  21
ATOM     21  O   UNL     1       5.732  -8.142  -7.527  0.00  0.00    -0.491 OA
ATOM     22  C   UNL     1       4.953  -6.963  -7.739  0.00  0.00    +0.277 C 
ENDBRANCH  19  21
BRANCH  18  23
ATOM     23  O   UNL     1       7.152 -10.438  -7.003  0.00  0.00    -0.488 OA
ATOM     24  C   UNL     1       6.830 -11.279  -8.112  0.00  0.00    +0.277 C 
ENDBRANCH  18  23
BRANCH  17  25
ATOM     25  O   UNL     1       6.505 -11.997  -4.831  0.00  0.00    -0.491 OA
ATOM     26  C   UNL     1       6.114 -12.758  -3.687  0.00  0.00    +0.277 C 
ENDBRANCH  17  25
ENDBRANCH  11  15
BRANCH   1  28
ATOM     27  N   UNL     1       2.753  -7.130   1.520  0.00  0.00    -0.315 N 
ATOM     28  C   UNL     1       2.617  -7.556   0.248  0.00  0.00    +0.218 C 
ATOM     29  O   UNL     1       2.607  -6.755  -0.662  0.00  0.00    -0.275 OA
ATOM     30  H   UNL     1       2.761  -7.771   2.248  0.00  0.00    +0.149 HD
BRANCH  27  31
ATOM     31  C   UNL     1       2.890  -5.699   1.802  0.00  0.00    +0.109 C 
BRANCH  31  32
ATOM     32  C   UNL     1       3.029  -5.488   3.311  0.00  0.00    +0.054 C 
BRANCH  32  37
ATOM     33  C   UNL     1       3.567   0.156   4.429  0.00  0.00    +0.044 C 
ATOM     34  C   UNL     1       3.427  -1.316   4.137  0.00  0.00    -0.048 A 
ATOM     35  C   UNL     1       2.172  -1.897   4.098  0.00  0.00    +0.004 A 
ATOM     36  C   UNL     1       2.043  -3.247   3.831  0.00  0.00    +0.004 A 
ATOM     37  C   UNL     1       3.169  -4.016   3.602  0.00  0.00    -0.046 A 
ATOM     38  C   UNL     1       4.423  -3.436   3.639  0.00  0.00    +0.007 A 
ATOM     39  C   UNL     1       4.551  -2.085   3.903  0.00  0.00    -0.047 A 
ATOM     40  C   UNL     1       5.918  -1.451   3.939  0.00  0.00    +0.044 C 
ENDBRANCH  32  37
ENDBRANCH  31  32
ENDBRANCH  27  31
ENDBRANCH   1  28
TORSDOF 8
