REMARK  Name = ZINC05791543
REMARK  11 active torsions:
REMARK  status: ('A' for Active; 'I' for Inactive)
REMARK    1  A    between atoms: C_1  and  C_2
REMARK    2  A    between atoms: C_3  and  C_22
REMARK    3  A    between atoms: C_4  and  C_12
REMARK    4  A    between atoms: C_6  and  C_10
REMARK    5  A    between atoms: C_7  and  N_9
REMARK    6  A    between atoms: C_15  and  O_18
REMARK    7  A    between atoms: O_18  and  C_19
REMARK    8  A    between atoms: C_19  and  C_20
REMARK    9  A    between atoms: C_19  and  C_21
REMARK   10  A    between atoms: C_22  and  O_24
REMARK   11  A    between atoms: O_24  and  C_25
REMARK                            x       y       z     vdW  Elec       q    Type
REMARK                         _______ _______ _______ _____ _____    ______ ____
ROOT
ATOM      1  C   UNL     1      -5.143   1.000  -6.397  0.00  0.00    +0.087 C 
ATOM      2  C   UNL     1      -4.518  -0.264  -5.864  0.00  0.00    +0.115 C 
ATOM      3  C   UNL     1      -3.225  -0.503  -6.117  0.00  0.00    +0.087 C 
ATOM      4  C   UNL     1      -2.551  -1.749  -5.611  0.00  0.00    +0.105 C 
ATOM      5  C   UNL     1      -3.589  -2.758  -5.201  0.00  0.00    +0.098 C 
ATOM      6  C   UNL     1      -4.876  -2.385  -5.000  0.00  0.00    +0.198 C 
ATOM      7  O   UNL     1      -5.277  -1.111  -5.153  0.00  0.00    -0.445 OA
ENDROOT
BRANCH   4   8
ATOM      8  C   UNL     1      -1.689  -1.405  -4.424  0.00  0.00    -0.034 A 
ATOM      9  C   UNL     1      -0.327  -1.640  -4.469  0.00  0.00    +0.008 A 
ATOM     10  C   UNL     1       0.465  -1.326  -3.382  0.00  0.00    +0.046 A 
ATOM     11  C   UNL     1      -0.106  -0.775  -2.244  0.00  0.00    +0.121 A 
ATOM     12  C   UNL     1      -1.474  -0.546  -2.200  0.00  0.00    +0.046 A 
ATOM     13  C   UNL     1      -2.261  -0.856  -3.292  0.00  0.00    +0.008 A 
BRANCH  11  14
ATOM     14  O   UNL     1       0.671  -0.465  -1.174  0.00  0.00    -0.489 OA
BRANCH  14  15
ATOM     15  C   UNL     1       0.002  -0.011   0.005  0.00  0.00    +0.167 C 
ATOM     16  C   UNL     1      -0.255   1.493  -0.102  0.00  0.00    +0.051 C 
ATOM     17  C   UNL     1       0.875  -0.294   1.228  0.00  0.00    +0.051 C 
ENDBRANCH  14  15
ENDBRANCH  11  14
ENDBRANCH   4   8
BRANCH   6  18
ATOM     18  N   UNL     1      -5.796  -3.334  -4.628  0.00  0.00    -0.328 N 
ATOM     19  H   UNL     1      -5.521  -4.257  -4.513  0.00  0.00    +0.145 HD
ATOM     20  H   UNL     1      -6.721  -3.082  -4.481  0.00  0.00    +0.145 HD
ENDBRANCH   6  18
BRANCH   5  21
ATOM     21  C   UNL     1      -3.213  -4.128  -5.021  0.00  0.00    +0.101 C 
ATOM     22  N   UNL     1      -2.914  -5.215  -4.879  0.00  0.00    -0.191 NA
ENDBRANCH   5  21
BRANCH   3  23
ATOM     23  C   UNL     1      -2.480   0.434  -6.874  0.00  0.00    +0.339 C 
ATOM     24  O   UNL     1      -3.015   1.445  -7.289  0.00  0.00    -0.245 OA
BRANCH  23  25
ATOM     25  O   UNL     1      -1.176   0.205  -7.136  0.00  0.00    -0.465 OA
ATOM     26  C   UNL     1      -0.485   1.192  -7.905  0.00  0.00    +0.280 C 
ENDBRANCH  23  25
ENDBRANCH   3  23
TORSDOF 7
