REMARK  Name = ZINC03227708
REMARK  10 active torsions:
REMARK  status: ('A' for Active; 'I' for Inactive)
REMARK    1  A    between atoms: C_1  and  C_2
REMARK    2  A    between atoms: C_3  and  C_28
REMARK    3  A    between atoms: C_9  and  O_13
REMARK    4  A    between atoms: O_13  and  C_14
REMARK    5  A    between atoms: C_14  and  C_15
REMARK    6  A    between atoms: C_15  and  C_17
REMARK    7  A    between atoms: C_15  and  O_27
REMARK    8  A    between atoms: C_17  and  N_64
REMARK    9  A    between atoms: C_31  and  O_34
REMARK   10  A    between atoms: O_34  and  C_35
REMARK                            x       y       z     vdW  Elec       q    Type
REMARK                         _______ _______ _______ _____ _____    ______ ____
ROOT
ATOM      1  C   UNL     1       0.002  -0.004   0.002  0.00  0.00    +0.087 C 
ATOM      2  C   UNL     1      -0.018   1.503   0.010  0.00  0.00    +0.114 A 
ATOM      3  C   UNL     1       1.163   2.171   0.003  0.00  0.00    +0.067 A 
ATOM      4  C   UNL     1       1.143   3.644   0.010  0.00  0.00    +0.200 A 
ATOM      5  O   UNL     1       2.172   4.298   0.004  0.00  0.00    -0.286 OA
ATOM      6  C   UNL     1      -0.182   4.290   0.026  0.00  0.00    +0.065 A 
ATOM      7  C   UNL     1      -0.310   5.680   0.034  0.00  0.00    +0.019 A 
ATOM      8  C   UNL     1      -1.553   6.245   0.048  0.00  0.00    +0.046 A 
ATOM      9  C   UNL     1      -2.691   5.442   0.055  0.00  0.00    +0.124 A 
ATOM     10  C   UNL     1      -2.580   4.062   0.047  0.00  0.00    +0.092 A 
ATOM     11  C   UNL     1      -1.324   3.470   0.032  0.00  0.00    +0.142 A 
ATOM     12  O   UNL     1      -1.198   2.129   0.019  0.00  0.00    -0.459 OA
ENDROOT
BRANCH   3  13
ATOM     13  C   UNL     1       2.450   1.433  -0.014  0.00  0.00    -0.011 A 
ATOM     14  C   UNL     1       2.815   0.642   1.074  0.00  0.00    +0.012 A 
ATOM     15  C   UNL     1       4.009  -0.048   1.054  0.00  0.00    +0.046 A 
ATOM     16  C   UNL     1       4.852   0.054  -0.044  0.00  0.00    +0.120 A 
ATOM     17  C   UNL     1       4.494   0.846  -1.127  0.00  0.00    +0.046 A 
ATOM     18  C   UNL     1       3.299   1.534  -1.115  0.00  0.00    +0.012 A 
BRANCH  16  19
ATOM     19  O   UNL     1       6.031  -0.622  -0.059  0.00  0.00    -0.495 OA
ATOM     20  C   UNL     1       6.337  -1.418   1.088  0.00  0.00    +0.277 C 
ENDBRANCH  16  19
ENDBRANCH   3  13
BRANCH   9  21
ATOM     21  O   UNL     1      -3.920   6.018   0.070  0.00  0.00    -0.489 OA
BRANCH  21  22
ATOM     22  C   UNL     1      -3.968   7.446   0.077  0.00  0.00    +0.258 C 
BRANCH  22  23
ATOM     23  C   UNL     1      -5.426   7.908   0.094  0.00  0.00    +0.135 C 
BRANCH  23  24
ATOM     24  O   UNL     1      -6.064   7.515  -1.123  0.00  0.00    -0.390 OA
ATOM     25  H   UNL     1      -5.657   7.885  -1.918  0.00  0.00    +0.210 HD
ENDBRANCH  23  24
BRANCH  23  26
ATOM     26  C   UNL     1      -5.478   9.431   0.228  0.00  0.00    -0.043 C 
BRANCH  26  36
ATOM     27  C   UNL     1      -6.984  11.329   0.279  0.00  0.00    -0.074 C 
ATOM     28  C   UNL     1      -8.451  11.694   0.057  0.00  0.00    +0.017 C 
ATOM     29  C   UNL     1      -9.316  10.993   1.073  0.00  0.00    -0.048 A 
ATOM     30  C   UNL     1     -10.609  11.453   1.272  0.00  0.00    +0.004 A 
ATOM     31  C   UNL     1     -11.435  10.836   2.189  0.00  0.00    +0.000 A 
ATOM     32  C   UNL     1     -10.971   9.754   2.915  0.00  0.00    +0.000 A 
ATOM     33  C   UNL     1      -9.684   9.297   2.719  0.00  0.00    +0.002 A 
ATOM     34  C   UNL     1      -8.851   9.916   1.798  0.00  0.00    -0.061 A 
ATOM     35  C   UNL     1      -7.454   9.383   1.623  0.00  0.00    -0.043 C 
ATOM     36  N   UNL     1      -6.891   9.857   0.347  0.00  0.00    +0.384 N 
ATOM     37  H   UNL     1      -7.428   9.451  -0.428  0.00  0.00    -0.081 HD
ENDBRANCH  26  36
ENDBRANCH  23  26
ENDBRANCH  22  23
ENDBRANCH  21  22
ENDBRANCH   9  21
TORSDOF 8
