REMARK  Name = ZINC20685390
REMARK  8 active torsions:
REMARK  status: ('A' for Active; 'I' for Inactive)
REMARK    1  A    between atoms: C_1  and  C_2
REMARK    2  A    between atoms: C_2  and  C_3
REMARK    3  A    between atoms: C_3  and  C_5
REMARK    4  A    between atoms: C_3  and  O_6
REMARK    5  A    between atoms: O_6  and  C_7
REMARK    6  A    between atoms: C_20  and  C_23
REMARK    7  A    between atoms: N_35  and  C_36
REMARK    8  A    between atoms: C_36  and  C_37
REMARK                            x       y       z     vdW  Elec       q    Type
REMARK                         _______ _______ _______ _____ _____    ______ ____
ROOT
ATOM      1  C   UNL     1       3.406  11.637   0.767  0.00  0.00    +0.121 A 
ATOM      2  C   UNL     1       3.139  11.691  -0.594  0.00  0.00    +0.047 A 
ATOM      3  C   UNL     1       1.976  11.133  -1.084  0.00  0.00    +0.027 A 
ATOM      4  C   UNL     1       1.077  10.522  -0.218  0.00  0.00    +0.032 A 
ATOM      5  C   UNL     1       1.336  10.467   1.140  0.00  0.00    -0.016 A 
ATOM      6  C   UNL     1       2.508  11.029   1.628  0.00  0.00    +0.051 A 
ATOM      7  C   UNL     1       0.398   9.823   2.126  0.00  0.00    +0.049 C 
ATOM      8  C   UNL     1      -0.022  10.904   3.124  0.00  0.00    -0.023 C 
ATOM      9  C   UNL     1      -1.178  11.420   2.787  0.00  0.00    -0.030 C 
ATOM     10  C   UNL     1      -1.699  10.771   1.517  0.00  0.00    +0.033 C 
ATOM     11  C   UNL     1      -0.942   9.422   1.484  0.00  0.00    +0.029 C 
ATOM     12  C   UNL     1      -0.771   8.927   0.060  0.00  0.00    +0.105 C 
ATOM     13  N   UNL     1      -0.107   9.961  -0.743  0.00  0.00    -0.336 N 
ATOM     14  H   UNL     1      -0.536  10.267  -1.708  0.00  0.00    +0.147 HD
ENDROOT
BRANCH  12  15
ATOM     15  C   UNL     1       0.070   7.676   0.061  0.00  0.00    -0.026 A 
ATOM     16  C   UNL     1       1.452   7.773   0.041  0.00  0.00    +0.007 A 
ATOM     17  C   UNL     1       2.235   6.638   0.041  0.00  0.00    +0.027 A 
ATOM     18  C   UNL     1       1.638   5.381   0.063  0.00  0.00    +0.050 A 
ATOM     19  C   UNL     1       0.239   5.285   0.084  0.00  0.00    +0.008 A 
ATOM     20  C   UNL     1      -0.540   6.440   0.083  0.00  0.00    +0.016 A 
ATOM     21  C   UNL     1      -0.081   3.846   0.103  0.00  0.00    +0.008 A 
ATOM     22  C   UNL     1      -1.276   3.130   0.127  0.00  0.00    +0.010 A 
ATOM     23  C   UNL     1      -1.248   1.752   0.135  0.00  0.00    +0.001 A 
ATOM     24  C   UNL     1      -0.037   1.077   0.130  0.00  0.00    +0.002 A 
ATOM     25  C   UNL     1       1.152   1.774   0.107  0.00  0.00    +0.026 A 
ATOM     26  C   UNL     1       1.145   3.165   0.093  0.00  0.00    +0.050 A 
ATOM     27  N   UNL     1       2.163   4.101   0.069  0.00  0.00    -0.340 N 
BRANCH  27  28
ATOM     28  C   UNL     1       3.593   3.783   0.052  0.00  0.00    +0.119 C 
ATOM     29  C   UNL     1       4.071   3.658  -1.396  0.00  0.00    +0.027 C 
ENDBRANCH  27  28
ENDBRANCH  12  15
BRANCH   1  30
ATOM     30  O   UNL     1       4.551  12.184   1.256  0.00  0.00    -0.489 OA
BRANCH  30  31
ATOM     31  C   UNL     1       5.372  12.902   0.333  0.00  0.00    +0.170 C 
ATOM     32  C   UNL     1       6.293  11.923  -0.399  0.00  0.00    +0.052 C 
BRANCH  31  34
ATOM     33  C   UNL     1       5.302  14.977   1.723  0.00  0.00    +0.007 C 
ATOM     34  C   UNL     1       6.218  13.926   1.093  0.00  0.00    +0.041 C 
ENDBRANCH  31  34
ENDBRANCH  30  31
ENDBRANCH   1  30
TORSDOF 5
