REMARK  Name = ZINC43302282
REMARK  11 active torsions:
REMARK  status: ('A' for Active; 'I' for Inactive)
REMARK    1  A    between atoms: C_1  and  C_2
REMARK    2  A    between atoms: C_2  and  C_3
REMARK    3  A    between atoms: C_8  and  N_9
REMARK    4  A    between atoms: C_10  and  C_12
REMARK    5  A    between atoms: C_12  and  N_13
REMARK    6  A    between atoms: N_13  and  C_14
REMARK    7  A    between atoms: N_13  and  C_15
REMARK    8  A    between atoms: C_15  and  C_17
REMARK    9  A    between atoms: C_15  and  C_18
REMARK   10  A    between atoms: C_24  and  C_30
REMARK   11  A    between atoms: C_25  and  C_29
REMARK                            x       y       z     vdW  Elec       q    Type
REMARK                         _______ _______ _______ _____ _____    ______ ____
ROOT
ATOM      1  N   UNL     1       6.383  -0.427   0.899  0.00  0.00    +0.390 N 
ATOM      2  C   UNL     1       6.288  -1.877   0.682  0.00  0.00    -0.095 C 
ATOM      3  H   UNL     1       6.856  -0.000   0.117  0.00  0.00    -0.081 HD
ENDROOT
BRANCH   1   4
ATOM      4  C   UNL     1       7.138  -0.164   2.131  0.00  0.00    -0.004 C 
ATOM      5  C   UNL     1       7.092   1.332   2.448  0.00  0.00    -0.005 C 
BRANCH   4   6
ATOM      6  C   UNL     1       8.569  -0.595   1.945  0.00  0.00    +0.097 A 
ATOM      7  N   UNL     1       9.468  -0.370   2.938  0.00  0.00    -0.312 N 
ATOM      8  H   UNL     1       9.175   0.064   3.755  0.00  0.00    +0.170 HD
ATOM      9  C   UNL     1      10.756  -0.740   2.813  0.00  0.00    +0.260 A 
ATOM     10  O   UNL     1      11.550  -0.532   3.714  0.00  0.00    -0.267 OA
ATOM     11  C   UNL     1      11.180  -1.381   1.604  0.00  0.00    +0.075 A 
ATOM     12  C   UNL     1      12.495  -1.867   1.231  0.00  0.00    -0.026 A 
ATOM     13  C   UNL     1      12.665  -2.443   0.031  0.00  0.00    -0.008 A 
ATOM     14  S   UNL     1      11.039  -2.371  -0.696  0.00  0.00    -0.073 S 
ATOM     15  C   UNL     1      10.179  -1.570   0.633  0.00  0.00    +0.116 A 
ATOM     16  N   UNL     1       8.923  -1.182   0.833  0.00  0.00    -0.228 NA
ATOM     17  C   UNL     1      13.928  -3.014  -0.561  0.00  0.00    +0.052 C 
ATOM     18  C   UNL     1      13.657  -1.726   2.181  0.00  0.00    +0.045 C 
ENDBRANCH   4   6
ENDBRANCH   1   4
BRANCH   1  19
ATOM     19  C   UNL     1       5.032   0.139   1.021  0.00  0.00    +0.019 C 
BRANCH  19  21
ATOM     20  N   UNL     1       3.035   0.426  -0.409  0.00  0.00    -0.287 N 
ATOM     21  C   UNL     1       4.300  -0.022  -0.286  0.00  0.00    +0.201 C 
ATOM     22  O   UNL     1       4.848  -0.556  -1.227  0.00  0.00    -0.278 OA
ATOM     23  H   UNL     1       2.619   0.911   0.321  0.00  0.00    +0.155 HD
BRANCH  20  29
ATOM     24  C   UNL     1       0.953  -0.038  -1.542  0.00  0.00    -0.026 A 
ATOM     25  C   UNL     1       0.251  -0.263  -2.710  0.00  0.00    +0.005 A 
ATOM     26  C   UNL     1       0.910  -0.263  -3.925  0.00  0.00    +0.000 A 
ATOM     27  C   UNL     1       2.274  -0.038  -3.976  0.00  0.00    +0.002 A 
ATOM     28  C   UNL     1       2.982   0.187  -2.812  0.00  0.00    +0.023 A 
ATOM     29  C   UNL     1       2.322   0.193  -1.590  0.00  0.00    +0.036 A 
BRANCH  24  31
ATOM     30  C   UNL     1      -0.144   1.396   0.157  0.00  0.00    +0.009 C 
ATOM     31  C   UNL     1       0.234  -0.038  -0.218  0.00  0.00    +0.033 C 
ENDBRANCH  24  31
ENDBRANCH  20  29
ENDBRANCH  19  21
ENDBRANCH   1  19
TORSDOF 6
