REMARK  Name = ZINC56634149
REMARK  10 active torsions:
REMARK  status: ('A' for Active; 'I' for Inactive)
REMARK    1  A    between atoms: C_1  and  C_2
REMARK    2  A    between atoms: C_6  and  C_24
REMARK    3  A    between atoms: C_7  and  N_8
REMARK    4  A    between atoms: C_9  and  S_13
REMARK    5  A    between atoms: S_13  and  C_14
REMARK    6  A    between atoms: C_14  and  C_15
REMARK    7  A    between atoms: N_17  and  C_18
REMARK    8  A    between atoms: N_17  and  C_21
REMARK    9  A    between atoms: C_18  and  C_19
REMARK   10  A    between atoms: C_21  and  C_22
REMARK                            x       y       z     vdW  Elec       q    Type
REMARK                         _______ _______ _______ _____ _____    ______ ____
ROOT
ATOM      1  N   UNL     1       0.020  -0.026   2.427  0.00  0.00    -0.187 N 
ATOM      2  C   UNL     1       0.228  -0.545   3.663  0.00  0.00    +0.214 A 
ATOM      3  N   UNL     1       0.139   0.450   4.519  0.00  0.00    -0.101 NA
ATOM      4  N   UNL     1      -0.109   1.551   3.905  0.00  0.00    -0.022 NA
ATOM      5  N   UNL     1      -0.190   1.349   2.635  0.00  0.00    -0.038 NA
ENDROOT
BRANCH   1  12
ATOM      6  C   UNL     1       1.929   0.735   0.457  0.00  0.00    +0.046 C 
ATOM      7  C   UNL     1       0.935  -0.372   0.216  0.00  0.00    -0.025 A 
ATOM      8  C   UNL     1       0.936  -1.053  -0.986  0.00  0.00    +0.005 A 
ATOM      9  C   UNL     1       0.025  -2.069  -1.208  0.00  0.00    +0.001 A 
ATOM     10  C   UNL     1      -0.891  -2.406  -0.228  0.00  0.00    +0.005 A 
ATOM     11  C   UNL     1      -0.897  -1.728   0.976  0.00  0.00    -0.025 A 
ATOM     12  C   UNL     1       0.020  -0.712   1.204  0.00  0.00    +0.076 A 
ATOM     13  C   UNL     1      -1.896  -2.096   2.043  0.00  0.00    +0.046 C 
ENDBRANCH   1  12
BRANCH   2  14
ATOM     14  S   UNL     1       0.555  -2.233   4.049  0.00  0.00    -0.075 S 
BRANCH  14  15
ATOM     15  C   UNL     1       0.730  -2.244   5.854  0.00  0.00    +0.173 C 
BRANCH  15  16
ATOM     16  C   UNL     1       1.017  -3.648   6.323  0.00  0.00    +0.226 C 
ATOM     17  O   UNL     1       1.095  -4.551   5.518  0.00  0.00    -0.275 OA
ATOM     18  N   UNL     1       1.186  -3.898   7.636  0.00  0.00    -0.293 N 
BRANCH  18  19
ATOM     19  C   UNL     1       1.092  -2.807   8.608  0.00  0.00    +0.134 C 
BRANCH  19  20
ATOM     20  C   UNL     1      -0.335  -2.672   9.076  0.00  0.00    -0.016 C 
ATOM     21  C   UNL     1      -0.612  -2.720  10.355  0.00  0.00    +0.005 C 
ENDBRANCH  19  20
ENDBRANCH  18  19
BRANCH  18  22
ATOM     22  C   UNL     1       1.464  -5.263   8.091  0.00  0.00    +0.134 C 
BRANCH  22  23
ATOM     23  C   UNL     1       2.954  -5.491   8.113  0.00  0.00    -0.016 C 
ATOM     24  C   UNL     1       3.538  -5.898   9.213  0.00  0.00    +0.005 C 
ENDBRANCH  22  23
ENDBRANCH  18  22
ENDBRANCH  15  16
ENDBRANCH  14  15
ENDBRANCH   2  14
TORSDOF 8
