REMARK  Name = ZINC07247223
REMARK  7 active torsions:
REMARK  status: ('A' for Active; 'I' for Inactive)
REMARK    1  A    between atoms: C_1  and  C_2
REMARK    2  A    between atoms: C_7  and  N_8
REMARK    3  A    between atoms: C_11  and  C_16
REMARK    4  A    between atoms: C_16  and  N_51
REMARK    5  A    between atoms: C_17  and  C_18
REMARK    6  A    between atoms: C_17  and  N_51
REMARK    7  A    between atoms: C_25  and  N_51
REMARK                            x       y       z     vdW  Elec       q    Type
REMARK                         _______ _______ _______ _____ _____    ______ ____
ROOT
ATOM      1  N   UNL     1       2.970   3.194   2.125  0.00  0.00    -0.283 N 
ATOM      2  C   UNL     1       2.330   2.057   1.670  0.00  0.00    +0.224 A 
ATOM      3  N   UNL     1       1.041   2.104   1.344  0.00  0.00    -0.201 NA
ATOM      4  C   UNL     1       0.428   1.017   0.908  0.00  0.00    +0.120 A 
ATOM      5  N   UNL     1       1.092  -0.120   0.796  0.00  0.00    -0.202 NA
ATOM      6  C   UNL     1       2.381  -0.175   1.120  0.00  0.00    +0.217 A 
ATOM      7  N   UNL     1       3.001   0.916   1.558  0.00  0.00    -0.181 NA
ATOM      8  N   UNL     1       3.074  -1.363   1.002  0.00  0.00    -0.327 N 
ATOM      9  H   UNL     1       2.507   4.046   2.121  0.00  0.00    +0.155 HD
ATOM     10  H   UNL     1       2.620  -2.159   0.683  0.00  0.00    +0.145 HD
ATOM     11  H   UNL     1       4.013  -1.402   1.239  0.00  0.00    +0.145 HD
ENDROOT
BRANCH   1  18
ATOM     12  C   UNL     1       4.612   5.508   1.908  0.00  0.00    +0.045 C 
ATOM     13  C   UNL     1       5.122   4.221   2.505  0.00  0.00    -0.029 A 
ATOM     14  C   UNL     1       6.421   4.141   2.968  0.00  0.00    +0.005 A 
ATOM     15  C   UNL     1       6.889   2.962   3.516  0.00  0.00    +0.000 A 
ATOM     16  C   UNL     1       6.060   1.859   3.604  0.00  0.00    +0.002 A 
ATOM     17  C   UNL     1       4.759   1.934   3.148  0.00  0.00    +0.023 A 
ATOM     18  C   UNL     1       4.286   3.116   2.592  0.00  0.00    +0.036 A 
ENDBRANCH   1  18
BRANCH   4  19
ATOM     19  C   UNL     1      -1.031   1.076   0.534  0.00  0.00    -0.000 C 
BRANCH  19  20
ATOM     20  N   UNL     1      -1.842   0.863   1.751  0.00  0.00    +0.389 N 
ATOM     21  H   UNL     1      -1.434   1.405   2.523  0.00  0.00    -0.080 HD
BRANCH  20  22
ATOM     22  C   UNL     1      -1.839  -0.569   2.116  0.00  0.00    -0.068 C 
ATOM     23  C   UNL     1      -1.816  -0.894   3.611  0.00  0.00    -0.017 C 
ATOM     24  C   UNL     1      -0.563  -1.113   2.761  0.00  0.00    -0.017 C 
ENDBRANCH  20  22
BRANCH  20  25
ATOM     25  C   UNL     1      -3.227   1.324   1.522  0.00  0.00    -0.042 C 
BRANCH  25  26
ATOM     26  C   UNL     1      -3.970   1.302   2.833  0.00  0.00    -0.064 A 
ATOM     27  C   UNL     1      -4.670   0.172   3.212  0.00  0.00    +0.004 A 
ATOM     28  C   UNL     1      -5.347   0.149   4.416  0.00  0.00    +0.038 A 
ATOM     29  C   UNL     1      -5.333   1.262   5.239  0.00  0.00    +0.123 A 
ATOM     30  C   UNL     1      -4.636   2.396   4.856  0.00  0.00    +0.038 A 
ATOM     31  C   UNL     1      -3.955   2.414   3.654  0.00  0.00    +0.004 A 
ATOM     32  F   UNL     1      -5.999   1.243   6.415  0.00  0.00    -0.205 F 
ENDBRANCH  25  26
ENDBRANCH  20  25
ENDBRANCH  19  20
ENDBRANCH   4  19
TORSDOF 6
