REMARK  Name = ZINC01395839
REMARK  5 active torsions:
REMARK  status: ('A' for Active; 'I' for Inactive)
REMARK    1  A    between atoms: C_1  and  O_2
REMARK    2  A    between atoms: O_2  and  C_3
REMARK    3  A    between atoms: C_3  and  C_5
REMARK    4  A    between atoms: C_6  and  N_23
REMARK    5  A    between atoms: N_13  and  C_16
REMARK                            x       y       z     vdW  Elec       q    Type
REMARK                         _______ _______ _______ _____ _____    ______ ____
ROOT
ATOM      1  C   UNL     1      -1.231  -2.035   0.009  0.00  0.00    +0.139 A 
ATOM      2  C   UNL     1      -2.342  -2.886  -0.009  0.00  0.00    +0.140 A 
ATOM      3  N   UNL     1      -2.080  -4.174  -0.019  0.00  0.00    -0.210 NA
ATOM      4  C   UNL     1      -0.839  -4.625  -0.012  0.00  0.00    +0.164 A 
ATOM      5  S   UNL     1       0.097  -3.228   0.002  0.00  0.00    -0.044 S 
ATOM      6  N   UNL     1      -0.412  -5.934  -0.020  0.00  0.00    -0.307 N 
ATOM      7  C   UNL     1       1.023  -6.253  -0.003  0.00  0.00    +0.126 C 
ATOM      8  C   UNL     1       1.305  -7.181   1.185  0.00  0.00    +0.124 C 
ATOM      9  N   UNL     1       0.335  -8.284   1.160  0.00  0.00    -0.327 N 
ATOM     10  C   UNL     1      -1.100  -7.966   1.143  0.00  0.00    +0.124 C 
ATOM     11  C   UNL     1      -1.382  -7.038  -0.040  0.00  0.00    +0.126 C 
ENDROOT
BRANCH   9  12
ATOM     12  C   UNL     1       0.769  -9.613   1.152  0.00  0.00    +0.030 A 
ATOM     13  C   UNL     1       2.124  -9.901   1.051  0.00  0.00    +0.024 A 
ATOM     14  C   UNL     1       2.550 -11.215   1.044  0.00  0.00    +0.022 A 
ATOM     15  C   UNL     1       1.628 -12.243   1.136  0.00  0.00    +0.041 A 
ATOM     16  C   UNL     1       0.278 -11.959   1.236  0.00  0.00    +0.022 A 
ATOM     17  C   UNL     1      -0.153 -10.646   1.250  0.00  0.00    +0.024 A 
ATOM     18 CL   UNL     1       2.167 -13.893   1.125  0.00  0.00    -0.084 Cl
ENDBRANCH   9  12
BRANCH   2  19
ATOM     19  N   UNL     1      -3.641  -2.400  -0.016  0.00  0.00    -0.342 N 
ATOM     20  H   UNL     1      -3.801  -1.444  -0.008  0.00  0.00    +0.144 HD
ATOM     21  H   UNL     1      -4.390  -3.017  -0.029  0.00  0.00    +0.144 HD
ENDBRANCH   2  19
BRANCH   1  22
ATOM     22  C   UNL     1      -1.177  -0.628   0.023  0.00  0.00    +0.349 C 
ATOM     23  O   UNL     1      -2.207   0.021   0.025  0.00  0.00    -0.244 OA
BRANCH  22  25
ATOM     24  C   UNL     1      -0.001   1.430   0.048  0.00  0.00    +0.280 C 
ATOM     25  O   UNL     1       0.018   0.001   0.034  0.00  0.00    -0.464 OA
ENDBRANCH  22  25
ENDBRANCH   1  22
TORSDOF 4
