REMARK  Name = ZINC08325625
REMARK  8 active torsions:
REMARK  status: ('A' for Active; 'I' for Inactive)
REMARK    1  A    between atoms: C_1  and  C_2
REMARK    2  A    between atoms: C_4  and  C_11
REMARK    3  A    between atoms: C_7  and  N_8
REMARK    4  A    between atoms: N_13  and  C_14
REMARK    5  A    between atoms: C_14  and  C_15
REMARK    6  A    between atoms: C_15  and  N_16
REMARK    7  A    between atoms: N_16  and  C_17
REMARK    8  A    between atoms: C_20  and  C_22
REMARK                            x       y       z     vdW  Elec       q    Type
REMARK                         _______ _______ _______ _____ _____    ______ ____
ROOT
ATOM      1  C   UNL     1      -5.002   3.496   0.775  0.00  0.00    +0.123 C 
ENDROOT
BRANCH   1   4
ATOM      2  C   UNL     1      -2.582   3.649   0.532  0.00  0.00    +0.244 C 
ATOM      3  O   UNL     1      -2.663   4.838   0.771  0.00  0.00    -0.270 OA
ATOM      4  N   UNL     1      -3.695   2.889   0.511  0.00  0.00    -0.310 N 
ATOM      5  H   UNL     1      -3.631   1.940   0.320  0.00  0.00    +0.149 HD
BRANCH   2   9
ATOM      6  C   UNL     1       2.366   4.088   0.059  0.00  0.00    +0.046 C 
ATOM      7  C   UNL     1       1.118   3.243   0.036  0.00  0.00    -0.020 A 
ATOM      8  C   UNL     1      -0.109   3.821   0.286  0.00  0.00    +0.018 A 
ATOM      9  C   UNL     1      -1.264   3.037   0.265  0.00  0.00    +0.037 A 
ATOM     10  C   UNL     1      -1.168   1.673  -0.015  0.00  0.00    +0.015 A 
ATOM     11  C   UNL     1       0.066   1.106  -0.257  0.00  0.00    +0.034 A 
ATOM     12  C   UNL     1       1.207   1.889  -0.235  0.00  0.00    +0.129 A 
BRANCH  12  13
ATOM     13  N   UNL     1       2.527   1.276  -0.502  0.00  0.00    +0.057 N 
ATOM     14  O   UNL     1       3.371   1.895  -1.126  0.00  0.00    -0.126 OA
ATOM     15  O   UNL     1       2.770   0.153  -0.098  0.00  0.00    -0.126 OA
ENDBRANCH  12  13
ENDBRANCH   2   9
ENDBRANCH   1   4
BRANCH   1  16
ATOM     16  C   UNL     1      -6.089   2.423   0.691  0.00  0.00    +0.121 C 
BRANCH  16  17
ATOM     17  N   UNL     1      -7.396   3.030   0.955  0.00  0.00    -0.328 N 
ATOM     18  H   UNL     1      -7.460   3.979   1.146  0.00  0.00    +0.147 HD
BRANCH  17  19
ATOM     19  C   UNL     1      -8.544   2.246   0.933  0.00  0.00    +0.115 A 
ATOM     20  C   UNL     1      -9.783   2.828   1.191  0.00  0.00    +0.079 A 
ATOM     21  C   UNL     1     -10.917   2.037   1.160  0.00  0.00    +0.037 A 
ATOM     22  C   UNL     1     -10.774   0.683   0.883  0.00  0.00    +0.072 A 
ATOM     23  C   UNL     1      -9.515   0.172   0.642  0.00  0.00    +0.096 A 
ATOM     24 CL   UNL     1      -9.902   4.524   1.540  0.00  0.00    -0.080 Cl
ATOM     25  N   UNL     1      -8.379   0.920   0.658  0.00  0.00    -0.348 N 
ATOM     26  H   UNL     1      -7.454   0.512   0.475  0.00  0.00    +0.167 HD
BRANCH  22  27
ATOM     27  C   UNL     1     -11.981  -0.218   0.844  0.00  0.00    +0.419 C 
ATOM     28  F   UNL     1     -11.578  -1.524   0.546  0.00  0.00    -0.166 F 
ATOM     29  F   UNL     1     -12.617  -0.199   2.090  0.00  0.00    -0.166 F 
ATOM     30  F   UNL     1     -12.868   0.233  -0.139  0.00  0.00    -0.166 F 
ENDBRANCH  22  27
ENDBRANCH  17  19
ENDBRANCH  16  17
ENDBRANCH   1  16
TORSDOF 7
