REMARK  Name = ZINC39665209
REMARK  8 active torsions:
REMARK  status: ('A' for Active; 'I' for Inactive)
REMARK    1  A    between atoms: C_1  and  C_2
REMARK    2  A    between atoms: C_6  and  C_9
REMARK    3  A    between atoms: C_13  and  C_22
REMARK    4  A    between atoms: N_24  and  C_25
REMARK    5  A    between atoms: C_25  and  C_26
REMARK    6  A    between atoms: C_26  and  C_28
REMARK    7  A    between atoms: C_26  and  O_29
REMARK    8  A    between atoms: O_29  and  C_30
REMARK                            x       y       z     vdW  Elec       q    Type
REMARK                         _______ _______ _______ _____ _____    ______ ____
ROOT
ATOM      1  C   UNL     1      -0.277  -1.947   0.853  0.00  0.00    +0.251 C 
ATOM      2  O   UNL     1       0.815  -2.000   1.384  0.00  0.00    -0.270 OA
ATOM      3  N   UNL     1      -1.388  -2.205   1.571  0.00  0.00    -0.296 N 
ATOM      4  C   UNL     1      -2.794  -2.196   1.102  0.00  0.00    +0.121 C 
ATOM      5  C   UNL     1      -3.451  -3.398   1.818  0.00  0.00    +0.100 C 
ATOM      6  C   UNL     1      -2.586  -3.632   3.067  0.00  0.00    -0.004 C 
ATOM      7  C   UNL     1      -1.480  -2.569   3.005  0.00  0.00    +0.115 C 
ATOM      8  C   UNL     1      -1.970  -5.028   3.030  0.00  0.00    -0.010 C 
ATOM      9  C   UNL     1      -1.161  -5.258   4.309  0.00  0.00    -0.082 C 
ATOM     10  N   UNL     1      -2.039  -5.120   5.477  0.00  0.00    +0.379 N 
ATOM     11  C   UNL     1      -2.554  -3.748   5.557  0.00  0.00    -0.082 C 
ATOM     12  C   UNL     1      -3.422  -3.453   4.331  0.00  0.00    -0.010 C 
ATOM     13  H   UNL     1      -2.812  -5.763   5.393  0.00  0.00    -0.086 HD
ATOM     14  H   UNL     1      -1.518  -5.332   6.315  0.00  0.00    -0.086 HD
ENDROOT
BRANCH   1  20
ATOM     15  C   UNL     1      -0.774   1.494  -2.732  0.00  0.00    +0.047 C 
ATOM     16  C   UNL     1      -0.626   0.056  -2.308  0.00  0.00    -0.014 A 
ATOM     17  C   UNL     1      -0.593  -0.944  -3.263  0.00  0.00    +0.007 A 
ATOM     18  C   UNL     1      -0.458  -2.268  -2.885  0.00  0.00    +0.021 A 
ATOM     19  C   UNL     1      -0.354  -2.602  -1.549  0.00  0.00    +0.056 A 
ATOM     20  C   UNL     1      -0.386  -1.598  -0.577  0.00  0.00    +0.091 A 
ATOM     21  C   UNL     1      -0.518  -0.261  -0.967  0.00  0.00    +0.140 A 
ATOM     22  F   UNL     1      -0.545   0.717  -0.035  0.00  0.00    -0.204 F 
ATOM     23 CL   UNL     1      -0.185  -4.264  -1.078  0.00  0.00    -0.083 Cl
ENDBRANCH   1  20
BRANCH   5  24
ATOM     24  C   UNL     1      -3.432  -4.614   0.927  0.00  0.00    +0.218 C 
ATOM     25  O   UNL     1      -2.589  -4.718   0.061  0.00  0.00    -0.275 OA
ATOM     26  N   UNL     1      -4.351  -5.586   1.093  0.00  0.00    -0.312 N 
ATOM     27  H   UNL     1      -5.025  -5.503   1.786  0.00  0.00    +0.149 HD
BRANCH  26  28
ATOM     28  C   UNL     1      -4.331  -6.768   0.228  0.00  0.00    +0.148 C 
BRANCH  28  29
ATOM     29  C   UNL     1      -5.471  -7.708   0.624  0.00  0.00    +0.187 C 
ATOM     30  C   UNL     1      -5.376  -8.997  -0.195  0.00  0.00    +0.053 C 
BRANCH  29  31
ATOM     31  O   UNL     1      -6.725  -7.072   0.367  0.00  0.00    -0.488 OA
BRANCH  31  32
ATOM     32  C   UNL     1      -7.790  -7.490   1.099  0.00  0.00    +0.121 A 
ATOM     33  C   UNL     1      -7.658  -8.563   1.969  0.00  0.00    +0.045 A 
ATOM     34  C   UNL     1      -8.742  -8.986   2.713  0.00  0.00    +0.004 A 
ATOM     35  C   UNL     1      -9.959  -8.341   2.591  0.00  0.00    +0.000 A 
ATOM     36  C   UNL     1     -10.094  -7.271   1.725  0.00  0.00    +0.004 A 
ATOM     37  C   UNL     1      -9.011  -6.841   0.984  0.00  0.00    +0.045 A 
ENDBRANCH  31  32
ENDBRANCH  29  31
ENDBRANCH  28  29
ENDBRANCH  26  28
ENDBRANCH   5  24
TORSDOF 6
