REMARK  Name = ZINC39842079
REMARK  18 active torsions:
REMARK  status: ('A' for Active; 'I' for Inactive)
REMARK    1  A    between atoms: C_1  and  C_2
REMARK    2  A    between atoms: C_7  and  O_8
REMARK    3  A    between atoms: O_8  and  C_9
REMARK    4  A    between atoms: C_9  and  C_10
REMARK    5  A    between atoms: C_10  and  O_12
REMARK    6  A    between atoms: O_12  and  C_13
REMARK    7  A    between atoms: C_15  and  N_37
REMARK    8  A    between atoms: C_17  and  O_33
REMARK    9  A    between atoms: C_19  and  O_29
REMARK   10  A    between atoms: C_21  and  C_24
REMARK   11  A    between atoms: C_24  and  O_25
REMARK   12  A    between atoms: O_25  and  C_26
REMARK   13  A    between atoms: C_26  and  C_28
REMARK   14  A    between atoms: O_29  and  C_30
REMARK   15  A    between atoms: C_30  and  C_32
REMARK   16  A    between atoms: O_33  and  C_34
REMARK   17  A    between atoms: C_34  and  C_36
REMARK   18  A    between atoms: C_38  and  C_40
REMARK                            x       y       z     vdW  Elec       q    Type
REMARK                         _______ _______ _______ _____ _____    ______ ____
ROOT
ATOM      1  C   UNL     1       0.099   0.489   7.107  0.00  0.00    +0.335 C 
ATOM      2  C   UNL     1      -0.038  -0.282   8.422  0.00  0.00    +0.186 C 
ATOM      3  C   UNL     1       1.173  -1.204   8.593  0.00  0.00    +0.246 C 
ATOM      4  C   UNL     1       2.453  -0.363   8.542  0.00  0.00    +0.251 C 
ATOM      5  C   UNL     1       2.493   0.411   7.221  0.00  0.00    +0.204 C 
ATOM      6  O   UNL     1       1.323   1.225   7.112  0.00  0.00    -0.329 OA
ENDROOT
BRANCH   2   7
ATOM      7  N   UNL     1      -0.096   0.664   9.540  0.00  0.00    -0.303 N 
ATOM      8  C   UNL     1      -0.762   0.337  10.665  0.00  0.00    +0.210 C 
ATOM      9  O   UNL     1      -1.314  -0.740  10.752  0.00  0.00    -0.276 OA
ATOM     10  C   UNL     1      -0.822   1.310  11.815  0.00  0.00    +0.109 C 
ATOM     11  H   UNL     1       0.345   1.525   9.470  0.00  0.00    +0.149 HD
ENDBRANCH   2   7
BRANCH   1  12
ATOM     12  O   UNL     1       0.100  -0.431   6.013  0.00  0.00    -0.431 OA
BRANCH  12  13
ATOM     13  C   UNL     1       0.110   0.091   4.777  0.00  0.00    +0.347 C 
ATOM     14  O   UNL     1       0.117   1.290   4.628  0.00  0.00    -0.247 OA
BRANCH  13  15
ATOM     15  C   UNL     1       0.112  -0.817   3.575  0.00  0.00    +0.349 C 
BRANCH  15  16
ATOM     16  O   UNL     1       0.123  -0.029   2.383  0.00  0.00    -0.481 OA
BRANCH  16  23
ATOM     17  C   UNL     1       0.143   1.509   0.013  0.00  0.00    +0.047 C 
ATOM     18  C   UNL     1       0.136   0.002   0.004  0.00  0.00    -0.009 A 
ATOM     19  C   UNL     1       0.146  -0.682  -1.197  0.00  0.00    +0.007 A 
ATOM     20  C   UNL     1       0.139  -2.064  -1.206  0.00  0.00    +0.000 A 
ATOM     21  C   UNL     1       0.123  -2.766  -0.015  0.00  0.00    +0.004 A 
ATOM     22  C   UNL     1       0.114  -2.087   1.188  0.00  0.00    +0.046 A 
ATOM     23  C   UNL     1       0.126  -0.700   1.200  0.00  0.00    +0.124 A 
ENDBRANCH  16  23
ENDBRANCH  15  16
ENDBRANCH  13  15
ENDBRANCH  12  13
ENDBRANCH   1  12
BRANCH   5  24
ATOM     24  C   UNL     1       3.738   1.299   7.188  0.00  0.00    +0.267 C 
BRANCH  24  25
ATOM     25  O   UNL     1       3.838   1.932   5.911  0.00  0.00    -0.462 OA
BRANCH  25  26
ATOM     26  C   UNL     1       4.883   2.751   5.717  0.00  0.00    +0.304 C 
ATOM     27  O   UNL     1       5.687   2.925   6.602  0.00  0.00    -0.251 OA
ATOM     28  C   UNL     1       5.055   3.454   4.395  0.00  0.00    +0.136 C 
ENDBRANCH  25  26
ENDBRANCH  24  25
ENDBRANCH   5  24
BRANCH   4  29
ATOM     29  O   UNL     1       2.464   0.556   9.636  0.00  0.00    -0.455 OA
BRANCH  29  30
ATOM     30  C   UNL     1       3.664   0.909  10.123  0.00  0.00    +0.304 C 
ATOM     31  O   UNL     1       4.671   0.453   9.636  0.00  0.00    -0.251 OA
ATOM     32  C   UNL     1       3.755   1.874  11.276  0.00  0.00    +0.136 C 
ENDBRANCH  29  30
ENDBRANCH   4  29
BRANCH   3  33
ATOM     33  O   UNL     1       1.090  -1.875   9.852  0.00  0.00    -0.456 OA
BRANCH  33  34
ATOM     34  C   UNL     1       1.641  -3.096   9.930  0.00  0.00    +0.304 C 
ATOM     35  O   UNL     1       2.177  -3.580   8.960  0.00  0.00    -0.251 OA
ATOM     36  C   UNL     1       1.593  -3.864  11.225  0.00  0.00    +0.136 C 
ENDBRANCH  33  34
ENDBRANCH   3  33
TORSDOF 13
