REMARK  Name = ZINC22063386
REMARK  4 active torsions:
REMARK  status: ('A' for Active; 'I' for Inactive)
REMARK    1  A    between atoms: C_8  and  C_27
REMARK    2  A    between atoms: N_10  and  C_12
REMARK    3  A    between atoms: C_12  and  C_13
REMARK    4  A    between atoms: N_15  and  C_16
REMARK                            x       y       z     vdW  Elec       q    Type
REMARK                         _______ _______ _______ _____ _____    ______ ____
ROOT
ATOM      1  C   UNL     1      -0.914   1.699   0.688  0.00  0.00    +0.000 A 
ATOM      2  C   UNL     1       0.214   0.974   0.351  0.00  0.00    +0.000 A 
ATOM      3  C   UNL     1       1.368   1.632  -0.025  0.00  0.00    +0.002 A 
ATOM      4  C   UNL     1       1.405   3.018  -0.059  0.00  0.00    -0.061 A 
ATOM      5  C   UNL     1       0.282   3.741   0.284  0.00  0.00    -0.047 A 
ATOM      6  C   UNL     1      -0.877   3.078   0.658  0.00  0.00    +0.004 A 
ATOM      7  C   UNL     1       0.275   5.248   0.268  0.00  0.00    +0.029 C 
ATOM      8  C   UNL     1       1.460   5.766  -0.548  0.00  0.00    +0.024 C 
ATOM      9  N   UNL     1       2.683   5.100  -0.071  0.00  0.00    +0.396 N 
ATOM     10  C   UNL     1       2.685   3.692  -0.479  0.00  0.00    -0.041 C 
ATOM     11  H   UNL     1       2.698   5.140   1.028  0.00  0.00    -0.080 HD
ENDROOT
BRANCH   8  12
ATOM     12  C   UNL     1       1.590   7.256  -0.361  0.00  0.00    +0.197 C 
ATOM     13  O   UNL     1       2.202   7.697   0.589  0.00  0.00    -0.278 OA
ATOM     14  N   UNL     1       1.027   8.098  -1.250  0.00  0.00    -0.331 N 
ATOM     15  H   UNL     1       1.122   9.185  -1.114  0.00  0.00    +0.145 HD
ATOM     16  H   UNL     1       0.472   7.698  -2.112  0.00  0.00    +0.145 HD
ENDBRANCH   8  12
BRANCH   9  17
ATOM     17  C   UNL     1       3.884   5.791  -0.559  0.00  0.00    +0.020 C 
BRANCH  17  18
ATOM     18  C   UNL     1       3.868   5.823  -2.065  0.00  0.00    +0.201 C 
ATOM     19  O   UNL     1       2.947   5.319  -2.673  0.00  0.00    -0.278 OA
ATOM     20  N   UNL     1       4.877   6.411  -2.737  0.00  0.00    -0.286 N 
ATOM     21  H   UNL     1       5.748   6.803  -2.191  0.00  0.00    +0.155 HD
BRANCH  20  22
ATOM     22  C   UNL     1       4.818   6.524  -4.133  0.00  0.00    +0.051 A 
ATOM     23  C   UNL     1       4.186   5.543  -4.883  0.00  0.00    +0.073 A 
ATOM     24  C   UNL     1       4.126   5.655  -6.263  0.00  0.00    +0.164 A 
ATOM     25  C   UNL     1       4.699   6.753  -6.895  0.00  0.00    +0.163 A 
ATOM     26  C   UNL     1       5.330   7.732  -6.143  0.00  0.00    +0.066 A 
ATOM     27  C   UNL     1       5.386   7.622  -4.766  0.00  0.00    +0.043 A 
ATOM     28 BR   UNL     1       6.242   8.964  -3.745  0.00  0.00    -0.048 Br
ATOM     29  O   UNL     1       4.646   6.883  -8.250  0.00  0.00    -0.485 OA
ATOM     30  C   UNL     1       4.337   5.702  -8.997  0.00  0.00    +0.270 C 
ATOM     31  C   UNL     1       3.141   5.010  -8.330  0.00  0.00    +0.270 C 
ATOM     32  O   UNL     1       3.507   4.681  -6.985  0.00  0.00    -0.485 OA
ENDBRANCH  20  22
ENDBRANCH  17  18
ENDBRANCH   9  17
TORSDOF 4
