REMARK  Name = ZINC42955999
REMARK  9 active torsions:
REMARK  status: ('A' for Active; 'I' for Inactive)
REMARK    1  A    between atoms: C_1  and  C_2
REMARK    2  A    between atoms: C_2  and  C_3
REMARK    3  A    between atoms: C_3  and  C_5
REMARK    4  A    between atoms: C_3  and  N_22
REMARK    5  A    between atoms: C_5  and  C_7
REMARK    6  A    between atoms: C_5  and  N_14
REMARK    7  A    between atoms: C_18  and  C_19
REMARK    8  A    between atoms: C_19  and  C_20
REMARK    9  A    between atoms: C_19  and  C_21
REMARK                            x       y       z     vdW  Elec       q    Type
REMARK                         _______ _______ _______ _____ _____    ______ ____
ROOT
ATOM      1  C   UNL     1       0.630  -2.023  -1.329  0.00  0.00    +0.104 C 
ENDROOT
BRANCH   1   2
ATOM      2  C   UNL     1      -0.817  -2.441  -1.377  0.00  0.00    -0.026 A 
ATOM      3  C   UNL     1      -1.624  -2.016  -2.416  0.00  0.00    +0.007 A 
ATOM      4  C   UNL     1      -2.951  -2.399  -2.461  0.00  0.00    +0.015 A 
ATOM      5  C   UNL     1      -3.471  -3.209  -1.467  0.00  0.00    +0.018 A 
ATOM      6  C   UNL     1      -2.663  -3.635  -0.429  0.00  0.00    +0.015 A 
ATOM      7  C   UNL     1      -1.335  -3.255  -0.387  0.00  0.00    +0.007 A 
ATOM      8 BR   UNL     1      -5.287  -3.734  -1.529  0.00  0.00    -0.050 Br
ENDBRANCH   1   2
BRANCH   1   9
ATOM      9  N   UNL     1       1.316  -2.496  -2.534  0.00  0.00    -0.330 N 
ATOM     10  C   UNL     1       1.010  -2.163  -3.826  0.00  0.00    +0.105 A 
ATOM     11  C   UNL     1       1.885  -2.815  -4.614  0.00  0.00    +0.101 A 
ATOM     12  N   UNL     1       2.704  -3.527  -3.825  0.00  0.00    -0.349 N 
ATOM     13  C   UNL     1       2.372  -3.336  -2.578  0.00  0.00    +0.090 A 
ATOM     14  H   UNL     1       3.430  -4.091  -4.133  0.00  0.00    +0.166 HD
BRANCH  13  15
ATOM     15  C   UNL     1       3.053  -3.955  -1.384  0.00  0.00    +0.047 C 
ATOM     16  C   UNL     1       3.522  -5.367  -1.739  0.00  0.00    +0.015 C 
ATOM     17  C   UNL     1       4.258  -3.102  -0.985  0.00  0.00    +0.015 C 
ENDBRANCH  13  15
ENDBRANCH   1   9
BRANCH   1  18
ATOM     18  C   UNL     1       0.718  -0.497  -1.257  0.00  0.00    -0.048 C 
BRANCH  18  19
ATOM     19  N   UNL     1       2.129  -0.090  -1.209  0.00  0.00    +0.382 N 
ATOM     20  H   UNL     1       2.567  -0.491  -0.394  0.00  0.00    -0.090 HD
ATOM     21  H   UNL     1       2.601  -0.415  -2.039  0.00  0.00    -0.090 HD
ATOM     22  H   UNL     1       2.187   0.916  -1.162  0.00  0.00    -0.090 HD
ENDBRANCH  18  19
BRANCH  18  24
ATOM     23  C   UNL     1      -0.019   1.526   0.010  0.00  0.00    +0.002 C 
ATOM     24  C   UNL     1       0.002  -0.004   0.002  0.00  0.00    -0.017 C 
ENDBRANCH  18  24
ENDBRANCH   1  18
TORSDOF 6
