REMARK  Name = ZINC13500196
REMARK  12 active torsions:
REMARK  status: ('A' for Active; 'I' for Inactive)
REMARK    1  A    between atoms: C_1  and  C_2
REMARK    2  A    between atoms: C_2  and  C_3
REMARK    3  A    between atoms: C_3  and  C_4
REMARK    4  A    between atoms: C_4  and  C_6
REMARK    5  A    between atoms: C_4  and  N_73
REMARK    6  A    between atoms: N_10  and  C_11
REMARK    7  A    between atoms: C_11  and  C_12
REMARK    8  A    between atoms: C_15  and  O_18
REMARK    9  A    between atoms: O_18  and  C_19
REMARK   10  A    between atoms: C_20  and  C_21
REMARK   11  A    between atoms: C_20  and  N_73
REMARK   12  A    between atoms: C_36  and  N_73
REMARK                            x       y       z     vdW  Elec       q    Type
REMARK                         _______ _______ _______ _____ _____    ______ ____
ROOT
ATOM      1  N   UNL     1      -2.989   0.813  -1.167  0.00  0.00    +0.391 N 
ATOM      2  H   UNL     1      -2.597   1.611  -1.680  0.00  0.00    -0.080 HD
ENDROOT
BRANCH   1   3
ATOM      3  C   UNL     1      -2.109  -0.359  -1.356  0.00  0.00    -0.067 C 
ATOM      4  C   UNL     1      -2.304  -1.386  -0.222  0.00  0.00    -0.015 C 
ATOM      5  C   UNL     1      -0.878  -1.932   0.045  0.00  0.00    -0.002 C 
ATOM      6  C   UNL     1       0.007  -0.672  -0.120  0.00  0.00    -0.002 C 
ATOM      7  C   UNL     1      -0.640   0.095  -1.292  0.00  0.00    -0.015 C 
ENDBRANCH   1   3
BRANCH   1   8
ATOM      8  C   UNL     1      -4.339   0.520  -1.693  0.00  0.00    +0.003 C 
BRANCH   8   9
ATOM      9  C   UNL     1      -5.115  -0.323  -0.715  0.00  0.00    +0.138 A 
ATOM     10  N   UNL     1      -4.694  -1.407  -0.109  0.00  0.00    -0.115 NA
ATOM     11  N   UNL     1      -5.645  -1.836   0.647  0.00  0.00    -0.023 NA
ATOM     12  N   UNL     1      -6.665  -1.059   0.533  0.00  0.00    -0.044 NA
ATOM     13  N   UNL     1      -6.378  -0.114  -0.297  0.00  0.00    -0.226 N 
BRANCH  13  14
ATOM     14  C   UNL     1      -7.260   0.980  -0.710  0.00  0.00    +0.182 C 
BRANCH  14  15
ATOM     15  C   UNL     1      -8.049   0.560  -1.923  0.00  0.00    -0.026 A 
ATOM     16  C   UNL     1      -7.549   0.802  -3.189  0.00  0.00    +0.009 A 
ATOM     17  C   UNL     1      -8.267   0.412  -4.303  0.00  0.00    +0.046 A 
ATOM     18  C   UNL     1      -9.497  -0.212  -4.150  0.00  0.00    +0.120 A 
ATOM     19  C   UNL     1      -9.999  -0.448  -2.879  0.00  0.00    +0.046 A 
ATOM     20  C   UNL     1      -9.274  -0.062  -1.768  0.00  0.00    +0.009 A 
BRANCH  18  21
ATOM     21  O   UNL     1     -10.208  -0.591  -5.244  0.00  0.00    -0.495 OA
ATOM     22  C   UNL     1      -9.629  -0.316  -6.522  0.00  0.00    +0.277 C 
ENDBRANCH  18  21
ENDBRANCH  14  15
ENDBRANCH  13  14
ENDBRANCH   8   9
BRANCH   8  23
ATOM     23  C   UNL     1      -4.212  -0.227  -3.022  0.00  0.00    -0.008 C 
BRANCH  23  25
ATOM     24  C   UNL     1      -3.386  -0.072  -5.375  0.00  0.00    +0.004 C 
ATOM     25  C   UNL     1      -3.428   0.631  -4.017  0.00  0.00    -0.005 C 
ENDBRANCH  23  25
ENDBRANCH   8  23
ENDBRANCH   1   8
BRANCH   1  26
ATOM     26  C   UNL     1      -3.070   1.158   0.268  0.00  0.00    -0.036 C 
BRANCH  26  27
ATOM     27  C   UNL     1      -3.619   2.555   0.399  0.00  0.00    +0.001 A 
ATOM     28  C   UNL     1      -4.926   2.741   0.715  0.00  0.00    +0.017 A 
ATOM     29  C   UNL     1      -5.430   4.109   0.830  0.00  0.00    +0.002 A 
ATOM     30  C   UNL     1      -6.771   4.361   1.146  0.00  0.00    +0.059 A 
ATOM     31  C   UNL     1      -7.216   5.660   1.249  0.00  0.00    +0.167 A 
ATOM     32  C   UNL     1      -6.333   6.727   1.039  0.00  0.00    +0.168 A 
ATOM     33  C   UNL     1      -5.008   6.488   0.725  0.00  0.00    +0.075 A 
ATOM     34  C   UNL     1      -4.544   5.183   0.616  0.00  0.00    +0.053 A 
ATOM     35  N   UNL     1      -3.225   4.925   0.302  0.00  0.00    -0.322 N 
ATOM     36  H   UNL     1      -2.615   5.665   0.155  0.00  0.00    +0.169 HD
ATOM     37  C   UNL     1      -2.772   3.664   0.199  0.00  0.00    +0.251 A 
ATOM     38  O   UNL     1      -1.601   3.474  -0.081  0.00  0.00    -0.268 OA
ATOM     39  O   UNL     1      -7.020   7.895   1.201  0.00  0.00    -0.453 OA
ATOM     40  C   UNL     1      -8.221   7.541   1.912  0.00  0.00    +0.466 C 
ATOM     41  O   UNL     1      -8.449   6.169   1.541  0.00  0.00    -0.453 OA
ENDBRANCH  26  27
ENDBRANCH   1  26
TORSDOF 10
