REMARK  Name = ZINC67253945
REMARK  10 active torsions:
REMARK  status: ('A' for Active; 'I' for Inactive)
REMARK    1  A    between atoms: C_1  and  C_2
REMARK    2  A    between atoms: C_6  and  O_8
REMARK    3  A    between atoms: O_8  and  C_9
REMARK    4  A    between atoms: C_9  and  C_10
REMARK    5  A    between atoms: C_10  and  C_12
REMARK    6  A    between atoms: C_10  and  O_30
REMARK    7  A    between atoms: C_12  and  N_13
REMARK    8  A    between atoms: N_13  and  C_14
REMARK    9  A    between atoms: C_14  and  C_15
REMARK   10  A    between atoms: C_20  and  C_21
REMARK                            x       y       z     vdW  Elec       q    Type
REMARK                         _______ _______ _______ _____ _____    ______ ____
ROOT
ATOM      1  N   UNL     1       0.242  -6.888   4.948  0.00  0.00    +0.384 N 
ATOM      2  H   UNL     1       1.019  -6.505   5.466  0.00  0.00    -0.085 HD
ATOM      3  H   UNL     1      -0.621  -6.659   5.418  0.00  0.00    -0.085 HD
ENDROOT
BRANCH   1   4
ATOM      4  C   UNL     1       0.228  -6.317   3.594  0.00  0.00    -0.047 C 
BRANCH   4   5
ATOM      5  C   UNL     1       0.083  -4.796   3.683  0.00  0.00    +0.135 C 
BRANCH   5   6
ATOM      6  O   UNL     1      -1.140  -4.473   4.349  0.00  0.00    -0.390 OA
ATOM      7  H   UNL     1      -1.930  -4.810   3.905  0.00  0.00    +0.210 HD
ENDBRANCH   5   6
BRANCH   5   8
ATOM      8  C   UNL     1       0.069  -4.202   2.274  0.00  0.00    +0.258 C 
BRANCH   8   9
ATOM      9  O   UNL     1       0.050  -2.776   2.358  0.00  0.00    -0.489 OA
BRANCH   9  15
ATOM     10  C   UNL     1      -0.018   1.503   0.010  0.00  0.00    +0.044 C 
ATOM     11  C   UNL     1       0.002  -0.004   0.002  0.00  0.00    -0.047 A 
ATOM     12  C   UNL     1       0.006  -0.688  -1.200  0.00  0.00    +0.003 A 
ATOM     13  C   UNL     1       0.024  -2.071  -1.211  0.00  0.00    +0.004 A 
ATOM     14  C   UNL     1       0.039  -2.772  -0.020  0.00  0.00    +0.045 A 
ATOM     15  C   UNL     1       0.035  -2.088   1.186  0.00  0.00    +0.121 A 
ATOM     16  C   UNL     1       0.023  -0.700   1.195  0.00  0.00    +0.049 A 
ENDBRANCH   9  15
ENDBRANCH   8   9
ENDBRANCH   5   8
ENDBRANCH   4   5
ENDBRANCH   1   4
BRANCH   1  17
ATOM     17  C   UNL     1       0.382  -8.347   4.862  0.00  0.00    -0.043 C 
BRANCH  17  18
ATOM     18  C   UNL     1       0.396  -8.933   6.251  0.00  0.00    -0.016 A 
ATOM     19  C   UNL     1       1.492  -9.310   6.944  0.00  0.00    +0.107 A 
ATOM     20  N   UNL     1       1.086  -9.783   8.142  0.00  0.00    -0.284 N 
ATOM     21  H   UNL     1       1.663 -10.123   8.844  0.00  0.00    +0.188 HD
ATOM     22  N   UNL     1      -0.311  -9.697   8.196  0.00  0.00    -0.171 NA
ATOM     23  C   UNL     1      -0.733  -9.179   7.060  0.00  0.00    +0.129 A 
BRANCH  23  24
ATOM     24  C   UNL     1      -2.140  -8.909   6.696  0.00  0.00    +0.156 A 
ATOM     25  C   UNL     1      -3.200  -9.665   7.070  0.00  0.00    +0.060 A 
ATOM     26  C   UNL     1      -4.381  -9.025   6.487  0.00  0.00    +0.021 A 
ATOM     27  C   UNL     1      -5.748  -9.307   6.501  0.00  0.00    +0.011 A 
ATOM     28  C   UNL     1      -6.616  -8.486   5.836  0.00  0.00    +0.001 A 
ATOM     29  C   UNL     1      -6.147  -7.377   5.147  0.00  0.00    +0.004 A 
ATOM     30  C   UNL     1      -4.800  -7.082   5.122  0.00  0.00    +0.047 A 
ATOM     31  C   UNL     1      -3.900  -7.902   5.791  0.00  0.00    +0.136 A 
ATOM     32  O   UNL     1      -2.561  -7.870   5.948  0.00  0.00    -0.453 OA
ENDBRANCH  23  24
ENDBRANCH  17  18
ENDBRANCH   1  17
TORSDOF 9
