REMARK  Name = ZINC36831035
REMARK  4 active torsions:
REMARK  status: ('A' for Active; 'I' for Inactive)
REMARK    1  A    between atoms: C_1  and  C_2
REMARK    2  A    between atoms: C_2  and  C_3
REMARK    3  A    between atoms: C_3  and  C_4
REMARK    4  A    between atoms: N_8  and  C_12
REMARK                            x       y       z     vdW  Elec       q    Type
REMARK                         _______ _______ _______ _____ _____    ______ ____
ROOT
ATOM      1  C   UNL     1       0.739  -2.027  -1.265  0.00  0.00    +0.161 C 
ATOM      2  C   UNL     1       1.505  -2.544  -2.467  0.00  0.00    +0.248 C 
ATOM      3  O   UNL     1       2.673  -2.353  -2.728  0.00  0.00    -0.273 OA
ATOM      4  N   UNL     1       0.617  -3.260  -3.185  0.00  0.00    -0.190 N 
ATOM      5  C   UNL     1      -0.591  -3.268  -2.609  0.00  0.00    +0.314 C 
ATOM      6  O   UNL     1      -1.555  -3.848  -3.070  0.00  0.00    -0.252 OA
ATOM      7  N   UNL     1      -0.620  -2.563  -1.460  0.00  0.00    -0.287 N 
ATOM      8  H   UNL     1      -1.383  -2.433  -0.875  0.00  0.00    +0.151 HD
ENDROOT
BRANCH   4   9
ATOM      9  C   UNL     1       0.921  -3.916  -4.387  0.00  0.00    +0.081 A 
ATOM     10  C   UNL     1       1.367  -5.230  -4.369  0.00  0.00    +0.027 A 
ATOM     11  C   UNL     1       1.665  -5.874  -5.554  0.00  0.00    +0.002 A 
ATOM     12  C   UNL     1       1.522  -5.210  -6.759  0.00  0.00    +0.003 A 
ATOM     13  C   UNL     1       1.079  -3.901  -6.782  0.00  0.00    +0.040 A 
ATOM     14  C   UNL     1       0.772  -3.253  -5.599  0.00  0.00    +0.145 A 
ATOM     15  F   UNL     1       0.333  -1.975  -5.622  0.00  0.00    -0.204 F 
ENDBRANCH   4   9
BRANCH   1  16
ATOM     16  C   UNL     1       0.718  -0.497  -1.257  0.00  0.00    +0.031 C 
BRANCH  16  18
ATOM     17  C   UNL     1      -0.019   1.526   0.010  0.00  0.00    +0.004 C 
ATOM     18  C   UNL     1       0.002  -0.004   0.002  0.00  0.00    -0.001 C 
ENDBRANCH  16  18
ENDBRANCH   1  16
TORSDOF 3
