REMARK  Name = ZINC45667230
REMARK  3 active torsions:
REMARK  status: ('A' for Active; 'I' for Inactive)
REMARK    1  A    between atoms: C_5  and  C_6
REMARK    2  A    between atoms: C_6  and  N_7
REMARK    3  A    between atoms: N_10  and  C_11
REMARK                            x       y       z     vdW  Elec       q    Type
REMARK                         _______ _______ _______ _____ _____    ______ ____
ROOT
ATOM      1  N   UNL     1      -1.544  -1.274  -1.371  0.00  0.00    -0.295 N 
ATOM      2  C   UNL     1      -2.564  -2.121  -1.612  0.00  0.00    +0.300 C 
ATOM      3  O   UNL     1      -3.163  -2.631  -0.685  0.00  0.00    -0.253 OA
ATOM      4  N   UNL     1      -2.922  -2.401  -2.881  0.00  0.00    -0.288 N 
ATOM      5  H   UNL     1      -1.067  -0.866  -2.111  0.00  0.00    +0.151 HD
ATOM      6  H   UNL     1      -2.445  -1.994  -3.621  0.00  0.00    +0.151 HD
ENDROOT
BRANCH   4   7
ATOM      7  C   UNL     1      -4.031  -3.322  -3.143  0.00  0.00    +0.160 C 
ATOM      8  C   UNL     1      -4.633  -3.024  -4.519  0.00  0.00    +0.032 C 
ATOM      9  C   UNL     1      -6.077  -3.487  -4.586  0.00  0.00    +0.004 C 
ATOM     10  C   UNL     1      -6.241  -4.994  -4.513  0.00  0.00    +0.019 C 
ATOM     11  C   UNL     1      -5.830  -5.521  -3.137  0.00  0.00    +0.104 C 
ATOM     12  N   UNL     1      -4.379  -5.768  -3.141  0.00  0.00    -0.314 N 
ATOM     13  C   UNL     1      -3.521  -4.748  -3.136  0.00  0.00    +0.233 C 
ATOM     14  O   UNL     1      -2.328  -4.963  -3.131  0.00  0.00    -0.274 OA
ATOM     15  H   UNL     1      -4.045  -6.679  -3.144  0.00  0.00    +0.149 HD
ENDBRANCH   4   7
BRANCH   1  16
ATOM     16  C   UNL     1      -1.156  -0.969   0.008  0.00  0.00    +0.148 C 
BRANCH  16  21
ATOM     17  C   UNL     1      -0.016   1.351   0.009  0.00  0.00    +0.014 A 
ATOM     18  C   UNL     1       1.184   2.038   0.002  0.00  0.00    +0.028 A 
ATOM     19  C   UNL     1       2.343   1.335  -0.013  0.00  0.00    +0.078 A 
ATOM     20  S   UNL     1       1.753  -0.350  -0.017  0.00  0.00    -0.080 S 
ATOM     21  C   UNL     1       0.002  -0.004   0.002  0.00  0.00    +0.008 A 
ATOM     22 CL   UNL     1       3.977   1.921  -0.026  0.00  0.00    -0.076 Cl
ENDBRANCH  16  21
ENDBRANCH   1  16
TORSDOF 3
