REMARK  Name = ZINC02177748
REMARK  9 active torsions:
REMARK  status: ('A' for Active; 'I' for Inactive)
REMARK    1  A    between atoms: C_1  and  C_2
REMARK    2  A    between atoms: C_2  and  C_3
REMARK    3  A    between atoms: C_3  and  N_4
REMARK    4  A    between atoms: C_5  and  C_7
REMARK    5  A    between atoms: C_10  and  C_26
REMARK    6  A    between atoms: C_11  and  C_12
REMARK    7  A    between atoms: C_11  and  C_13
REMARK    8  A    between atoms: C_19  and  C_25
REMARK    9  A    between atoms: C_20  and  C_24
REMARK                            x       y       z     vdW  Elec       q    Type
REMARK                         _______ _______ _______ _____ _____    ______ ____
ROOT
ATOM      1  C   UNL     1      -2.551  -4.195   0.004  0.00  0.00    +0.096 C 
ATOM      2  C   UNL     1      -1.872  -4.882   1.231  0.00  0.00    +0.024 C 
ATOM      3  C   UNL     1      -2.399  -6.336   1.187  0.00  0.00    +0.015 C 
ATOM      4  C   UNL     1      -3.336  -6.364  -0.061  0.00  0.00    +0.018 C 
ATOM      5  C   UNL     1      -3.948  -4.917   0.013  0.00  0.00    -0.005 C 
ATOM      6  C   UNL     1      -4.709  -4.694   1.322  0.00  0.00    +0.013 C 
ATOM      7  C   UNL     1      -4.795  -4.561  -1.210  0.00  0.00    +0.013 C 
ATOM      8  C   UNL     1      -2.388  -6.191  -1.250  0.00  0.00    +0.071 A 
ATOM      9  C   UNL     1      -1.918  -4.856  -1.223  0.00  0.00    +0.079 A 
ATOM     10  N   UNL     1      -1.085  -4.409  -2.126  0.00  0.00    -0.247 NA
ATOM     11  C   UNL     1      -0.686  -5.219  -3.114  0.00  0.00    +0.090 A 
ATOM     12  C   UNL     1       0.207  -4.771  -4.103  0.00  0.00    +0.033 A 
ATOM     13  C   UNL     1       0.593  -5.616  -5.096  0.00  0.00    -0.045 A 
ATOM     14  C   UNL     1       0.116  -6.925  -5.151  0.00  0.00    -0.045 A 
ATOM     15  C   UNL     1      -0.749  -7.394  -4.211  0.00  0.00    +0.033 A 
ATOM     16  C   UNL     1      -1.171  -6.551  -3.169  0.00  0.00    +0.090 A 
ATOM     17  N   UNL     1      -2.006  -7.014  -2.191  0.00  0.00    -0.248 NA
ATOM     18  C   UNL     1       0.565  -7.833  -6.267  0.00  0.00    +0.044 C 
ATOM     19  C   UNL     1       1.550  -5.130  -6.154  0.00  0.00    +0.044 C 
ATOM     20  C   UNL     1      -4.331  -7.524  -0.133  0.00  0.00    +0.018 C 
ENDROOT
BRANCH   1  22
ATOM     21  N   UNL     1      -1.413  -1.998   0.005  0.00  0.00    -0.315 N 
ATOM     22  C   UNL     1      -2.571  -2.688   0.012  0.00  0.00    +0.226 C 
ATOM     23  O   UNL     1      -3.630  -2.096   0.025  0.00  0.00    -0.275 OA
ATOM     24  H   UNL     1      -0.567  -2.472  -0.006  0.00  0.00    +0.149 HD
BRANCH  21  25
ATOM     25  C   UNL     1      -1.433  -0.534   0.013  0.00  0.00    +0.104 C 
BRANCH  25  27
ATOM     26  C   UNL     1      -0.019   1.526   0.010  0.00  0.00    +0.005 C 
ATOM     27  C   UNL     1       0.002  -0.004   0.002  0.00  0.00    +0.015 C 
ENDBRANCH  25  27
ENDBRANCH  21  25
ENDBRANCH   1  22
TORSDOF 3
