REMARK  Name = ZINC67487916
REMARK  5 active torsions:
REMARK  status: ('A' for Active; 'I' for Inactive)
REMARK    1  A    between atoms: C_1  and  C_2
REMARK    2  A    between atoms: C_5  and  N_9
REMARK    3  A    between atoms: N_12  and  C_13
REMARK    4  A    between atoms: C_13  and  C_15
REMARK    5  A    between atoms: C_13  and  C_16
REMARK                            x       y       z     vdW  Elec       q    Type
REMARK                         _______ _______ _______ _____ _____    ______ ____
ROOT
ATOM      1  N   UNL     1       0.059  -4.158  -0.047  0.00  0.00    -0.267 N 
ATOM      2  C   UNL     1      -0.048  -4.834  -1.208  0.00  0.00    +0.305 C 
ATOM      3  O   UNL     1      -0.079  -4.229  -2.263  0.00  0.00    -0.252 OA
ATOM      4  N   UNL     1      -0.121  -6.179  -1.200  0.00  0.00    -0.288 N 
ATOM      5  H   UNL     1       0.146  -4.641   0.790  0.00  0.00    +0.156 HD
ATOM      6  H   UNL     1      -0.097  -6.662  -0.359  0.00  0.00    +0.151 HD
ENDROOT
BRANCH   1  11
ATOM      7  C   UNL     1      -0.002   1.518  -0.053  0.00  0.00    +0.044 C 
ATOM      8  C   UNL     1       0.013   0.011  -0.050  0.00  0.00    -0.048 A 
ATOM      9  C   UNL     1       0.601  -0.675  -1.097  0.00  0.00    +0.005 A 
ATOM     10  C   UNL     1       0.618  -2.056  -1.099  0.00  0.00    +0.026 A 
ATOM     11  C   UNL     1       0.044  -2.757  -0.048  0.00  0.00    +0.070 A 
ATOM     12  C   UNL     1      -0.546  -2.066   1.005  0.00  0.00    +0.145 A 
ATOM     13  C   UNL     1      -0.555  -0.683   1.002  0.00  0.00    +0.043 A 
ATOM     14  F   UNL     1      -1.106  -2.744   2.030  0.00  0.00    -0.204 F 
ENDBRANCH   1  11
BRANCH   4  15
ATOM     15  C   UNL     1      -0.237  -6.914  -2.463  0.00  0.00    +0.157 C 
ATOM     16  C   UNL     1      -1.708  -6.983  -2.879  0.00  0.00    +0.038 C 
BRANCH  15  17
ATOM     17  C   UNL     1       0.300  -8.310  -2.282  0.00  0.00    +0.236 C 
ATOM     18  O   UNL     1       0.471  -8.755  -1.167  0.00  0.00    -0.274 OA
ATOM     19  N   UNL     1       0.591  -9.065  -3.361  0.00  0.00    -0.298 N 
ATOM     20  C   UNL     1       0.497  -8.479  -4.699  0.00  0.00    +0.118 C 
ATOM     21  C   UNL     1       1.895  -8.415  -5.327  0.00  0.00    +0.088 C 
ATOM     22  S   UNL     1       2.597 -10.091  -5.356  0.00  0.00    -0.158 S 
ATOM     23  C   UNL     1       2.452 -10.630  -3.626  0.00  0.00    +0.088 C 
ATOM     24  C   UNL     1       1.001 -10.458  -3.179  0.00  0.00    +0.118 C 
ENDBRANCH  15  17
ENDBRANCH   4  15
TORSDOF 3
