REMARK  Name = ZINC17521487
REMARK  8 active torsions:
REMARK  status: ('A' for Active; 'I' for Inactive)
REMARK    1  A    between atoms: C_1  and  C_2
REMARK    2  A    between atoms: C_3  and  N_28
REMARK    3  A    between atoms: C_5  and  S_9
REMARK    4  A    between atoms: S_9  and  N_12
REMARK    5  A    between atoms: N_12  and  C_13
REMARK    6  A    between atoms: C_13  and  C_15
REMARK    7  A    between atoms: C_13  and  C_22
REMARK    8  A    between atoms: N_26  and  C_27
REMARK                            x       y       z     vdW  Elec       q    Type
REMARK                         _______ _______ _______ _____ _____    ______ ____
ROOT
ATOM      1  N   UNL     1       0.784   5.856   1.151  0.00  0.00    -0.175 NA
ATOM      2  H   UNL     1       0.097   6.537   1.084  0.00  0.00    +0.149 HD
ENDROOT
BRANCH   1   3
ATOM      3  S   UNL     1       1.533   5.574   2.601  0.00  0.00    +0.059 S 
ATOM      4  O   UNL     1       0.977   6.493   3.530  0.00  0.00    -0.153 OA
ATOM      5  O   UNL     1       1.502   4.168   2.808  0.00  0.00    -0.153 OA
BRANCH   3  10
ATOM      6  C   UNL     1       7.336   7.092   1.937  0.00  0.00    +0.047 C 
ATOM      7  C   UNL     1       5.887   6.712   2.103  0.00  0.00    -0.002 A 
ATOM      8  C   UNL     1       4.969   7.656   2.526  0.00  0.00    +0.132 A 
ATOM      9  C   UNL     1       3.640   7.308   2.678  0.00  0.00    +0.061 A 
ATOM     10  C   UNL     1       3.228   6.016   2.407  0.00  0.00    +0.109 A 
ATOM     11  C   UNL     1       4.145   5.071   1.989  0.00  0.00    +0.049 A 
ATOM     12  C   UNL     1       5.475   5.420   1.832  0.00  0.00    +0.048 A 
ATOM     13 CL   UNL     1       6.627   4.235   1.300  0.00  0.00    -0.083 Cl
BRANCH   8  14
ATOM     14  N   UNL     1       5.410   9.038   2.817  0.00  0.00    +0.057 N 
ATOM     15  O   UNL     1       6.495   9.236   3.334  0.00  0.00    -0.126 OA
ATOM     16  O   UNL     1       4.687   9.979   2.540  0.00  0.00    -0.126 OA
ENDBRANCH   8  14
ENDBRANCH   3  10
ENDBRANCH   1   3
BRANCH   1  17
ATOM     17  C   UNL     1       1.160   5.076  -0.031  0.00  0.00    +0.172 C 
BRANCH  17  18
ATOM     18  C   UNL     1       1.077   5.950  -1.256  0.00  0.00    -0.022 A 
ATOM     19  C   UNL     1       0.033   6.845  -1.397  0.00  0.00    +0.007 A 
ATOM     20  C   UNL     1      -0.041   7.651  -2.517  0.00  0.00    +0.020 A 
ATOM     21  C   UNL     1       0.923   7.553  -3.504  0.00  0.00    +0.041 A 
ATOM     22  C   UNL     1       1.965   6.652  -3.366  0.00  0.00    +0.020 A 
ATOM     23  C   UNL     1       2.041   5.851  -2.242  0.00  0.00    +0.007 A 
ATOM     24 CL   UNL     1       0.827   8.559  -4.916  0.00  0.00    -0.084 Cl
ENDBRANCH  17  18
BRANCH  17  25
ATOM     25  C   UNL     1       0.220   3.908  -0.182  0.00  0.00    +0.133 A 
ATOM     26  N   UNL     1      -1.079   3.957  -0.066  0.00  0.00    -0.239 NA
ATOM     27  C   UNL     1      -1.587   2.732  -0.270  0.00  0.00    +0.130 A 
ATOM     28  C   UNL     1      -0.564   1.891  -0.513  0.00  0.00    +0.106 A 
ATOM     29  N   UNL     1       0.582   2.637  -0.461  0.00  0.00    -0.336 N 
ATOM     30  C   UNL     1       1.948   2.148  -0.669  0.00  0.00    +0.150 C 
ENDBRANCH  17  25
ENDBRANCH   1  17
TORSDOF 6
