REMARK  Name = ZINC08645383
REMARK  6 active torsions:
REMARK  status: ('A' for Active; 'I' for Inactive)
REMARK    1  A    between atoms: C_1  and  C_2
REMARK    2  A    between atoms: C_2  and  C_4
REMARK    3  A    between atoms: C_2  and  S_16
REMARK    4  A    between atoms: S_16  and  C_17
REMARK    5  A    between atoms: C_20  and  C_23
REMARK    6  A    between atoms: N_21  and  N_22
REMARK                            x       y       z     vdW  Elec       q    Type
REMARK                         _______ _______ _______ _____ _____    ______ ____
ROOT
ATOM      1  C   UNL     1       2.199  -4.574   0.618  0.00  0.00    +0.209 A 
ATOM      2  N   UNL     1       1.022  -5.098   0.359  0.00  0.00    -0.121 NA
ATOM      3  N   UNL     1       1.052  -6.368   0.555  0.00  0.00    -0.127 NA
ATOM      4  C   UNL     1       2.249  -6.733   0.950  0.00  0.00    +0.183 A 
ATOM      5  N   UNL     1       3.023  -5.596   0.997  0.00  0.00    -0.224 N 
ENDROOT
BRANCH   4   6
ATOM      6  C   UNL     1       2.686  -8.107   1.276  0.00  0.00    +0.039 A 
ATOM      7  C   UNL     1       3.412  -8.353   2.443  0.00  0.00    +0.014 A 
ATOM      8  C   UNL     1       3.812  -9.638   2.745  0.00  0.00    +0.021 A 
ATOM      9  C   UNL     1       3.506 -10.682   1.888  0.00  0.00    +0.042 A 
ATOM     10  C   UNL     1       2.791 -10.444   0.726  0.00  0.00    +0.040 A 
ATOM     11  C   UNL     1       2.380  -9.163   0.415  0.00  0.00    +0.053 A 
ATOM     12 CL   UNL     1       1.485  -8.867  -1.042  0.00  0.00    -0.083 Cl
ATOM     13 CL   UNL     1       4.019 -12.295   2.272  0.00  0.00    -0.083 Cl
ENDBRANCH   4   6
BRANCH   5  14
ATOM     14  N   UNL     1       4.339  -5.507   1.352  0.00  0.00    -0.295 N 
ATOM     15  H   UNL     1       4.439  -5.438   2.353  0.00  0.00    +0.163 HD
ATOM     16  H   UNL     1       4.865  -6.288   0.989  0.00  0.00    +0.163 HD
ENDBRANCH   5  14
BRANCH   1  17
ATOM     17  S   UNL     1       2.636  -2.872   0.491  0.00  0.00    -0.074 S 
BRANCH  17  19
ATOM     18  C   UNL     1       0.718  -2.728  -1.449  0.00  0.00    +0.027 C 
ATOM     19  C   UNL     1       1.056  -2.182  -0.060  0.00  0.00    +0.117 C 
BRANCH  19  20
ATOM     20  C   UNL     1       1.158  -0.680  -0.122  0.00  0.00    +0.124 A 
ATOM     21  N   UNL     1       2.385  -0.124  -0.294  0.00  0.00    -0.309 N 
ATOM     22  H   UNL     1       3.165  -0.696  -0.374  0.00  0.00    +0.170 HD
ATOM     23  C   UNL     1       2.530   1.220  -0.357  0.00  0.00    +0.259 A 
ATOM     24  O   UNL     1       3.624   1.732  -0.510  0.00  0.00    -0.267 OA
ATOM     25  C   UNL     1       1.315   2.038  -0.231  0.00  0.00    +0.065 A 
ATOM     26  C   UNL     1       1.355   3.430  -0.282  0.00  0.00    +0.015 A 
ATOM     27  C   UNL     1       0.186   4.148  -0.158  0.00  0.00    +0.001 A 
ATOM     28  C   UNL     1      -1.028   3.496   0.016  0.00  0.00    +0.002 A 
ATOM     29  C   UNL     1      -1.089   2.122   0.074  0.00  0.00    +0.028 A 
ATOM     30  C   UNL     1       0.082   1.372  -0.054  0.00  0.00    +0.078 A 
ATOM     31  N   UNL     1       0.068   0.016  -0.008  0.00  0.00    -0.233 NA
ENDBRANCH  19  20
ENDBRANCH  17  19
ENDBRANCH   1  17
TORSDOF 5
