REMARK  Name = ZINC09521613
REMARK  8 active torsions:
REMARK  status: ('A' for Active; 'I' for Inactive)
REMARK    1  A    between atoms: C_1  and  C_2
REMARK    2  A    between atoms: C_6  and  N_9
REMARK    3  A    between atoms: C_7  and  C_8
REMARK    4  A    between atoms: C_14  and  O_28
REMARK    5  A    between atoms: C_16  and  S_18
REMARK    6  A    between atoms: S_18  and  C_19
REMARK    7  A    between atoms: C_19  and  C_20
REMARK    8  A    between atoms: N_22  and  C_23
REMARK                            x       y       z     vdW  Elec       q    Type
REMARK                         _______ _______ _______ _____ _____    ______ ____
ROOT
ATOM      1  N   UNL     1      12.068   3.595   1.089  0.00  0.00    -0.214 N 
ATOM      2  C   UNL     1      10.813   3.330   0.617  0.00  0.00    +0.171 A 
ATOM      3  C   UNL     1      10.975   2.824  -0.689  0.00  0.00    +0.100 A 
ATOM      4  C   UNL     1      12.362   2.804  -0.955  0.00  0.00    +0.150 A 
ATOM      5  N   UNL     1      12.991   3.257   0.092  0.00  0.00    -0.172 NA
ATOM      6  C   UNL     1       9.825   2.466  -1.415  0.00  0.00    +0.227 A 
ATOM      7  N   UNL     1       8.640   2.615  -0.839  0.00  0.00    -0.187 NA
ATOM      8  C   UNL     1       8.531   3.101   0.393  0.00  0.00    +0.194 A 
ATOM      9  N   UNL     1       9.585   3.451   1.113  0.00  0.00    -0.202 NA
ENDROOT
BRANCH   1  15
ATOM     10  C   UNL     1      15.440   4.834   4.447  0.00  0.00    +0.044 C 
ATOM     11  C   UNL     1      14.003   4.725   4.005  0.00  0.00    -0.046 A 
ATOM     12  C   UNL     1      12.988   5.138   4.849  0.00  0.00    +0.004 A 
ATOM     13  C   UNL     1      11.668   5.039   4.448  0.00  0.00    +0.002 A 
ATOM     14  C   UNL     1      11.360   4.533   3.200  0.00  0.00    +0.028 A 
ATOM     15  C   UNL     1      12.377   4.113   2.353  0.00  0.00    +0.071 A 
ATOM     16  C   UNL     1      13.701   4.214   2.759  0.00  0.00    -0.022 A 
ATOM     17  C   UNL     1      14.808   3.764   1.840  0.00  0.00    +0.046 C 
ENDBRANCH   1  15
BRANCH   6  18
ATOM     18  O   UNL     1       9.926   1.975  -2.672  0.00  0.00    -0.492 OA
ATOM     19  H   UNL     1      10.005   1.012  -2.713  0.00  0.00    +0.294 HD
ENDBRANCH   6  18
BRANCH   8  20
ATOM     20  S   UNL     1       6.925   3.280   1.096  0.00  0.00    -0.077 S 
BRANCH  20  21
ATOM     21  C   UNL     1       5.912   2.675  -0.277  0.00  0.00    +0.173 C 
BRANCH  21  22
ATOM     22  C   UNL     1       4.457   2.737   0.108  0.00  0.00    +0.224 C 
ATOM     23  O   UNL     1       4.136   3.149   1.202  0.00  0.00    -0.275 OA
ATOM     24  N   UNL     1       3.511   2.333  -0.764  0.00  0.00    -0.312 N 
ATOM     25  H   UNL     1       3.768   2.003  -1.639  0.00  0.00    +0.149 HD
BRANCH  24  26
ATOM     26  C   UNL     1       2.096   2.394  -0.390  0.00  0.00    +0.073 C 
ATOM     27  C   UNL     1       1.472   3.745  -0.819  0.00  0.00    +0.022 C 
ATOM     28  C   UNL     1      -0.036   3.444  -0.939  0.00  0.00    +0.002 C 
ATOM     29  C   UNL     1      -0.165   1.930  -1.181  0.00  0.00    +0.002 C 
ATOM     30  C   UNL     1       1.270   1.363  -1.200  0.00  0.00    +0.022 C 
ENDBRANCH  24  26
ENDBRANCH  21  22
ENDBRANCH  20  21
ENDBRANCH   8  20
TORSDOF 6
