REMARK  Name = ZINC03122777
REMARK  6 active torsions:
REMARK  status: ('A' for Active; 'I' for Inactive)
REMARK    1  A    between atoms: C_4  and  O_7
REMARK    2  A    between atoms: O_7  and  C_8
REMARK    3  A    between atoms: C_8  and  C_10
REMARK    4  A    between atoms: C_8  and  N_14
REMARK    5  A    between atoms: C_15  and  C_17
REMARK    6  A    between atoms: C_22  and  N_23
REMARK                            x       y       z     vdW  Elec       q    Type
REMARK                         _______ _______ _______ _____ _____    ______ ____
ROOT
ATOM      1  N   UNL     1      -3.365   2.240  -1.286  0.00  0.00    -0.273 N 
ATOM      2  C   UNL     1      -3.199   0.903  -1.332  0.00  0.00    +0.249 C 
ATOM      3  O   UNL     1      -2.913   0.291  -0.322  0.00  0.00    -0.270 OA
ATOM      4  H   UNL     1      -3.521   2.738  -2.104  0.00  0.00    +0.153 HD
ENDROOT
BRANCH   2   5
ATOM      5  C   UNL     1      -3.366   0.182  -2.611  0.00  0.00    +0.067 A 
ATOM      6  C   UNL     1      -2.619   0.555  -3.730  0.00  0.00    +0.015 A 
ATOM      7  C   UNL     1      -2.776  -0.125  -4.919  0.00  0.00    +0.001 A 
ATOM      8  C   UNL     1      -3.680  -1.170  -5.008  0.00  0.00    +0.002 A 
ATOM      9  C   UNL     1      -4.427  -1.542  -3.905  0.00  0.00    +0.033 A 
ATOM     10  C   UNL     1      -4.276  -0.872  -2.708  0.00  0.00    +0.138 A 
BRANCH  10  11
ATOM     11  N   UNL     1      -5.077  -1.271  -1.529  0.00  0.00    +0.057 N 
ATOM     12  O   UNL     1      -5.789  -2.258  -1.582  0.00  0.00    -0.126 OA
ATOM     13  O   UNL     1      -5.023  -0.613  -0.505  0.00  0.00    -0.126 OA
ENDBRANCH  10  11
ENDBRANCH   2   5
BRANCH   1  14
ATOM     14  C   UNL     1      -3.309   2.941  -0.001  0.00  0.00    +0.314 C 
BRANCH  14  15
ATOM     15  C   UNL     1      -4.314   4.096  -0.006  0.00  0.00    +0.244 C 
ATOM     16 CL   UNL     1      -3.904   5.243  -1.334  0.00  0.00    -0.078 Cl
ATOM     17 CL   UNL     1      -5.975   3.445  -0.264  0.00  0.00    -0.078 Cl
ATOM     18 CL   UNL     1      -4.245   4.958   1.576  0.00  0.00    -0.078 Cl
ENDBRANCH  14  15
BRANCH  14  19
ATOM     19  O   UNL     1      -1.992   3.457   0.204  0.00  0.00    -0.467 OA
BRANCH  19  23
ATOM     20  C   UNL     1      -0.580   3.498   4.080  0.00  0.00    +0.000 A 
ATOM     21  C   UNL     1      -1.867   3.065   3.819  0.00  0.00    +0.004 A 
ATOM     22  C   UNL     1      -2.340   3.045   2.522  0.00  0.00    +0.046 A 
ATOM     23  C   UNL     1      -1.527   3.470   1.481  0.00  0.00    +0.123 A 
ATOM     24  C   UNL     1      -0.236   3.903   1.745  0.00  0.00    +0.046 A 
ATOM     25  C   UNL     1       0.235   3.916   3.044  0.00  0.00    +0.004 A 
ENDBRANCH  19  23
ENDBRANCH  14  19
ENDBRANCH   1  14
TORSDOF 6
