REMARK  Name = ZINC39665194
REMARK  7 active torsions:
REMARK  status: ('A' for Active; 'I' for Inactive)
REMARK    1  A    between atoms: C_1  and  C_2
REMARK    2  A    between atoms: C_2  and  C_4
REMARK    3  A    between atoms: C_2  and  O_29
REMARK    4  A    between atoms: C_4  and  N_5
REMARK    5  A    between atoms: C_6  and  C_8
REMARK    6  A    between atoms: C_19  and  C_21
REMARK    7  A    between atoms: O_29  and  C_30
REMARK                            x       y       z     vdW  Elec       q    Type
REMARK                         _______ _______ _______ _____ _____    ______ ____
ROOT
ATOM      1  C   UNL     1       1.016  -6.461   4.321  0.00  0.00    +0.100 C 
ATOM      2  C   UNL     1      -0.377  -7.130   4.342  0.00  0.00    +0.121 C 
ATOM      3  N   UNL     1      -0.408  -7.890   5.614  0.00  0.00    -0.296 N 
ATOM      4  C   UNL     1       0.270  -7.003   6.590  0.00  0.00    +0.115 C 
ATOM      5  C   UNL     1       1.436  -6.378   5.798  0.00  0.00    -0.004 C 
ATOM      6  C   UNL     1       1.633  -4.923   6.211  0.00  0.00    -0.010 C 
ATOM      7  C   UNL     1       2.108  -4.870   7.666  0.00  0.00    -0.082 C 
ATOM      8  N   UNL     1       3.367  -5.612   7.800  0.00  0.00    +0.379 N 
ATOM      9  C   UNL     1       3.147  -7.030   7.491  0.00  0.00    -0.082 C 
ATOM     10  C   UNL     1       2.717  -7.175   6.028  0.00  0.00    -0.010 C 
ATOM     11  C   UNL     1      -0.934  -9.111   5.834  0.00  0.00    +0.248 C 
ATOM     12  O   UNL     1      -0.962  -9.567   6.961  0.00  0.00    -0.270 OA
ATOM     13  H   UNL     1       4.049  -5.231   7.162  0.00  0.00    -0.086 HD
ATOM     14  H   UNL     1       3.709  -5.524   8.745  0.00  0.00    -0.086 HD
ENDROOT
BRANCH  11  15
ATOM     15  C   UNL     1      -1.476  -9.896   4.706  0.00  0.00    +0.057 A 
ATOM     16  C   UNL     1      -2.253  -9.273   3.727  0.00  0.00    +0.014 A 
ATOM     17  C   UNL     1      -2.756 -10.011   2.676  0.00  0.00    +0.002 A 
ATOM     18  C   UNL     1      -2.494 -11.367   2.590  0.00  0.00    +0.021 A 
ATOM     19  C   UNL     1      -1.726 -11.993   3.555  0.00  0.00    +0.060 A 
ATOM     20  C   UNL     1      -1.210 -11.264   4.611  0.00  0.00    +0.071 A 
ATOM     21 CL   UNL     1      -0.239 -12.048   5.818  0.00  0.00    -0.081 Cl
ATOM     22 CL   UNL     1      -1.404 -13.695   3.438  0.00  0.00    -0.082 Cl
ENDBRANCH  11  15
BRANCH   1  24
ATOM     23  N   UNL     1       1.981  -4.559   3.068  0.00  0.00    -0.312 N 
ATOM     24  C   UNL     1       0.925  -5.080   3.724  0.00  0.00    +0.218 C 
ATOM     25  O   UNL     1      -0.098  -4.438   3.832  0.00  0.00    -0.275 OA
ATOM     26  H   UNL     1       2.800  -5.072   2.982  0.00  0.00    +0.149 HD
BRANCH  23  27
ATOM     27  C   UNL     1       1.893  -3.217   2.487  0.00  0.00    +0.148 C 
BRANCH  27  29
ATOM     28  C   UNL     1       3.126  -1.467   1.199  0.00  0.00    +0.053 C 
ATOM     29  C   UNL     1       3.218  -2.869   1.806  0.00  0.00    +0.187 C 
BRANCH  29  30
ATOM     30  O   UNL     1       4.273  -2.902   2.769  0.00  0.00    -0.488 OA
BRANCH  30  31
ATOM     31  C   UNL     1       5.517  -3.204   2.312  0.00  0.00    +0.121 A 
ATOM     32  C   UNL     1       6.566  -3.364   3.206  0.00  0.00    +0.045 A 
ATOM     33  C   UNL     1       7.829  -3.671   2.739  0.00  0.00    +0.004 A 
ATOM     34  C   UNL     1       8.048  -3.819   1.382  0.00  0.00    +0.000 A 
ATOM     35  C   UNL     1       7.005  -3.660   0.489  0.00  0.00    +0.004 A 
ATOM     36  C   UNL     1       5.738  -3.359   0.952  0.00  0.00    +0.045 A 
ENDBRANCH  30  31
ENDBRANCH  29  30
ENDBRANCH  27  29
ENDBRANCH  23  27
ENDBRANCH   1  24
TORSDOF 6
