REMARK  Name = ZINC36882905
REMARK  2 active torsions:
REMARK  status: ('A' for Active; 'I' for Inactive)
REMARK    1  A    between atoms: C_3  and  N_16
REMARK    2  A    between atoms: C_4  and  C_8
REMARK                            x       y       z     vdW  Elec       q    Type
REMARK                         _______ _______ _______ _____ _____    ______ ____
ROOT
ATOM      1  C   UNL     1      -0.073   1.271   0.020  0.00  0.00    +0.040 A 
ATOM      2  C   UNL     1       1.037   2.090  -0.010  0.00  0.00    +0.026 A 
ATOM      3  C   UNL     1       2.311   1.536  -0.035  0.00  0.00    +0.037 A 
ATOM      4  C   UNL     1       2.462   0.141  -0.031  0.00  0.00    +0.060 A 
ATOM      5  C   UNL     1       1.329  -0.677  -0.001  0.00  0.00    +0.053 A 
ATOM      6  C   UNL     1       0.072  -0.109   0.024  0.00  0.00    +0.124 A 
ATOM      7  F   UNL     1      -1.022  -0.900   0.054  0.00  0.00    -0.205 F 
ENDROOT
BRANCH   4   8
ATOM      8  C   UNL     1       3.809  -0.459  -0.059  0.00  0.00    +0.252 C 
ATOM      9  O   UNL     1       4.792   0.252   0.023  0.00  0.00    -0.270 OA
ATOM     10  N   UNL     1       3.950  -1.794  -0.176  0.00  0.00    -0.259 N 
ATOM     11  C   UNL     1       5.219  -2.359  -0.202  0.00  0.00    +0.188 A 
ATOM     12  N   UNL     1       6.411  -1.784  -0.122  0.00  0.00    -0.126 NA
ATOM     13  N   UNL     1       7.478  -2.455  -0.162  0.00  0.00    -0.148 NA
ATOM     14  C   UNL     1       7.477  -3.768  -0.286  0.00  0.00    +0.183 A 
ATOM     15  S   UNL     1       5.714  -4.074  -0.346  0.00  0.00    -0.039 S 
ATOM     16  H   UNL     1       3.165  -2.360  -0.242  0.00  0.00    +0.157 HD
ENDBRANCH   4   8
BRANCH   3  17
ATOM     17  N   UNL     1       3.430   2.360  -0.066  0.00  0.00    -0.357 N 
ATOM     18  H   UNL     1       3.323   3.321  -0.150  0.00  0.00    +0.142 HD
ATOM     19  H   UNL     1       4.318   1.975  -0.003  0.00  0.00    +0.142 HD
ENDBRANCH   3  17
TORSDOF 2
