REMARK  Name = ZINC65668078
REMARK  5 active torsions:
REMARK  status: ('A' for Active; 'I' for Inactive)
REMARK    1  A    between atoms: C_1  and  C_2
REMARK    2  A    between atoms: C_3  and  C_23
REMARK    3  A    between atoms: C_9  and  C_12
REMARK    4  A    between atoms: N_14  and  C_15
REMARK    5  A    between atoms: N_14  and  C_16
REMARK                            x       y       z     vdW  Elec       q    Type
REMARK                         _______ _______ _______ _____ _____    ______ ____
ROOT
ATOM      1  C   UNL     1      -0.674   1.965   0.300  0.00  0.00    +0.046 C 
ATOM      2  C   UNL     1      -0.689   0.463   0.180  0.00  0.00    -0.022 A 
ATOM      3  C   UNL     1      -0.828  -0.247  -0.950  0.00  0.00    +0.017 A 
ATOM      4  N   UNL     1      -0.794  -1.586  -0.668  0.00  0.00    -0.358 N 
ATOM      5  H   UNL     1      -0.875  -2.296  -1.325  0.00  0.00    +0.166 HD
ATOM      6  C   UNL     1      -0.628  -1.778   0.683  0.00  0.00    +0.047 A 
ATOM      7  C   UNL     1      -0.548  -0.502   1.275  0.00  0.00    +0.004 A 
ATOM      8  C   UNL     1      -0.371  -0.383   2.651  0.00  0.00    +0.023 A 
ATOM      9  C   UNL     1      -0.272  -1.533   3.429  0.00  0.00    +0.038 A 
ATOM     10  C   UNL     1      -0.348  -2.796   2.827  0.00  0.00    +0.015 A 
ATOM     11  C   UNL     1      -0.530  -2.916   1.481  0.00  0.00    +0.027 A 
ATOM     12  C   UNL     1      -0.997   0.342  -2.326  0.00  0.00    +0.063 C 
ENDROOT
BRANCH   9  13
ATOM     13  C   UNL     1      -0.084  -1.422   4.889  0.00  0.00    +0.251 C 
ATOM     14  O   UNL     1      -0.663  -2.186   5.636  0.00  0.00    -0.270 OA
ATOM     15  N   UNL     1       0.730  -0.473   5.394  0.00  0.00    -0.268 N 
ATOM     16  C   UNL     1       1.344   0.515   4.503  0.00  0.00    +0.138 C 
BRANCH  15  17
ATOM     17  C   UNL     1       0.988  -0.431   6.769  0.00  0.00    +0.072 A 
ATOM     18  C   UNL     1       2.064  -1.133   7.296  0.00  0.00    +0.026 A 
ATOM     19  C   UNL     1       2.317  -1.090   8.653  0.00  0.00    +0.002 A 
ATOM     20  C   UNL     1       1.500  -0.349   9.488  0.00  0.00    +0.003 A 
ATOM     21  C   UNL     1       0.427   0.351   8.968  0.00  0.00    +0.040 A 
ATOM     22  C   UNL     1       0.172   0.317   7.609  0.00  0.00    +0.145 A 
ATOM     23  F   UNL     1      -0.873   1.006   7.100  0.00  0.00    -0.204 F 
ENDBRANCH  15  17
ENDBRANCH   9  13
TORSDOF 2
