REMARK  Name = ZINC18195752
REMARK  5 active torsions:
REMARK  status: ('A' for Active; 'I' for Inactive)
REMARK    1  A    between atoms: C_1  and  C_2
REMARK    2  A    between atoms: C_5  and  N_8
REMARK    3  A    between atoms: C_11  and  C_13
REMARK    4  A    between atoms: C_14  and  C_24
REMARK    5  A    between atoms: C_29  and  O_30
REMARK                            x       y       z     vdW  Elec       q    Type
REMARK                         _______ _______ _______ _____ _____    ______ ____
ROOT
ATOM      1  N   UNL     1      -2.458   3.824   0.046  0.00  0.00    -0.218 N 
ATOM      2  C   UNL     1      -3.595   3.440  -0.570  0.00  0.00    +0.131 A 
ATOM      3  C   UNL     1      -4.550   4.388  -0.309  0.00  0.00    +0.027 A 
ATOM      4  C   UNL     1      -3.972   5.366   0.488  0.00  0.00    +0.066 A 
ATOM      5  N   UNL     1      -2.722   5.033   0.711  0.00  0.00    -0.170 NA
ATOM      6  C   UNL     1      -4.664   6.597   1.015  0.00  0.00    +0.068 C 
ATOM      7  C   UNL     1      -5.949   4.289  -0.848  0.00  0.00    +0.092 C 
ATOM      8  C   UNL     1      -6.193   2.895  -1.383  0.00  0.00    +0.024 C 
ATOM      9  C   UNL     1      -5.191   2.014  -1.595  0.00  0.00    +0.017 C 
ATOM     10  N   UNL     1      -3.878   2.322  -1.344  0.00  0.00    -0.302 N 
ATOM     11  C   UNL     1      -5.479   0.625  -2.117  0.00  0.00    +0.051 C 
ATOM     12  C   UNL     1      -6.714   0.657  -3.019  0.00  0.00    +0.014 C 
ATOM     13  C   UNL     1      -7.893   1.195  -2.201  0.00  0.00    +0.080 C 
ATOM     14  C   UNL     1      -7.529   2.548  -1.656  0.00  0.00    +0.162 C 
ATOM     15  O   UNL     1      -8.408   3.361  -1.447  0.00  0.00    -0.292 OA
ATOM     16  H   UNL     1      -3.163   1.771  -1.699  0.00  0.00    +0.153 HD
ENDROOT
BRANCH   1  21
ATOM     17  C   UNL     1       2.490   1.045  -0.016  0.00  0.00    +0.044 C 
ATOM     18  C   UNL     1       1.176   1.783   0.000  0.00  0.00    -0.050 A 
ATOM     19  C   UNL     1      -0.013   1.076   0.008  0.00  0.00    +0.005 A 
ATOM     20  C   UNL     1      -1.218   1.749   0.017  0.00  0.00    +0.028 A 
ATOM     21  C   UNL     1      -1.236   3.138   0.031  0.00  0.00    +0.067 A 
ATOM     22  C   UNL     1      -0.041   3.845   0.024  0.00  0.00    +0.028 A 
ATOM     23  C   UNL     1       1.161   3.166   0.008  0.00  0.00    +0.005 A 
ENDBRANCH   1  21
BRANCH   7  24
ATOM     24  C   UNL     1      -6.131   5.291  -1.958  0.00  0.00    +0.007 A 
ATOM     25  C   UNL     1      -5.334   5.226  -3.085  0.00  0.00    +0.023 A 
ATOM     26  C   UNL     1      -5.500   6.146  -4.105  0.00  0.00    +0.018 A 
ATOM     27  C   UNL     1      -6.464   7.133  -3.999  0.00  0.00    +0.019 A 
ATOM     28  C   UNL     1      -7.263   7.201  -2.874  0.00  0.00    +0.047 A 
ATOM     29  C   UNL     1      -7.102   6.276  -1.853  0.00  0.00    +0.121 A 
ATOM     30 BR   UNL     1      -4.407   6.055  -5.646  0.00  0.00    -0.050 Br
BRANCH  29  31
ATOM     31  O   UNL     1      -7.890   6.339  -0.748  0.00  0.00    -0.506 OA
ATOM     32  H   UNL     1      -7.533   6.893  -0.040  0.00  0.00    +0.292 HD
ENDBRANCH  29  31
ENDBRANCH   7  24
TORSDOF 3
