REMARK  Name = ZINC40391940
REMARK  5 active torsions:
REMARK  status: ('A' for Active; 'I' for Inactive)
REMARK    1  A    between atoms: C_5  and  N_7
REMARK    2  A    between atoms: C_14  and  C_26
REMARK    3  A    between atoms: C_17  and  C_19
REMARK    4  A    between atoms: N_28  and  C_29
REMARK    5  A    between atoms: C_29  and  C_30
REMARK                            x       y       z     vdW  Elec       q    Type
REMARK                         _______ _______ _______ _____ _____    ______ ____
ROOT
ATOM      1  N   UNL     1      -0.000  -2.107   1.183  0.00  0.00    -0.325 N 
ATOM      2  C   UNL     1      -1.246  -2.886   1.182  0.00  0.00    +0.124 C 
ATOM      3  C   UNL     1      -1.227  -3.840  -0.018  0.00  0.00    +0.125 C 
ATOM      4  N   UNL     1       0.056  -4.556  -0.028  0.00  0.00    -0.311 N 
ATOM      5  C   UNL     1       1.302  -3.777  -0.027  0.00  0.00    +0.125 C 
ATOM      6  C   UNL     1       1.283  -2.823   1.168  0.00  0.00    +0.124 C 
ATOM      7  C   UNL     1       0.090  -5.935  -0.037  0.00  0.00    +0.137 A 
ATOM      8  C   UNL     1       0.008  -6.648  -1.253  0.00  0.00    +0.095 A 
ATOM      9  C   UNL     1       0.048  -8.045  -1.203  0.00  0.00    +0.129 A 
ATOM     10  N   UNL     1       0.160  -8.643  -0.032  0.00  0.00    -0.235 NA
ATOM     11  C   UNL     1       0.236  -7.941   1.093  0.00  0.00    +0.162 A 
ATOM     12  N   UNL     1       0.207  -6.615   1.097  0.00  0.00    -0.212 NA
ENDROOT
BRANCH   1  17
ATOM     13  C   UNL     1      -0.095   1.376   0.008  0.00  0.00    +0.002 A 
ATOM     14  C   UNL     1      -0.102   2.059   1.210  0.00  0.00    +0.003 A 
ATOM     15  C   UNL     1      -0.076   1.363   2.405  0.00  0.00    +0.040 A 
ATOM     16  C   UNL     1      -0.042  -0.019   2.400  0.00  0.00    +0.144 A 
ATOM     17  C   UNL     1      -0.035  -0.709   1.192  0.00  0.00    +0.065 A 
ATOM     18  C   UNL     1      -0.061  -0.005  -0.004  0.00  0.00    +0.026 A 
ATOM     19  F   UNL     1      -0.016  -0.699   3.567  0.00  0.00    -0.204 F 
ENDBRANCH   1  17
BRANCH  11  20
ATOM     20  C   UNL     1       0.360  -8.661   2.382  0.00  0.00    +0.019 A 
ATOM     21  C   UNL     1       0.436  -7.947   3.578  0.00  0.00    +0.014 A 
ATOM     22  C   UNL     1       0.551  -8.621   4.775  0.00  0.00    +0.039 A 
ATOM     23  C   UNL     1       0.594 -10.006   4.791  0.00  0.00    +0.123 A 
ATOM     24  C   UNL     1       0.520 -10.720   3.606  0.00  0.00    +0.039 A 
ATOM     25  C   UNL     1       0.398 -10.055   2.404  0.00  0.00    +0.014 A 
ATOM     26  F   UNL     1       0.708 -10.662   5.966  0.00  0.00    -0.205 F 
ENDBRANCH  11  20
BRANCH   8  27
ATOM     27  C   UNL     1      -0.118  -5.939  -2.538  0.00  0.00    +0.249 C 
ATOM     28  O   UNL     1      -0.049  -4.726  -2.572  0.00  0.00    -0.270 OA
ATOM     29  N   UNL     1      -0.308  -6.636  -3.676  0.00  0.00    -0.309 N 
ATOM     30  H   UNL     1      -0.363  -7.604  -3.648  0.00  0.00    +0.149 HD
BRANCH  29  31
ATOM     31  C   UNL     1      -0.433  -5.932  -4.954  0.00  0.00    +0.136 C 
BRANCH  31  32
ATOM     32  C   UNL     1      -0.641  -6.948  -6.079  0.00  0.00    +0.135 C 
ATOM     33  C   UNL     1      -0.653  -6.225  -7.442  0.00  0.00    +0.035 C 
ATOM     34  C   UNL     1      -1.770  -6.984  -8.208  0.00  0.00    +0.031 C 
ATOM     35  C   UNL     1      -2.748  -7.313  -7.052  0.00  0.00    +0.160 C 
ATOM     36  O   UNL     1      -1.908  -7.596  -5.919  0.00  0.00    -0.375 OA
ENDBRANCH  31  32
ENDBRANCH  29  31
ENDBRANCH   8  27
TORSDOF 5
