REMARK  Name = ZINC66140144
REMARK  9 active torsions:
REMARK  status: ('A' for Active; 'I' for Inactive)
REMARK    1  A    between atoms: C_1  and  C_2
REMARK    2  A    between atoms: C_2  and  C_3
REMARK    3  A    between atoms: C_2  and  O_4
REMARK    4  A    between atoms: O_4  and  C_5
REMARK    5  A    between atoms: C_10  and  C_11
REMARK    6  A    between atoms: C_13  and  C_17
REMARK    7  A    between atoms: C_17  and  O_18
REMARK    8  A    between atoms: O_18  and  C_19
REMARK    9  A    between atoms: C_24  and  N_25
REMARK                            x       y       z     vdW  Elec       q    Type
REMARK                         _______ _______ _______ _____ _____    ______ ____
ROOT
ATOM      1  C   UNL     1      -4.011  -1.398  -0.178  0.00  0.00    +0.070 A 
ATOM      2  C   UNL     1      -5.253  -1.205  -0.715  0.00  0.00    +0.056 A 
ATOM      3  C   UNL     1      -6.007  -0.474   0.204  0.00  0.00    +0.101 A 
ATOM      4  N   UNL     1      -5.264  -0.231   1.254  0.00  0.00    -0.175 NA
ATOM      5  N   UNL     1      -4.003  -0.804   1.049  0.00  0.00    -0.276 N 
ATOM      6  H   UNL     1      -3.256  -0.780   1.668  0.00  0.00    +0.189 HD
ENDROOT
BRANCH   1  12
ATOM      7  C   UNL     1      -1.580  -1.639  -0.686  0.00  0.00    +0.130 A 
ATOM      8  C   UNL     1      -0.533  -2.328  -1.275  0.00  0.00    +0.046 A 
ATOM      9  C   UNL     1      -0.780  -3.488  -1.986  0.00  0.00    +0.004 A 
ATOM     10  C   UNL     1      -2.072  -3.968  -2.113  0.00  0.00    +0.001 A 
ATOM     11  C   UNL     1      -3.125  -3.292  -1.531  0.00  0.00    +0.013 A 
ATOM     12  C   UNL     1      -2.887  -2.124  -0.808  0.00  0.00    +0.041 A 
BRANCH   7  13
ATOM     13  O   UNL     1      -1.339  -0.499   0.012  0.00  0.00    -0.489 OA
BRANCH  13  15
ATOM     14  C   UNL     1      -0.011   1.505   0.263  0.00  0.00    +0.051 C 
ATOM     15  C   UNL     1       0.001  -0.002  -0.000  0.00  0.00    +0.167 C 
ATOM     16  C   UNL     1       0.815  -0.703   1.089  0.00  0.00    +0.051 C 
ENDBRANCH  13  15
ENDBRANCH   7  13
ENDBRANCH   1  12
BRANCH   3  17
ATOM     17  C   UNL     1      -7.437  -0.037   0.018  0.00  0.00    +0.286 C 
BRANCH  17  18
ATOM     18  O   UNL     1      -7.912  -0.487  -1.253  0.00  0.00    -0.484 OA
BRANCH  18  19
ATOM     19  C   UNL     1      -9.194  -0.174  -1.579  0.00  0.00    +0.142 A 
ATOM     20  C   UNL     1      -9.977   0.554  -0.699  0.00  0.00    +0.047 A 
ATOM     21  C   UNL     1     -11.281   0.872  -1.032  0.00  0.00    +0.004 A 
ATOM     22  C   UNL     1     -11.807   0.463  -2.243  0.00  0.00    +0.002 A 
ATOM     23  C   UNL     1     -11.033  -0.264  -3.128  0.00  0.00    +0.026 A 
ATOM     24  C   UNL     1      -9.723  -0.582  -2.803  0.00  0.00    +0.067 A 
BRANCH  24  25
ATOM     25  N   UNL     1      -8.934  -1.313  -3.699  0.00  0.00    -0.355 N 
ATOM     26  H   UNL     1      -8.019  -1.537  -3.468  0.00  0.00    +0.142 HD
ATOM     27  H   UNL     1      -9.304  -1.596  -4.550  0.00  0.00    +0.142 HD
ENDBRANCH  24  25
ENDBRANCH  18  19
ENDBRANCH  17  18
ENDBRANCH   3  17
TORSDOF 7
