REMARK  Name = ZINC32747660
REMARK  9 active torsions:
REMARK  status: ('A' for Active; 'I' for Inactive)
REMARK    1  A    between atoms: C_1  and  S_2
REMARK    2  A    between atoms: S_2  and  C_5
REMARK    3  A    between atoms: C_5  and  C_6
REMARK    4  A    between atoms: C_6  and  C_7
REMARK    5  A    between atoms: C_7  and  C_9
REMARK    6  A    between atoms: C_7  and  N_22
REMARK    7  A    between atoms: N_11  and  C_12
REMARK    8  A    between atoms: C_12  and  C_13
REMARK    9  A    between atoms: C_23  and  C_25
REMARK                            x       y       z     vdW  Elec       q    Type
REMARK                         _______ _______ _______ _____ _____    ______ ____
ROOT
ATOM      1  C   UNL     1      -3.750  -1.085   0.015  0.00  0.00    +0.161 C 
ENDROOT
BRANCH   1   2
ATOM      2  C   UNL     1      -3.531  -2.446  -0.593  0.00  0.00    +0.234 C 
ATOM      3  O   UNL     1      -2.429  -2.763  -0.990  0.00  0.00    -0.274 OA
ATOM      4  N   UNL     1      -4.558  -3.312  -0.697  0.00  0.00    -0.310 N 
ATOM      5  H   UNL     1      -5.558  -3.025  -0.337  0.00  0.00    +0.149 HD
BRANCH   4   6
ATOM      6  C   UNL     1      -4.345  -4.635  -1.288  0.00  0.00    +0.139 C 
BRANCH   6   7
ATOM      7  C   UNL     1      -5.643  -5.402  -1.285  0.00  0.00    -0.027 A 
ATOM      8  C   UNL     1      -5.971  -6.199  -0.204  0.00  0.00    +0.009 A 
ATOM      9  C   UNL     1      -7.162  -6.899  -0.195  0.00  0.00    +0.050 A 
ATOM     10  C   UNL     1      -8.025  -6.814  -1.275  0.00  0.00    +0.166 A 
ATOM     11  C   UNL     1      -7.692  -6.016  -2.367  0.00  0.00    +0.167 A 
ATOM     12  C   UNL     1      -6.499  -5.311  -2.367  0.00  0.00    +0.054 A 
ATOM     13  O   UNL     1      -8.694  -6.098  -3.290  0.00  0.00    -0.453 OA
ATOM     14  C   UNL     1      -9.450  -7.271  -2.933  0.00  0.00    +0.466 C 
ATOM     15  O   UNL     1      -9.236  -7.397  -1.515  0.00  0.00    -0.453 OA
ENDBRANCH   6   7
ENDBRANCH   4   6
ENDBRANCH   1   2
BRANCH   1  16
ATOM     16  N   UNL     1      -2.489  -0.340   0.013  0.00  0.00    -0.300 N 
ATOM     17  C   UNL     1      -2.502   1.008   0.020  0.00  0.00    +0.246 C 
ATOM     18  O   UNL     1      -3.561   1.605   0.028  0.00  0.00    -0.270 OA
ATOM     19  H   UNL     1      -1.531  -0.880   0.006  0.00  0.00    +0.150 HD
BRANCH  17  20
ATOM     20  C   UNL     1      -1.231   1.759   0.017  0.00  0.00    +0.055 A 
ATOM     21  C   UNL     1      -0.013   1.076   0.008  0.00  0.00    +0.016 A 
ATOM     22  C   UNL     1       1.171   1.782   0.001  0.00  0.00    +0.021 A 
ATOM     23  C   UNL     1       1.155   3.168   0.008  0.00  0.00    +0.042 A 
ATOM     24  C   UNL     1      -0.049   3.852   0.022  0.00  0.00    +0.040 A 
ATOM     25  C   UNL     1      -1.241   3.156   0.030  0.00  0.00    +0.054 A 
ATOM     26 CL   UNL     1      -2.750   4.015   0.048  0.00  0.00    -0.083 Cl
ATOM     27 CL   UNL     1       2.650   4.050  -0.001  0.00  0.00    -0.083 Cl
ENDBRANCH  17  20
ENDBRANCH   1  16
BRANCH   1  28
ATOM     28  C   UNL     1      -4.246  -1.244   1.454  0.00  0.00    +0.054 C 
BRANCH  28  29
ATOM     29  C   UNL     1      -4.588   0.132   2.030  0.00  0.00    +0.168 C 
BRANCH  29  31
ATOM     30  C   UNL     1      -5.522   1.654   4.231  0.00  0.00    +0.194 C 
ATOM     31  S   UNL     1      -5.176  -0.056   3.736  0.00  0.00    -0.034 S 
ATOM     32  O   UNL     1      -6.402  -0.774   3.712  0.00  0.00    -0.175 OA
ATOM     33  O   UNL     1      -4.104  -0.546   4.530  0.00  0.00    -0.175 OA
ENDBRANCH  29  31
ENDBRANCH  28  29
ENDBRANCH   1  28
TORSDOF 8
