REMARK  Name = ZINC45546837
REMARK  5 active torsions:
REMARK  status: ('A' for Active; 'I' for Inactive)
REMARK    1  A    between atoms: C_1  and  C_2
REMARK    2  A    between atoms: C_3  and  C_21
REMARK    3  A    between atoms: C_8  and  C_10
REMARK    4  A    between atoms: C_10  and  C_11
REMARK    5  A    between atoms: C_14  and  C_16
REMARK                            x       y       z     vdW  Elec       q    Type
REMARK                         _______ _______ _______ _____ _____    ______ ____
ROOT
ATOM      1  C   UNL     1      -0.027   1.502  -0.082  0.00  0.00    +0.054 C 
ATOM      2  C   UNL     1      -0.002  -0.005  -0.040  0.00  0.00    +0.016 A 
ATOM      3  C   UNL     1      -1.034  -0.891   0.093  0.00  0.00    +0.083 A 
ATOM      4  N   UNL     1      -0.777  -2.191   0.105  0.00  0.00    -0.224 NA
ATOM      5  C   UNL     1       0.457  -2.646  -0.009  0.00  0.00    +0.165 A 
ATOM      6  S   UNL     1       1.385  -1.126  -0.158  0.00  0.00    -0.057 S 
ATOM      7  N   UNL     1       0.912  -3.959  -0.016  0.00  0.00    -0.264 N 
ATOM      8  C   UNL     1       2.229  -4.215  -0.145  0.00  0.00    +0.224 C 
ATOM      9  O   UNL     1       3.017  -3.300  -0.255  0.00  0.00    -0.275 OA
ATOM     10  H   UNL     1       0.282  -4.691   0.071  0.00  0.00    +0.157 HD
ENDROOT
BRANCH   3  11
ATOM     11  C   UNL     1      -2.428  -0.403   0.224  0.00  0.00    +0.001 A 
ATOM     12  C   UNL     1      -3.286  -0.978   1.160  0.00  0.00    +0.011 A 
ATOM     13  C   UNL     1      -4.582  -0.520   1.278  0.00  0.00    +0.016 A 
ATOM     14  C   UNL     1      -5.032   0.509   0.467  0.00  0.00    +0.018 A 
ATOM     15  C   UNL     1      -4.184   1.083  -0.464  0.00  0.00    +0.016 A 
ATOM     16  C   UNL     1      -2.884   0.636  -0.586  0.00  0.00    +0.011 A 
ATOM     17 BR   UNL     1      -6.809   1.131   0.633  0.00  0.00    -0.050 Br
ENDBRANCH   3  11
BRANCH   8  18
ATOM     18  C   UNL     1       2.722  -5.639  -0.153  0.00  0.00    +0.152 C 
BRANCH  18  19
ATOM     19  C   UNL     1       4.221  -5.650  -0.309  0.00  0.00    +0.058 A 
ATOM     20  C   UNL     1       4.994  -6.305   0.597  0.00  0.00    +0.071 A 
ATOM     21  S   UNL     1       6.624  -5.990  -0.069  0.00  0.00    -0.072 S 
ATOM     22  C   UNL     1       6.100  -5.023  -1.479  0.00  0.00    +0.144 A 
ATOM     23  N   UNL     1       4.781  -5.032  -1.322  0.00  0.00    -0.240 NA
BRANCH  22  24
ATOM     24  C   UNL     1       6.911  -4.392  -2.531  0.00  0.00    +0.160 A 
ATOM     25  C   UNL     1       8.270  -4.436  -2.630  0.00  0.00    +0.052 A 
ATOM     26  C   UNL     1       8.617  -3.703  -3.780  0.00  0.00    +0.042 A 
ATOM     27  C   UNL     1       7.468  -3.250  -4.322  0.00  0.00    +0.196 A 
ATOM     28  O   UNL     1       6.440  -3.673  -3.569  0.00  0.00    -0.461 OA
ENDBRANCH  22  24
ENDBRANCH  18  19
ENDBRANCH   8  18
TORSDOF 4
