REMARK  Name = ZINC39487866
REMARK  9 active torsions:
REMARK  status: ('A' for Active; 'I' for Inactive)
REMARK    1  A    between atoms: C_1  and  C_2
REMARK    2  A    between atoms: C_2  and  C_35
REMARK    3  A    between atoms: N_4  and  C_28
REMARK    4  A    between atoms: N_7  and  C_8
REMARK    5  A    between atoms: C_8  and  C_9
REMARK    6  A    between atoms: C_9  and  C_22
REMARK    7  A    between atoms: N_12  and  C_15
REMARK    8  A    between atoms: C_15  and  C_16
REMARK    9  A    between atoms: C_28  and  C_29
REMARK                            x       y       z     vdW  Elec       q    Type
REMARK                         _______ _______ _______ _____ _____    ______ ____
ROOT
ATOM      1  C   UNL     1      -0.272  -0.427   1.770  0.00  0.00    +0.117 C 
ENDROOT
BRANCH   1   8
ATOM      2  C   UNL     1      -2.319   1.929   1.262  0.00  0.00    +0.038 C 
ATOM      3  C   UNL     1      -0.973   2.078   1.974  0.00  0.00    +0.077 C 
ATOM      4  C   UNL     1      -1.110   2.995   3.205  0.00  0.00    +0.140 C 
ATOM      5  N   UNL     1      -0.743   2.126   4.333  0.00  0.00    -0.279 N 
ATOM      6  C   UNL     1      -0.439   0.907   3.870  0.00  0.00    +0.306 C 
ATOM      7  O   UNL     1      -0.100  -0.011   4.591  0.00  0.00    -0.252 OA
ATOM      8  N   UNL     1      -0.543   0.790   2.539  0.00  0.00    -0.274 N 
BRANCH   3   9
ATOM      9  C   UNL     1       0.069   2.613   1.025  0.00  0.00    -0.023 A 
ATOM     10  C   UNL     1       1.358   2.114   1.061  0.00  0.00    +0.006 A 
ATOM     11  C   UNL     1       2.313   2.604   0.191  0.00  0.00    +0.000 A 
ATOM     12  C   UNL     1       1.980   3.594  -0.715  0.00  0.00    +0.000 A 
ATOM     13  C   UNL     1       0.691   4.092  -0.752  0.00  0.00    +0.000 A 
ATOM     14  C   UNL     1      -0.265   3.598   0.116  0.00  0.00    +0.006 A 
ENDBRANCH   3   9
BRANCH   5  15
ATOM     15  C   UNL     1      -0.714   2.531   5.741  0.00  0.00    +0.144 C 
BRANCH  15  16
ATOM     16  C   UNL     1      -2.062   2.278   6.364  0.00  0.00    -0.030 A 
ATOM     17  C   UNL     1      -3.033   3.262   6.335  0.00  0.00    +0.005 A 
ATOM     18  C   UNL     1      -4.270   3.030   6.907  0.00  0.00    +0.000 A 
ATOM     19  C   UNL     1      -4.537   1.814   7.507  0.00  0.00    +0.000 A 
ATOM     20  C   UNL     1      -3.567   0.829   7.535  0.00  0.00    +0.000 A 
ATOM     21  C   UNL     1      -2.331   1.060   6.959  0.00  0.00    +0.005 A 
ENDBRANCH  15  16
ENDBRANCH   5  15
ENDBRANCH   1   8
BRANCH   1  22
ATOM     22  C   UNL     1      -1.427  -1.413   1.952  0.00  0.00    -0.014 C 
ATOM     23  C   UNL     1      -1.061  -2.755   1.310  0.00  0.00    -0.010 C 
ATOM     24  C   UNL     1      -0.868  -2.559  -0.195  0.00  0.00    -0.078 C 
ATOM     25  N   UNL     1      -2.112  -2.054  -0.789  0.00  0.00    +0.382 N 
ATOM     26  C   UNL     1      -2.431  -0.734  -0.231  0.00  0.00    -0.078 C 
ATOM     27  C   UNL     1      -2.684  -0.860   1.273  0.00  0.00    -0.010 C 
ATOM     28  H   UNL     1      -2.864  -2.694  -0.587  0.00  0.00    -0.081 HD
BRANCH  22  29
ATOM     29  C   UNL     1      -1.699  -1.614   3.444  0.00  0.00    -0.003 C 
ATOM     30  C   UNL     1      -0.519  -2.350   4.082  0.00  0.00    +0.004 C 
ATOM     31  C   UNL     1      -0.790  -2.552   5.574  0.00  0.00    +0.000 C 
ATOM     32  C   UNL     1      -2.065  -3.379   5.754  0.00  0.00    +0.000 C 
ATOM     33  C   UNL     1      -3.245  -2.642   5.116  0.00  0.00    +0.000 C 
ATOM     34  C   UNL     1      -2.974  -2.441   3.623  0.00  0.00    +0.004 C 
ENDBRANCH  22  29
BRANCH  25  35
ATOM     35  C   UNL     1      -1.946  -1.941  -2.245  0.00  0.00    -0.043 C 
BRANCH  35  36
ATOM     36  C   UNL     1      -3.267  -1.579  -2.874  0.00  0.00    -0.064 A 
ATOM     37  C   UNL     1      -4.173  -2.571  -3.199  0.00  0.00    +0.002 A 
ATOM     38  C   UNL     1      -5.384  -2.238  -3.776  0.00  0.00    +0.000 A 
ATOM     39  C   UNL     1      -5.690  -0.913  -4.027  0.00  0.00    +0.000 A 
ATOM     40  C   UNL     1      -4.784   0.079  -3.701  0.00  0.00    +0.000 A 
ATOM     41  C   UNL     1      -3.575  -0.254  -3.120  0.00  0.00    +0.002 A 
ENDBRANCH  35  36
ENDBRANCH  25  35
ENDBRANCH   1  22
TORSDOF 8
