REMARK  Name = ZINC20599242
REMARK  6 active torsions:
REMARK  status: ('A' for Active; 'I' for Inactive)
REMARK    1  A    between atoms: C_1  and  C_2
REMARK    2  A    between atoms: C_3  and  C_12
REMARK    3  A    between atoms: C_14  and  C_17
REMARK    4  A    between atoms: C_17  and  C_22
REMARK    5  A    between atoms: C_19  and  C_20
REMARK    6  A    between atoms: C_19  and  C_21
REMARK                            x       y       z     vdW  Elec       q    Type
REMARK                         _______ _______ _______ _____ _____    ______ ____
ROOT
ATOM      1  C   UNL     1       0.002  -0.004   0.002  0.00  0.00    +0.204 A 
ATOM      2  N   UNL     1      -0.016   1.348   0.009  0.00  0.00    -0.190 NA
ATOM      3  C   UNL     1       1.240   1.717  -0.001  0.00  0.00    +0.239 A 
ATOM      4  O   UNL     1       1.978   0.602  -0.014  0.00  0.00    -0.337 OA
ATOM      5  N   UNL     1       1.256  -0.373  -0.012  0.00  0.00    -0.056 NA
ENDROOT
BRANCH   1   8
ATOM      6  C   UNL     1      -2.666   1.120   0.045  0.00  0.00    +0.066 C 
ATOM      7  C   UNL     1      -2.469  -0.374   0.028  0.00  0.00    +0.049 A 
ATOM      8  C   UNL     1      -1.180  -0.901   0.008  0.00  0.00    +0.047 A 
ATOM      9  C   UNL     1      -1.018  -2.291  -0.001  0.00  0.00    -0.034 A 
ATOM     10  C   UNL     1      -2.144  -3.086   0.008  0.00  0.00    -0.043 A 
ATOM     11  C   UNL     1      -3.393  -2.484   0.021  0.00  0.00    +0.113 A 
ATOM     12  N   UNL     1      -3.517  -1.172   0.027  0.00  0.00    -0.259 NA
ATOM     13  C   UNL     1      -2.054  -4.588   0.009  0.00  0.00    -0.045 C 
ATOM     14  N   UNL     1      -0.719  -5.019  -0.420  0.00  0.00    +0.382 N 
ATOM     15  C   UNL     1       0.318  -4.348   0.379  0.00  0.00    -0.077 C 
ATOM     16  C   UNL     1       0.368  -2.874  -0.026  0.00  0.00    +0.017 C 
ATOM     17  H   UNL     1      -0.626  -6.107  -0.288  0.00  0.00    -0.085 HD
ATOM     18  H   UNL     1      -0.576  -4.765  -1.481  0.00  0.00    -0.085 HD
ENDBRANCH   1   8
BRANCH   3  19
ATOM     19  C   UNL     1       1.758   3.132   0.001  0.00  0.00    +0.086 C 
ATOM     20  C   UNL     1       2.477   3.620   1.260  0.00  0.00    +0.030 C 
ATOM     21  C   UNL     1       3.275   3.330  -0.012  0.00  0.00    -0.015 C 
ATOM     22  C   UNL     1       4.151   2.075  -0.027  0.00  0.00    +0.012 C 
ATOM     23  C   UNL     1       3.825   4.527  -0.790  0.00  0.00    +0.012 C 
BRANCH  19  24
ATOM     24  C   UNL     1       0.919   4.132  -0.752  0.00  0.00    +0.005 A 
ATOM     25  C   UNL     1      -0.428   4.179  -0.897  0.00  0.00    +0.012 A 
ATOM     26  C   UNL     1      -0.987   5.203  -1.639  0.00  0.00    +0.008 A 
ATOM     27  C   UNL     1      -0.171   6.123  -2.208  0.00  0.00    +0.045 A 
ATOM     28  S   UNL     1       1.441   5.557  -1.692  0.00  0.00    -0.101 S 
ENDBRANCH  19  24
ENDBRANCH   3  19
TORSDOF 3
