REMARK  Name = ZINC13561506
REMARK  21 active torsions:
REMARK  status: ('A' for Active; 'I' for Inactive)
REMARK    1  A    between atoms: C_1  and  C_2
REMARK    2  A    between atoms: C_2  and  C_3
REMARK    3  A    between atoms: C_3  and  C_4
REMARK    4  A    between atoms: C_3  and  C_5
REMARK    5  A    between atoms: C_3  and  N_6
REMARK    6  A    between atoms: C_7  and  C_9
REMARK    7  A    between atoms: C_9  and  C_11
REMARK    8  A    between atoms: C_9  and  N_21
REMARK    9  A    between atoms: C_15  and  O_19
REMARK   10  A    between atoms: C_16  and  O_17
REMARK   11  A    between atoms: O_17  and  C_18
REMARK   12  A    between atoms: O_19  and  C_20
REMARK   13  A    between atoms: N_21  and  C_35
REMARK   14  A    between atoms: C_22  and  C_24
REMARK   15  A    between atoms: C_24  and  C_25
REMARK   16  A    between atoms: C_25  and  C_26
REMARK   17  A    between atoms: C_31  and  C_34
REMARK   18  A    between atoms: C_35  and  C_36
REMARK   19  A    between atoms: C_35  and  C_37
REMARK   20  A    between atoms: C_35  and  C_38
REMARK   21  A    between atoms: C_38  and  C_39
REMARK                            x       y       z     vdW  Elec       q    Type
REMARK                         _______ _______ _______ _____ _____    ______ ____
ROOT
ATOM      1  C   UNL     1      -2.885   3.230  -0.270  0.00  0.00    +0.196 C 
ENDROOT
BRANCH   1   2
ATOM      2  C   UNL     1      -2.131   4.086   0.715  0.00  0.00    +0.027 A 
ATOM      3  C   UNL     1      -2.663   5.292   1.133  0.00  0.00    +0.010 A 
ATOM      4  C   UNL     1      -1.974   6.079   2.036  0.00  0.00    +0.004 A 
ATOM      5  C   UNL     1      -0.750   5.665   2.526  0.00  0.00    +0.049 A 
ATOM      6  C   UNL     1      -0.213   4.455   2.116  0.00  0.00    +0.162 A 
ATOM      7  C   UNL     1      -0.904   3.665   1.202  0.00  0.00    +0.167 A 
BRANCH   7   8
ATOM      8  O   UNL     1      -0.379   2.479   0.793  0.00  0.00    -0.491 OA
ATOM      9  C   UNL     1       0.457   2.505  -0.366  0.00  0.00    +0.277 C 
ENDBRANCH   7   8
BRANCH   6  10
ATOM     10  O   UNL     1       0.989   4.044   2.601  0.00  0.00    -0.491 OA
ATOM     11  C   UNL     1       1.641   4.906   3.535  0.00  0.00    +0.277 C 
ENDBRANCH   6  10
ENDBRANCH   1   2
BRANCH   1  13
ATOM     12  N   UNL     1      -2.886   1.264   1.231  0.00  0.00    -0.308 N 
ATOM     13  C   UNL     1      -3.591   2.121   0.467  0.00  0.00    +0.239 C 
ATOM     14  O   UNL     1      -4.794   2.000   0.371  0.00  0.00    -0.273 OA
ATOM     15  H   UNL     1      -1.924   1.360   1.308  0.00  0.00    +0.149 HD
BRANCH  12  16
ATOM     16  C   UNL     1      -3.573   0.185   1.947  0.00  0.00    +0.029 C 
ATOM     17  C   UNL     1      -4.597   0.785   2.912  0.00  0.00    +0.031 C 
ATOM     18  C   UNL     1      -4.289  -0.719   0.941  0.00  0.00    +0.031 C 
BRANCH  16  20
ATOM     19  C   UNL     1      -3.268  -1.763   3.481  0.00  0.00    +0.006 C 
ATOM     20  C   UNL     1      -2.550  -0.637   2.734  0.00  0.00    +0.022 C 
ENDBRANCH  16  20
ENDBRANCH  12  16
ENDBRANCH   1  13
BRANCH   1  21
ATOM     21  N   UNL     1      -3.870   4.052  -0.977  0.00  0.00    -0.280 N 
ATOM     22  C   UNL     1      -4.944   4.531  -0.319  0.00  0.00    +0.217 C 
ATOM     23  O   UNL     1      -5.122   4.240   0.845  0.00  0.00    -0.276 OA
BRANCH  21  24
ATOM     24  C   UNL     1      -3.687   4.353  -2.399  0.00  0.00    +0.033 C 
ATOM     25  C   UNL     1      -3.265   5.815  -2.560  0.00  0.00    +0.031 C 
ATOM     26  C   UNL     1      -2.602   3.442  -2.978  0.00  0.00    +0.031 C 
BRANCH  24  27
ATOM     27  C   UNL     1      -5.002   4.116  -3.144  0.00  0.00    +0.022 C 
ATOM     28  C   UNL     1      -5.524   2.714  -2.823  0.00  0.00    +0.006 C 
ENDBRANCH  24  27
ENDBRANCH  21  24
BRANCH  22  29
ATOM     29  C   UNL     1      -5.925   5.427  -1.030  0.00  0.00    +0.105 C 
BRANCH  29  30
ATOM     30  C   UNL     1      -6.632   6.321  -0.009  0.00  0.00    +0.105 C 
BRANCH  30  31
ATOM     31  C   UNL     1      -7.613   7.217  -0.720  0.00  0.00    +0.219 C 
ATOM     32  O   UNL     1      -7.734   7.149  -1.925  0.00  0.00    -0.275 OA
ATOM     33  N   UNL     1      -8.355   8.096  -0.017  0.00  0.00    -0.268 N 
ATOM     34  C   UNL     1      -9.263   8.926  -0.676  0.00  0.00    +0.168 A 
ATOM     35  C   UNL     1      -9.522   8.969  -2.071  0.00  0.00    +0.091 A 
ATOM     36  C   UNL     1     -10.470   9.925  -2.198  0.00  0.00    +0.136 A 
ATOM     37  O   UNL     1     -10.720  10.382  -0.963  0.00  0.00    -0.358 OA
ATOM     38  N   UNL     1     -10.050   9.816  -0.131  0.00  0.00    -0.063 NA
ATOM     39  C   UNL     1     -11.117  10.387  -3.478  0.00  0.00    +0.089 C 
ATOM     40  H   UNL     1      -8.258   8.150   0.946  0.00  0.00    +0.156 HD
ENDBRANCH  30  31
ENDBRANCH  29  30
ENDBRANCH  22  29
ENDBRANCH   1  21
TORSDOF 12
