REMARK  Name = ZINC63709773
REMARK  4 active torsions:
REMARK  status: ('A' for Active; 'I' for Inactive)
REMARK    1  A    between atoms: C_17  and  C_21
REMARK    2  A    between atoms: N_23  and  C_24
REMARK    3  A    between atoms: C_24  and  C_25
REMARK    4  A    between atoms: C_25  and  C_26
REMARK                            x       y       z     vdW  Elec       q    Type
REMARK                         _______ _______ _______ _____ _____    ______ ____
ROOT
ATOM      1  C   UNL     1       0.027   1.389  -0.091  0.00  0.00    +0.001 A 
ATOM      2  C   UNL     1       1.217   2.115  -0.094  0.00  0.00    +0.001 A 
ATOM      3  C   UNL     1       2.423   1.485  -0.097  0.00  0.00    +0.008 A 
ATOM      4  C   UNL     1       2.476   0.080  -0.099  0.00  0.00    -0.016 A 
ATOM      5  C   UNL     1       3.705  -0.598  -0.118  0.00  0.00    +0.032 A 
ATOM      6  C   UNL     1       3.735  -1.964  -0.115  0.00  0.00    +0.042 A 
ATOM      7  C   UNL     1       2.535  -2.710  -0.075  0.00  0.00    +0.059 A 
ATOM      8  C   UNL     1       1.309  -2.061  -0.070  0.00  0.00    +0.023 A 
ATOM      9  C   UNL     1       1.264  -0.660  -0.086  0.00  0.00    -0.017 A 
ATOM     10  C   UNL     1       0.037   0.028  -0.087  0.00  0.00    +0.008 A 
ATOM     11  C   UNL     1       2.571  -4.184  -0.023  0.00  0.00    +0.254 C 
ATOM     12  O   UNL     1       1.532  -4.815   0.003  0.00  0.00    -0.270 OA
ATOM     13  N   UNL     1       3.749  -4.832  -0.004  0.00  0.00    -0.251 N 
ATOM     14  C   UNL     1       3.803  -6.189   0.215  0.00  0.00    +0.080 C 
ATOM     15  C   UNL     1       4.856  -6.692   0.901  0.00  0.00    +0.016 C 
ATOM     16  C   UNL     1       5.880  -5.829   1.340  0.00  0.00    +0.013 C 
ATOM     17  C   UNL     1       5.967  -4.560   0.860  0.00  0.00    +0.053 C 
ATOM     18  C   UNL     1       4.995  -4.083  -0.185  0.00  0.00    +0.202 C 
ATOM     19  N   UNL     1       4.965  -2.619  -0.154  0.00  0.00    -0.321 N 
ATOM     20  H   UNL     1       5.791  -2.111  -0.161  0.00  0.00    +0.148 HD
ENDROOT
BRANCH  17  21
ATOM     21  C   UNL     1       6.968  -3.689   1.343  0.00  0.00    +0.243 C 
ATOM     22  O   UNL     1       7.977  -3.498   0.688  0.00  0.00    -0.270 OA
ATOM     23  N   UNL     1       6.807  -3.069   2.529  0.00  0.00    -0.311 N 
ATOM     24  H   UNL     1       6.040  -3.278   3.085  0.00  0.00    +0.149 HD
BRANCH  23  25
ATOM     25  C   UNL     1       7.791  -2.081   2.979  0.00  0.00    +0.109 C 
BRANCH  25  26
ATOM     26  C   UNL     1       7.375  -1.533   4.346  0.00  0.00    +0.052 C 
BRANCH  26  27
ATOM     27  C   UNL     1       8.387  -0.516   4.808  0.00  0.00    -0.040 C 
ATOM     28  C   UNL     1       8.318   0.826   4.657  0.00  0.00    -0.001 A 
ATOM     29  C   UNL     1       7.319   1.708   4.041  0.00  0.00    +0.010 A 
ATOM     30  C   UNL     1       7.532   3.043   4.043  0.00  0.00    +0.001 A 
ATOM     31  C   UNL     1       8.681   3.605   4.618  0.00  0.00    +0.002 A 
ATOM     32  C   UNL     1       9.643   2.861   5.203  0.00  0.00    +0.026 A 
ATOM     33  C   UNL     1       9.521   1.444   5.258  0.00  0.00    +0.043 A 
ATOM     34  N   UNL     1      10.304   0.520   5.760  0.00  0.00    -0.380 N 
ATOM     35  C   UNL     1       9.682  -0.790   5.540  0.00  0.00    +0.144 C 
ATOM     36  H   UNL     1      11.151   0.677   6.206  0.00  0.00    +0.160 HD
ENDBRANCH  26  27
ENDBRANCH  25  26
ENDBRANCH  23  25
ENDBRANCH  17  21
TORSDOF 4
