REMARK  Name = ZINC09562144
REMARK  9 active torsions:
REMARK  status: ('A' for Active; 'I' for Inactive)
REMARK    1  A    between atoms: C_1  and  C_2
REMARK    2  A    between atoms: C_2  and  O_3
REMARK    3  A    between atoms: O_3  and  C_4
REMARK    4  A    between atoms: C_4  and  C_6
REMARK    5  A    between atoms: C_10  and  N_11
REMARK    6  A    between atoms: C_12  and  C_14
REMARK    7  A    between atoms: C_14  and  N_15
REMARK    8  A    between atoms: C_23  and  C_25
REMARK    9  A    between atoms: C_30  and  C_34
REMARK                            x       y       z     vdW  Elec       q    Type
REMARK                         _______ _______ _______ _____ _____    ______ ____
ROOT
ATOM      1  N   UNL     1      -0.645   2.293  -4.920  0.00  0.00    -0.278 N 
ATOM      2  C   UNL     1      -1.557   2.787  -5.780  0.00  0.00    +0.236 C 
ATOM      3  O   UNL     1      -2.660   3.096  -5.382  0.00  0.00    -0.274 OA
ATOM      4  H   UNL     1       0.238   2.045  -5.238  0.00  0.00    +0.155 HD
ENDROOT
BRANCH   1   9
ATOM      5  C   UNL     1      -0.171   1.653  -2.551  0.00  0.00    +0.091 A 
ATOM      6  C   UNL     1      -0.755   1.593  -1.222  0.00  0.00    -0.021 A 
ATOM      7  C   UNL     1      -2.032   2.025  -1.135  0.00  0.00    -0.004 A 
ATOM      8  S   UNL     1      -2.461   2.506  -2.784  0.00  0.00    -0.077 S 
ATOM      9  C   UNL     1      -0.967   2.139  -3.580  0.00  0.00    +0.086 A 
ATOM     10  C   UNL     1      -2.885   2.079   0.095  0.00  0.00    +0.046 C 
ATOM     11  C   UNL     1      -2.223   1.219   1.181  0.00  0.00    -0.009 C 
ATOM     12  C   UNL     1      -0.734   1.582   1.262  0.00  0.00    +0.008 C 
ATOM     13  C   UNL     1      -0.013   1.086   0.008  0.00  0.00    +0.037 C 
ATOM     14  C   UNL     1      -2.890   1.493   2.530  0.00  0.00    +0.008 C 
BRANCH   5  15
ATOM     15  C   UNL     1       1.205   1.218  -2.797  0.00  0.00    +0.342 C 
ATOM     16  O   UNL     1       1.433   0.060  -3.093  0.00  0.00    -0.245 OA
BRANCH  15  17
ATOM     17  O   UNL     1       2.220   2.100  -2.693  0.00  0.00    -0.461 OA
BRANCH  17  19
ATOM     18  C   UNL     1       4.570   2.735  -2.786  0.00  0.00    +0.048 C 
ATOM     19  C   UNL     1       3.559   1.598  -2.950  0.00  0.00    +0.229 C 
ENDBRANCH  17  19
ENDBRANCH  15  17
ENDBRANCH   5  15
ENDBRANCH   1   9
BRANCH   2  20
ATOM     20  C   UNL     1      -1.207   2.954  -7.236  0.00  0.00    +0.214 C 
BRANCH  20  21
ATOM     21  N   UNL     1      -2.358   3.503  -7.956  0.00  0.00    -0.215 N 
ATOM     22  C   UNL     1      -3.316   2.753  -8.539  0.00  0.00    +0.247 C 
ATOM     23  O   UNL     1      -3.386   1.544  -8.566  0.00  0.00    -0.273 OA
ATOM     24  C   UNL     1      -4.285   3.740  -9.149  0.00  0.00    +0.115 C 
ATOM     25  C   UNL     1      -4.351   3.550 -10.660  0.00  0.00    +0.035 C 
ATOM     26  C   UNL     1      -5.309   4.582 -11.264  0.00  0.00    +0.003 C 
ATOM     27  C   UNL     1      -6.699   4.407 -10.649  0.00  0.00    +0.000 C 
ATOM     28  C   UNL     1      -6.621   4.620  -9.136  0.00  0.00    +0.006 C 
ATOM     29  C   UNL     1      -5.669   3.589  -8.525  0.00  0.00    +0.018 C 
ATOM     30  C   UNL     1      -5.574   3.815  -7.015  0.00  0.00    +0.010 C 
ATOM     31  N   UNL     1      -3.713   5.052  -8.820  0.00  0.00    -0.285 N 
ATOM     32  C   UNL     1      -2.588   4.812  -8.121  0.00  0.00    +0.310 C 
ATOM     33  O   UNL     1      -1.861   5.685  -7.689  0.00  0.00    -0.252 OA
ATOM     34  H   UNL     1      -4.075   5.920  -9.059  0.00  0.00    +0.151 HD
ENDBRANCH  20  21
ENDBRANCH   2  20
TORSDOF 6
