REMARK  Name = ZINC14472210
REMARK  5 active torsions:
REMARK  status: ('A' for Active; 'I' for Inactive)
REMARK    1  A    between atoms: C_4  and  C_7
REMARK    2  A    between atoms: C_7  and  O_8
REMARK    3  A    between atoms: O_8  and  C_9
REMARK    4  A    between atoms: C_16  and  C_25
REMARK    5  A    between atoms: C_29  and  N_31
REMARK                            x       y       z     vdW  Elec       q    Type
REMARK                         _______ _______ _______ _____ _____    ______ ____
ROOT
ATOM      1  C   UNL     1      -0.148   1.182   2.381  0.00  0.00    +0.142 A 
ATOM      2  C   UNL     1       0.991   0.399   2.417  0.00  0.00    +0.047 A 
ATOM      3  C   UNL     1       1.531   0.030   3.635  0.00  0.00    +0.004 A 
ATOM      4  C   UNL     1       0.934   0.443   4.809  0.00  0.00    +0.006 A 
ATOM      5  C   UNL     1      -0.211   1.230   4.785  0.00  0.00    -0.016 A 
ATOM      6  C   UNL     1      -0.751   1.605   3.569  0.00  0.00    +0.074 A 
ATOM      7  N   UNL     1      -1.901   2.393   3.477  0.00  0.00    -0.334 N 
ATOM      8  C   UNL     1      -2.086   3.242   4.654  0.00  0.00    +0.105 C 
ATOM      9  C   UNL     1      -2.156   2.366   5.907  0.00  0.00    +0.029 C 
ATOM     10  C   UNL     1      -0.805   1.647   6.098  0.00  0.00    +0.049 C 
ATOM     11  C   UNL     1       0.071   2.699   6.765  0.00  0.00    -0.023 C 
ATOM     12  C   UNL     1      -0.669   3.613   7.340  0.00  0.00    -0.030 C 
ATOM     13  C   UNL     1      -2.141   3.307   7.145  0.00  0.00    +0.033 C 
ATOM     14  H   UNL     1      -2.718   1.824   3.309  0.00  0.00    +0.147 HD
ENDROOT
BRANCH   8  15
ATOM     15  C   UNL     1      -3.368   4.023   4.514  0.00  0.00    -0.025 A 
ATOM     16  C   UNL     1      -4.492   3.417   3.987  0.00  0.00    +0.005 A 
ATOM     17  C   UNL     1      -5.668   4.133   3.859  0.00  0.00    +0.003 A 
ATOM     18  C   UNL     1      -5.719   5.455   4.259  0.00  0.00    +0.033 A 
ATOM     19  C   UNL     1      -4.594   6.061   4.787  0.00  0.00    +0.127 A 
ATOM     20  C   UNL     1      -3.420   5.343   4.919  0.00  0.00    +0.038 A 
BRANCH  19  21
ATOM     21  N   UNL     1      -4.649   7.477   5.216  0.00  0.00    +0.056 N 
ATOM     22  O   UNL     1      -5.684   8.107   5.104  0.00  0.00    -0.126 OA
ATOM     23  O   UNL     1      -3.658   8.011   5.682  0.00  0.00    -0.126 OA
ENDBRANCH  19  21
ENDBRANCH   8  15
BRANCH   1  24
ATOM     24  O   UNL     1      -0.682   1.547   1.184  0.00  0.00    -0.486 OA
BRANCH  24  25
ATOM     25  C   UNL     1      -0.013   1.086   0.008  0.00  0.00    +0.264 C 
BRANCH  25  29
ATOM     26  C   UNL     1      -2.079   2.501  -3.453  0.00  0.00    +0.000 A 
ATOM     27  C   UNL     1      -1.066   3.259  -2.894  0.00  0.00    +0.000 A 
ATOM     28  C   UNL     1      -0.398   2.801  -1.774  0.00  0.00    +0.007 A 
ATOM     29  C   UNL     1      -0.742   1.585  -1.213  0.00  0.00    -0.010 A 
ATOM     30  C   UNL     1      -1.750   0.825  -1.775  0.00  0.00    +0.007 A 
ATOM     31  C   UNL     1      -2.422   1.285  -2.892  0.00  0.00    +0.000 A 
ENDBRANCH  25  29
ENDBRANCH  24  25
ENDBRANCH   1  24
TORSDOF 5
