REMARK  Name = ZINC36591350
REMARK  14 active torsions:
REMARK  status: ('A' for Active; 'I' for Inactive)
REMARK    1  A    between atoms: C_1  and  C_2
REMARK    2  A    between atoms: C_5  and  S_8
REMARK    3  A    between atoms: S_8  and  C_11
REMARK    4  A    between atoms: C_11  and  N_12
REMARK    5  A    between atoms: C_13  and  C_15
REMARK    6  A    between atoms: C_15  and  C_17
REMARK    7  A    between atoms: C_15  and  N_25
REMARK    8  A    between atoms: C_20  and  C_24
REMARK    9  A    between atoms: C_22  and  C_23
REMARK   10  A    between atoms: N_25  and  C_35
REMARK   11  A    between atoms: C_26  and  C_28
REMARK   12  A    between atoms: C_35  and  C_36
REMARK   13  A    between atoms: C_35  and  C_37
REMARK   14  A    between atoms: C_35  and  C_38
REMARK                            x       y       z     vdW  Elec       q    Type
REMARK                         _______ _______ _______ _____ _____    ______ ____
ROOT
ATOM      1  C   UNL     1       3.517  -4.396   4.207  0.00  0.00    +0.193 C 
ENDROOT
BRANCH   1   2
ATOM      2  C   UNL     1       2.172  -3.721   4.277  0.00  0.00    -0.015 A 
ATOM      3  C   UNL     1       1.380  -3.638   3.147  0.00  0.00    +0.006 A 
ATOM      4  C   UNL     1       0.146  -3.019   3.212  0.00  0.00    +0.004 A 
ATOM      5  C   UNL     1      -0.297  -2.482   4.407  0.00  0.00    -0.050 A 
ATOM      6  C   UNL     1       0.494  -2.566   5.537  0.00  0.00    +0.007 A 
ATOM      7  C   UNL     1       1.727  -3.190   5.473  0.00  0.00    -0.045 A 
ATOM      8  C   UNL     1       2.587  -3.286   6.707  0.00  0.00    +0.044 C 
ATOM      9  C   UNL     1      -1.642  -1.806   4.477  0.00  0.00    +0.044 C 
ENDBRANCH   1   2
BRANCH   1  11
ATOM     10  N   UNL     1       4.377  -3.195   2.223  0.00  0.00    -0.294 N 
ATOM     11  C   UNL     1       4.021  -4.366   2.787  0.00  0.00    +0.239 C 
ATOM     12  O   UNL     1       4.105  -5.395   2.151  0.00  0.00    -0.273 OA
ATOM     13  H   UNL     1       4.245  -2.364   2.706  0.00  0.00    +0.150 HD
BRANCH  10  14
ATOM     14  C   UNL     1       4.963  -3.176   0.881  0.00  0.00    +0.278 C 
BRANCH  14  15
ATOM     15  S   UNL     1       3.660  -2.873  -0.344  0.00  0.00    +0.013 S 
ATOM     16  O   UNL     1       2.544  -3.715  -0.090  0.00  0.00    -0.168 OA
ATOM     17  O   UNL     1       4.223  -2.790  -1.647  0.00  0.00    -0.168 OA
BRANCH  15  22
ATOM     18  C   UNL     1       1.684   2.704   0.838  0.00  0.00    +0.044 C 
ATOM     19  C   UNL     1       2.178   1.311   0.543  0.00  0.00    -0.050 A 
ATOM     20  C   UNL     1       3.219   1.121  -0.346  0.00  0.00    +0.005 A 
ATOM     21  C   UNL     1       3.672  -0.157  -0.617  0.00  0.00    +0.027 A 
ATOM     22  C   UNL     1       3.084  -1.244   0.002  0.00  0.00    +0.090 A 
ATOM     23  C   UNL     1       2.044  -1.054   0.892  0.00  0.00    +0.027 A 
ATOM     24  C   UNL     1       1.594   0.224   1.166  0.00  0.00    +0.005 A 
ENDBRANCH  15  22
ENDBRANCH  14  15
ENDBRANCH  10  14
ENDBRANCH   1  11
BRANCH   1  25
ATOM     25  N   UNL     1       3.389  -5.787   4.650  0.00  0.00    -0.279 N 
ATOM     26  C   UNL     1       2.462  -6.590   4.092  0.00  0.00    +0.237 C 
ATOM     27  O   UNL     1       1.755  -6.170   3.200  0.00  0.00    -0.274 OA
BRANCH  26  28
ATOM     28  C   UNL     1       2.304  -8.008   4.575  0.00  0.00    +0.159 C 
ATOM     29  C   UNL     1       2.923  -8.992   3.557  0.00  0.00    +0.041 C 
ATOM     30  C   UNL     1       1.697  -9.361   2.690  0.00  0.00    +0.098 C 
ATOM     31  C   UNL     1       0.513  -9.119   3.600  0.00  0.00    +0.214 C 
ATOM     32  O   UNL     1      -0.607  -9.545   3.411  0.00  0.00    -0.276 OA
ATOM     33  N   UNL     1       0.882  -8.364   4.651  0.00  0.00    -0.304 N 
ATOM     34  H   UNL     1       0.287  -8.090   5.367  0.00  0.00    +0.149 HD
ENDBRANCH  26  28
BRANCH  25  35
ATOM     35  C   UNL     1       4.270  -6.304   5.701  0.00  0.00    +0.030 C 
ATOM     36  C   UNL     1       5.364  -5.278   6.001  0.00  0.00    +0.031 C 
ATOM     37  C   UNL     1       3.453  -6.565   6.968  0.00  0.00    +0.031 C 
ATOM     38  C   UNL     1       4.912  -7.611   5.230  0.00  0.00    +0.031 C 
ENDBRANCH  25  35
ENDBRANCH   1  25
TORSDOF 8
