REMARK  Name = ZINC16464449
REMARK  11 active torsions:
REMARK  status: ('A' for Active; 'I' for Inactive)
REMARK    1  A    between atoms: C_1  and  C_2
REMARK    2  A    between atoms: C_2  and  C_4
REMARK    3  A    between atoms: C_2  and  N_7
REMARK    4  A    between atoms: C_4  and  C_5
REMARK    5  A    between atoms: C_4  and  C_6
REMARK    6  A    between atoms: C_8  and  C_10
REMARK    7  A    between atoms: C_13  and  C_15
REMARK    8  A    between atoms: C_15  and  S_16
REMARK    9  A    between atoms: S_16  and  C_17
REMARK   10  A    between atoms: C_20  and  C_29
REMARK   11  A    between atoms: N_21  and  C_22
REMARK                            x       y       z     vdW  Elec       q    Type
REMARK                         _______ _______ _______ _____ _____    ______ ____
ROOT
ATOM      1  C   UNL     1       1.430  -4.450   7.445  0.00  0.00    +0.197 A 
ATOM      2  N   UNL     1       1.288  -3.591   8.429  0.00  0.00    -0.122 NA
ATOM      3  N   UNL     1       0.855  -4.188   9.481  0.00  0.00    -0.125 NA
ATOM      4  C   UNL     1       0.692  -5.470   9.236  0.00  0.00    +0.205 A 
ATOM      5  N   UNL     1       1.051  -5.677   7.920  0.00  0.00    -0.268 N 
ENDROOT
BRANCH   5   6
ATOM      6  C   UNL     1       1.033  -6.890   7.217  0.00  0.00    +0.051 A 
ATOM      7  C   UNL     1      -0.173  -7.530   6.965  0.00  0.00    +0.028 A 
ATOM      8  C   UNL     1      -0.187  -8.725   6.272  0.00  0.00    +0.022 A 
ATOM      9  C   UNL     1       0.998  -9.283   5.829  0.00  0.00    +0.041 A 
ATOM     10  C   UNL     1       2.202  -8.647   6.079  0.00  0.00    +0.022 A 
ATOM     11  C   UNL     1       2.221  -7.449   6.766  0.00  0.00    +0.028 A 
ATOM     12 CL   UNL     1       0.977 -10.785   4.959  0.00  0.00    -0.084 Cl
ENDBRANCH   5   6
BRANCH   4  13
ATOM     13  C   UNL     1       0.214  -6.488  10.183  0.00  0.00    +0.172 A 
ATOM     14  C   UNL     1      -0.413  -6.247  11.369  0.00  0.00    +0.053 A 
ATOM     15  C   UNL     1      -0.691  -7.502  11.943  0.00  0.00    +0.042 A 
ATOM     16  C   UNL     1      -0.228  -8.438  11.092  0.00  0.00    +0.196 A 
ATOM     17  O   UNL     1       0.313  -7.823  10.027  0.00  0.00    -0.460 OA
ENDBRANCH   4  13
BRANCH   1  18
ATOM     18  S   UNL     1       1.994  -4.089   5.816  0.00  0.00    -0.079 S 
BRANCH  18  19
ATOM     19  C   UNL     1       2.325  -2.305   5.851  0.00  0.00    +0.140 C 
BRANCH  19  23
ATOM     20  C   UNL     1       2.766  -1.088   2.367  0.00  0.00    +0.133 A 
ATOM     21  C   UNL     1       4.129  -1.210   2.397  0.00  0.00    +0.080 A 
ATOM     22  S   UNL     1       4.405  -1.792   3.949  0.00  0.00    -0.079 S 
ATOM     23  C   UNL     1       2.821  -1.860   4.500  0.00  0.00    +0.089 A 
ATOM     24  N   UNL     1       2.120  -1.431   3.485  0.00  0.00    -0.239 NA
BRANCH  20  26
ATOM     25  N   UNL     1       0.711  -0.489   1.189  0.00  0.00    -0.307 N 
ATOM     26  C   UNL     1       2.054  -0.600   1.174  0.00  0.00    +0.263 C 
ATOM     27  O   UNL     1       2.678  -0.296   0.175  0.00  0.00    -0.269 OA
ATOM     28  H   UNL     1       0.213  -0.731   1.986  0.00  0.00    +0.149 HD
BRANCH  25  30
ATOM     29  C   UNL     1      -0.019   1.526   0.010  0.00  0.00    +0.028 C 
ATOM     30  C   UNL     1       0.002  -0.004   0.002  0.00  0.00    +0.073 C 
BRANCH  30  31
ATOM     31  C   UNL     1      -1.433  -0.534   0.013  0.00  0.00    +0.003 C 
ATOM     32  C   UNL     1      -2.187   0.060   1.205  0.00  0.00    +0.009 C 
ATOM     33  C   UNL     1      -2.135  -0.131  -1.286  0.00  0.00    +0.009 C 
ENDBRANCH  30  31
ENDBRANCH  25  30
ENDBRANCH  20  26
ENDBRANCH  19  23
ENDBRANCH  18  19
ENDBRANCH   1  18
TORSDOF 8
