REMARK  Name = ZINC14460105
REMARK  8 active torsions:
REMARK  status: ('A' for Active; 'I' for Inactive)
REMARK    1  A    between atoms: C_1  and  C_2
REMARK    2  A    between atoms: C_2  and  C_3
REMARK    3  A    between atoms: C_3  and  N_4
REMARK    4  A    between atoms: C_5  and  C_7
REMARK    5  A    between atoms: C_20  and  C_23
REMARK    6  A    between atoms: C_27  and  O_30
REMARK    7  A    between atoms: C_28  and  O_29
REMARK    8  A    between atoms: O_30  and  C_31
REMARK                            x       y       z     vdW  Elec       q    Type
REMARK                         _______ _______ _______ _____ _____    ______ ____
ROOT
ATOM      1  C   UNL     1      -5.758   7.922   0.651  0.00  0.00    +0.037 A 
ATOM      2  C   UNL     1      -4.881   8.203  -0.401  0.00  0.00    +0.015 A 
ATOM      3  C   UNL     1      -3.830   7.352  -0.652  0.00  0.00    +0.024 A 
ATOM      4  C   UNL     1      -3.640   6.220   0.136  0.00  0.00    +0.031 A 
ATOM      5  C   UNL     1      -4.506   5.931   1.184  0.00  0.00    -0.019 A 
ATOM      6  C   UNL     1      -5.564   6.786   1.437  0.00  0.00    +0.019 A 
ATOM      7  C   UNL     1      -4.339   4.724   2.051  0.00  0.00    +0.049 C 
ATOM      8  C   UNL     1      -5.357   3.660   1.714  0.00  0.00    -0.023 C 
ATOM      9  C   UNL     1      -4.823   2.468   1.826  0.00  0.00    -0.030 C 
ATOM     10  C   UNL     1      -3.374   2.575   2.262  0.00  0.00    +0.033 C 
ATOM     11  C   UNL     1      -2.980   4.025   1.853  0.00  0.00    +0.029 C 
ATOM     12  C   UNL     1      -2.620   3.997   0.365  0.00  0.00    +0.109 C 
ATOM     13  N   UNL     1      -2.568   5.373  -0.138  0.00  0.00    -0.336 N 
ATOM     14  H   UNL     1      -1.806   5.687  -0.649  0.00  0.00    +0.147 HD
ENDROOT
BRANCH  12  15
ATOM     15  C   UNL     1      -1.274   3.342   0.184  0.00  0.00    +0.018 A 
ATOM     16  C   UNL     1      -1.192   2.061  -0.330  0.00  0.00    +0.009 A 
ATOM     17  C   UNL     1       0.041   1.458  -0.496  0.00  0.00    +0.004 A 
ATOM     18  C   UNL     1       1.197   2.134  -0.151  0.00  0.00    +0.049 A 
ATOM     19  C   UNL     1       1.121   3.417   0.364  0.00  0.00    +0.162 A 
ATOM     20  C   UNL     1      -0.120   4.022   0.538  0.00  0.00    +0.163 A 
BRANCH  20  21
ATOM     21  O   UNL     1      -0.200   5.280   1.048  0.00  0.00    -0.503 OA
ATOM     22  H   UNL     1      -0.119   5.980   0.385  0.00  0.00    +0.292 HD
ENDBRANCH  20  21
BRANCH  19  23
ATOM     23  O   UNL     1       2.257   4.083   0.704  0.00  0.00    -0.491 OA
ATOM     24  C   UNL     1       3.495   3.398   0.504  0.00  0.00    +0.277 C 
ENDBRANCH  19  23
ENDBRANCH  12  15
BRANCH   1  26
ATOM     25  N   UNL     1      -7.078   9.924   0.170  0.00  0.00    -0.311 N 
ATOM     26  C   UNL     1      -6.890   8.827   0.930  0.00  0.00    +0.244 C 
ATOM     27  O   UNL     1      -7.652   8.583   1.845  0.00  0.00    -0.270 OA
ATOM     28  H   UNL     1      -6.469  10.119  -0.560  0.00  0.00    +0.149 HD
BRANCH  25  29
ATOM     29  C   UNL     1      -8.201  10.823   0.447  0.00  0.00    +0.104 C 
BRANCH  29  31
ATOM     30  C   UNL     1      -9.359  12.919  -0.265  0.00  0.00    +0.005 C 
ATOM     31  C   UNL     1      -8.186  11.981  -0.553  0.00  0.00    +0.015 C 
ENDBRANCH  29  31
ENDBRANCH  25  29
ENDBRANCH   1  26
TORSDOF 6
