REMARK  Name = ZINC08582649
REMARK  11 active torsions:
REMARK  status: ('A' for Active; 'I' for Inactive)
REMARK    1  A    between atoms: C_1  and  C_2
REMARK    2  A    between atoms: C_9  and  C_13
REMARK    3  A    between atoms: C_10  and  O_12
REMARK    4  A    between atoms: C_13  and  N_64
REMARK    5  A    between atoms: C_14  and  C_15
REMARK    6  A    between atoms: C_14  and  N_64
REMARK    7  A    between atoms: C_15  and  C_16
REMARK    8  A    between atoms: C_22  and  C_23
REMARK    9  A    between atoms: C_22  and  N_64
REMARK   10  A    between atoms: N_27  and  C_28
REMARK   11  A    between atoms: C_28  and  C_29
REMARK                            x       y       z     vdW  Elec       q    Type
REMARK                         _______ _______ _______ _____ _____    ______ ____
ROOT
ATOM      1  N   UNL     1      -2.592   5.048   1.429  0.00  0.00    +0.387 N 
ATOM      2  H   UNL     1      -1.887   5.604   1.927  0.00  0.00    -0.081 HD
ENDROOT
BRANCH   1   3
ATOM      3  C   UNL     1      -2.104   4.768   0.062  0.00  0.00    -0.037 C 
BRANCH   3  12
ATOM      4  C   UNL     1       2.639  -0.923  -0.341  0.00  0.00    +0.044 C 
ATOM      5  C   UNL     1       2.345   0.536  -0.104  0.00  0.00    -0.050 A 
ATOM      6  C   UNL     1       3.388   1.404   0.212  0.00  0.00    +0.005 A 
ATOM      7  C   UNL     1       3.157   2.727   0.433  0.00  0.00    +0.029 A 
ATOM      8  C   UNL     1       1.849   3.232   0.340  0.00  0.00    +0.075 A 
ATOM      9  C   UNL     1       0.790   2.348   0.018  0.00  0.00    +0.001 A 
ATOM     10  C   UNL     1       1.065   0.989  -0.203  0.00  0.00    +0.013 A 
ATOM     11  C   UNL     1      -0.521   2.855  -0.081  0.00  0.00    +0.017 A 
ATOM     12  C   UNL     1      -0.718   4.184   0.151  0.00  0.00    -0.002 A 
ATOM     13  C   UNL     1       0.371   5.006   0.465  0.00  0.00    +0.214 A 
ATOM     14  N   UNL     1       1.593   4.528   0.551  0.00  0.00    -0.213 NA
BRANCH  13  15
ATOM     15  O   UNL     1       0.160   6.327   0.687  0.00  0.00    -0.492 OA
ATOM     16  H   UNL     1       0.223   6.874  -0.107  0.00  0.00    +0.294 HD
ENDBRANCH  13  15
ENDBRANCH   3  12
ENDBRANCH   1   3
BRANCH   1  17
ATOM     17  C   UNL     1      -2.807   3.781   2.159  0.00  0.00    -0.073 C 
BRANCH  17  18
ATOM     18  C   UNL     1      -3.861   2.927   1.452  0.00  0.00    +0.016 C 
BRANCH  18  19
ATOM     19  C   UNL     1      -4.037   1.628   2.196  0.00  0.00    -0.049 A 
ATOM     20  C   UNL     1      -3.266   0.531   1.861  0.00  0.00    +0.003 A 
ATOM     21  C   UNL     1      -3.424  -0.659   2.546  0.00  0.00    +0.000 A 
ATOM     22  C   UNL     1      -4.359  -0.755   3.560  0.00  0.00    +0.000 A 
ATOM     23  C   UNL     1      -5.134   0.342   3.891  0.00  0.00    +0.000 A 
ATOM     24  C   UNL     1      -4.973   1.533   3.209  0.00  0.00    +0.003 A 
ENDBRANCH  18  19
ENDBRANCH  17  18
ENDBRANCH   1  17
BRANCH   1  25
ATOM     25  C   UNL     1      -3.853   5.816   1.368  0.00  0.00    +0.001 C 
BRANCH  25  26
ATOM     26  C   UNL     1      -4.138   6.388   2.733  0.00  0.00    +0.135 A 
ATOM     27  N   UNL     1      -4.863   5.838   3.676  0.00  0.00    -0.115 NA
ATOM     28  N   UNL     1      -4.866   6.633   4.690  0.00  0.00    -0.023 NA
ATOM     29  N   UNL     1      -4.169   7.680   4.415  0.00  0.00    -0.044 NA
ATOM     30  N   UNL     1      -3.704   7.567   3.217  0.00  0.00    -0.229 N 
BRANCH  30  31
ATOM     31  C   UNL     1      -2.861   8.538   2.515  0.00  0.00    +0.178 C 
BRANCH  31  32
ATOM     32  C   UNL     1      -3.747   9.525   1.752  0.00  0.00    +0.140 C 
ATOM     33  C   UNL     1      -2.868  10.481   0.918  0.00  0.00    +0.035 C 
ATOM     34  C   UNL     1      -3.607  11.837   1.084  0.00  0.00    +0.031 C 
ATOM     35  C   UNL     1      -4.140  11.706   2.533  0.00  0.00    +0.160 C 
ATOM     36  O   UNL     1      -4.496  10.322   2.677  0.00  0.00    -0.375 OA
ENDBRANCH  31  32
ENDBRANCH  30  31
ENDBRANCH  25  26
ENDBRANCH   1  25
TORSDOF 10
