REMARK  Name = ZINC28393857
REMARK  7 active torsions:
REMARK  status: ('A' for Active; 'I' for Inactive)
REMARK    1  A    between atoms: C_1  and  C_2
REMARK    2  A    between atoms: C_7  and  C_10
REMARK    3  A    between atoms: N_13  and  C_14
REMARK    4  A    between atoms: C_14  and  C_15
REMARK    5  A    between atoms: C_15  and  C_16
REMARK    6  A    between atoms: C_15  and  C_17
REMARK    7  A    between atoms: C_15  and  C_18
REMARK                            x       y       z     vdW  Elec       q    Type
REMARK                         _______ _______ _______ _____ _____    ______ ____
ROOT
ATOM      1  C   UNL     1       1.423   1.613  -0.004  0.00  0.00    +0.039 C 
ATOM      2  C   UNL     1      -0.012   1.083   0.007  0.00  0.00    +0.133 C 
ATOM      3  C   UNL     1      -0.756   1.593  -1.232  0.00  0.00    +0.140 C 
ATOM      4  N   UNL     1      -2.175   1.227  -1.105  0.00  0.00    -0.281 N 
ATOM      5  C   UNL     1      -2.867   1.565   0.149  0.00  0.00    +0.140 C 
ATOM      6  C   UNL     1      -2.020   1.056   1.321  0.00  0.00    +0.133 C 
ATOM      7  O   UNL     1      -0.682   1.543   1.183  0.00  0.00    -0.371 OA
ATOM      8  C   UNL     1      -2.614   1.560   2.638  0.00  0.00    +0.039 C 
ATOM      9  C   UNL     1      -2.822   0.600  -2.107  0.00  0.00    +0.302 C 
ATOM     10  O   UNL     1      -2.261   0.410  -3.168  0.00  0.00    -0.253 OA
ATOM     11  N   UNL     1      -4.093   0.184  -1.932  0.00  0.00    -0.298 N 
ATOM     12  H   UNL     1      -4.629   0.429  -1.004  0.00  0.00    +0.150 HD
ENDROOT
BRANCH  11  13
ATOM     13  C   UNL     1      -4.758  -0.595  -2.979  0.00  0.00    +0.116 C 
BRANCH  13  14
ATOM     14  C   UNL     1      -6.181  -0.937  -2.533  0.00  0.00    +0.006 C 
ATOM     15  C   UNL     1      -6.128  -1.758  -1.243  0.00  0.00    +0.017 C 
ATOM     16  C   UNL     1      -6.963   0.354  -2.283  0.00  0.00    +0.017 C 
BRANCH  14  17
ATOM     17  C   UNL     1      -6.866  -1.738  -3.610  0.00  0.00    -0.040 A 
ATOM     18  C   UNL     1      -6.194  -2.042  -4.779  0.00  0.00    +0.004 A 
ATOM     19  C   UNL     1      -6.821  -2.781  -5.765  0.00  0.00    +0.000 A 
ATOM     20  C   UNL     1      -8.124  -3.207  -5.586  0.00  0.00    +0.000 A 
ATOM     21  C   UNL     1      -8.798  -2.900  -4.419  0.00  0.00    +0.000 A 
ATOM     22  C   UNL     1      -8.169  -2.165  -3.431  0.00  0.00    +0.004 A 
ENDBRANCH  14  17
ENDBRANCH  13  14
ENDBRANCH  11  13
TORSDOF 3
