REMARK  Name = ZINC23140910
REMARK  5 active torsions:
REMARK  status: ('A' for Active; 'I' for Inactive)
REMARK    1  A    between atoms: C_1  and  C_2
REMARK    2  A    between atoms: C_5  and  S_8
REMARK    3  A    between atoms: S_8  and  N_11
REMARK    4  A    between atoms: C_14  and  C_17
REMARK    5  A    between atoms: C_20  and  C_22
REMARK                            x       y       z     vdW  Elec       q    Type
REMARK                         _______ _______ _______ _____ _____    ______ ____
ROOT
ATOM      1  N   UNL     1      -7.039   5.796   0.073  0.00  0.00    -0.177 NA
ATOM      2  C   UNL     1      -6.734   5.102   1.332  0.00  0.00    +0.110 C 
ATOM      3  C   UNL     1      -5.268   4.657   1.306  0.00  0.00    +0.027 C 
ATOM      4  C   UNL     1      -5.015   3.820   0.050  0.00  0.00    +0.049 C 
ATOM      5  C   UNL     1      -5.283   4.671  -1.193  0.00  0.00    +0.027 C 
ATOM      6  C   UNL     1      -6.749   5.116  -1.197  0.00  0.00    +0.110 C 
ENDROOT
BRANCH   4   7
ATOM      7  C   UNL     1      -3.583   3.353   0.039  0.00  0.00    +0.106 A 
ATOM      8  N   UNL     1      -2.471   4.059   0.037  0.00  0.00    -0.146 NA
ATOM      9  N   UNL     1      -1.330   3.518   0.033  0.00  0.00    -0.138 NA
ATOM     10  C   UNL     1      -1.219   2.191   0.020  0.00  0.00    +0.167 A 
ATOM     11  S   UNL     1      -2.948   1.733   0.027  0.00  0.00    -0.047 S 
BRANCH  10  12
ATOM     12  C   UNL     1      -0.016   1.343   0.009  0.00  0.00    +0.161 A 
ATOM     13  C   UNL     1       1.273   1.784  -0.001  0.00  0.00    +0.052 A 
ATOM     14  C   UNL     1       2.092   0.639  -0.015  0.00  0.00    +0.042 A 
ATOM     15  C   UNL     1       1.274  -0.433  -0.012  0.00  0.00    +0.196 A 
ATOM     16  O   UNL     1       0.002  -0.004   0.002  0.00  0.00    -0.461 OA
ENDBRANCH  10  12
ENDBRANCH   4   7
BRANCH   1  17
ATOM     17  S   UNL     1      -7.698   7.315   0.085  0.00  0.00    +0.061 S 
ATOM     18  O   UNL     1      -8.373   7.475  -1.155  0.00  0.00    -0.153 OA
ATOM     19  O   UNL     1      -8.357   7.462   1.335  0.00  0.00    -0.153 OA
BRANCH  17  24
ATOM     20  C   UNL     1      -3.119  11.245   0.078  0.00  0.00    +0.044 C 
ATOM     21  C   UNL     1      -4.263  10.263   0.080  0.00  0.00    -0.050 A 
ATOM     22  C   UNL     1      -4.795   9.819  -1.117  0.00  0.00    +0.005 A 
ATOM     23  C   UNL     1      -5.844   8.919  -1.115  0.00  0.00    +0.029 A 
ATOM     24  C   UNL     1      -6.361   8.462   0.083  0.00  0.00    +0.105 A 
ATOM     25  C   UNL     1      -5.833   8.911   1.279  0.00  0.00    +0.029 A 
ATOM     26  C   UNL     1      -4.781   9.807   1.278  0.00  0.00    +0.005 A 
ENDBRANCH  17  24
ENDBRANCH   1  17
TORSDOF 4
