REMARK  Name = ZINC54911222
REMARK  5 active torsions:
REMARK  status: ('A' for Active; 'I' for Inactive)
REMARK    1  A    between atoms: C_1  and  C_2
REMARK    2  A    between atoms: C_2  and  C_3
REMARK    3  A    between atoms: C_15  and  O_22
REMARK    4  A    between atoms: C_18  and  C_20
REMARK    5  A    between atoms: C_18  and  C_21
REMARK                            x       y       z     vdW  Elec       q    Type
REMARK                         _______ _______ _______ _____ _____    ______ ____
ROOT
ATOM      1  C   UNL     1      -1.433  -0.534   0.013  0.00  0.00    +0.006 C 
ATOM      2  C   UNL     1      -1.414  -2.059   0.129  0.00  0.00    +0.006 C 
ATOM      3  C   UNL     1      -2.850  -2.588   0.173  0.00  0.00    +0.019 C 
ATOM      4  C   UNL     1      -3.568  -2.211  -1.127  0.00  0.00    +0.107 C 
ATOM      5  N   UNL     1      -3.466  -0.758  -1.319  0.00  0.00    -0.309 N 
ATOM      6  C   UNL     1      -2.136  -0.132  -1.288  0.00  0.00    +0.110 C 
ATOM      7  C   UNL     1      -4.601   0.009  -1.526  0.00  0.00    +0.161 A 
ATOM      8  N   UNL     1      -5.855  -0.384  -1.578  0.00  0.00    -0.229 NA
ATOM      9  C   UNL     1      -6.853   0.473  -1.785  0.00  0.00    +0.057 A 
ATOM     10  C   UNL     1      -6.472   1.766  -1.937  0.00  0.00    +0.043 A 
ATOM     11  S   UNL     1      -4.712   1.674  -1.767  0.00  0.00    -0.054 S 
ATOM     12  C   UNL     1      -7.345   2.951  -2.178  0.00  0.00    +0.153 C 
ATOM     13  C   UNL     1      -8.796   2.549  -1.868  0.00  0.00    +0.043 C 
ATOM     14  C   UNL     1      -9.094   1.211  -2.550  0.00  0.00    -0.027 C 
ATOM     15  C   UNL     1      -8.323   0.085  -1.858  0.00  0.00    +0.063 C 
ATOM     16  C   UNL     1     -10.595   0.923  -2.469  0.00  0.00    +0.011 C 
ATOM     17  C   UNL     1      -8.674   1.285  -4.019  0.00  0.00    +0.011 C 
ENDROOT
BRANCH   1  19
ATOM     18  C   UNL     1      -0.019   1.526   0.010  0.00  0.00    +0.004 C 
ATOM     19  C   UNL     1       0.002  -0.004   0.002  0.00  0.00    +0.002 C 
ENDBRANCH   1  19
BRANCH  12  20
ATOM     20  O   UNL     1      -6.948   4.024  -1.322  0.00  0.00    -0.387 OA
ATOM     21  H   UNL     1      -6.035   4.314  -1.452  0.00  0.00    +0.210 HD
ENDBRANCH  12  20
TORSDOF 2
