REMARK  Name = ZINC63686350
REMARK  7 active torsions:
REMARK  status: ('A' for Active; 'I' for Inactive)
REMARK    1  A    between atoms: C_1  and  C_2
REMARK    2  A    between atoms: C_7  and  C_8
REMARK    3  A    between atoms: C_10  and  C_14
REMARK    4  A    between atoms: C_14  and  S_15
REMARK    5  A    between atoms: S_15  and  C_16
REMARK    6  A    between atoms: C_20  and  C_24
REMARK    7  A    between atoms: N_22  and  C_23
REMARK                            x       y       z     vdW  Elec       q    Type
REMARK                         _______ _______ _______ _____ _____    ______ ____
ROOT
ATOM      1  C   UNL     1      -0.169  -4.428   4.150  0.00  0.00    +0.125 C 
ENDROOT
BRANCH   1  11
ATOM      2  C   UNL     1      -0.553   2.308   1.194  0.00  0.00    +0.044 C 
ATOM      3  C   UNL     1      -0.542   0.811   1.022  0.00  0.00    -0.046 A 
ATOM      4  C   UNL     1      -0.647   0.265  -0.249  0.00  0.00    +0.004 A 
ATOM      5  C   UNL     1      -0.639  -1.091  -0.426  0.00  0.00    +0.014 A 
ATOM      6  C   UNL     1      -0.524  -1.931   0.682  0.00  0.00    +0.045 A 
ATOM      7  C   UNL     1      -0.418  -1.384   1.973  0.00  0.00    +0.054 A 
ATOM      8  C   UNL     1      -0.422  -0.000   2.129  0.00  0.00    -0.024 A 
ATOM      9  C   UNL     1      -0.303   0.606   3.503  0.00  0.00    +0.046 C 
ATOM     10  N   UNL     1      -0.305  -2.223   3.058  0.00  0.00    -0.357 N 
ATOM     11  C   UNL     1      -0.295  -3.570   2.917  0.00  0.00    +0.030 A 
ATOM     12  C   UNL     1      -0.392  -4.174   1.714  0.00  0.00    +0.073 A 
ATOM     13  C   UNL     1      -0.512  -3.397   0.538  0.00  0.00    +0.190 A 
ATOM     14  O   UNL     1      -0.602  -3.923  -0.559  0.00  0.00    -0.287 OA
ATOM     15  H   UNL     1      -0.232  -1.840   3.947  0.00  0.00    +0.166 HD
ENDBRANCH   1  11
BRANCH   1  16
ATOM     16  S   UNL     1       1.543  -4.379   4.748  0.00  0.00    -0.111 S 
BRANCH  16  17
ATOM     17  C   UNL     1       1.502  -5.355   6.276  0.00  0.00    +0.256 C 
ATOM     18  N   UNL     1       0.972  -4.549   7.384  0.00  0.00    -0.184 NA
ATOM     19  N   UNL     1       1.654  -4.688   8.404  0.00  0.00    -0.289 N 
ATOM     20  C   UNL     1       2.771  -5.613   8.174  0.00  0.00    +0.201 C 
ATOM     21  N   UNL     1       2.879  -5.719   6.695  0.00  0.00    -0.249 NA
ATOM     22  C   UNL     1       3.860  -4.760   6.169  0.00  0.00    +0.110 C 
ATOM     23  H   UNL     1       1.476  -4.243   9.247  0.00  0.00    +0.184 HD
BRANCH  20  24
ATOM     24  C   UNL     1       2.469  -6.961   8.776  0.00  0.00    -0.009 A 
ATOM     25  C   UNL     1       2.978  -8.107   8.195  0.00  0.00    +0.007 A 
ATOM     26  C   UNL     1       2.701  -9.344   8.748  0.00  0.00    +0.000 A 
ATOM     27  C   UNL     1       1.914  -9.434   9.881  0.00  0.00    +0.000 A 
ATOM     28  C   UNL     1       1.405  -8.287  10.462  0.00  0.00    +0.000 A 
ATOM     29  C   UNL     1       1.686  -7.050   9.912  0.00  0.00    +0.007 A 
ENDBRANCH  20  24
ENDBRANCH  16  17
ENDBRANCH   1  16
TORSDOF 4
