REMARK  Name = ZINC11174128
REMARK  3 active torsions:
REMARK  status: ('A' for Active; 'I' for Inactive)
REMARK    1  A    between atoms: C_4  and  C_7
REMARK    2  A    between atoms: C_8  and  C_9
REMARK    3  A    between atoms: C_25  and  C_28
REMARK                            x       y       z     vdW  Elec       q    Type
REMARK                         _______ _______ _______ _____ _____    ______ ____
ROOT
ATOM      1  C   UNL     1       2.714   5.875  -0.811  0.00  0.00    +0.156 A 
ATOM      2  N   UNL     1       1.407   5.638  -0.882  0.00  0.00    -0.213 NA
ATOM      3  C   UNL     1       0.871   4.425  -0.805  0.00  0.00    +0.134 A 
ATOM      4  C   UNL     1       1.788   3.344  -0.637  0.00  0.00    +0.051 A 
ATOM      5  C   UNL     1       1.464   1.933  -0.527  0.00  0.00    -0.025 A 
ATOM      6  C   UNL     1       2.505   1.081  -0.372  0.00  0.00    -0.004 A 
ATOM      7  S   UNL     1       3.953   2.108  -0.365  0.00  0.00    -0.073 S 
ATOM      8  C   UNL     1       3.167   3.674  -0.569  0.00  0.00    +0.114 A 
ATOM      9  N   UNL     1       3.623   4.905  -0.653  0.00  0.00    -0.221 NA
ATOM     10  C   UNL     1       2.444  -0.409  -0.236  0.00  0.00    +0.043 C 
ATOM     11  C   UNL     1       0.996  -0.811   0.074  0.00  0.00    +0.005 C 
ATOM     12  C   UNL     1       0.066  -0.088  -0.905  0.00  0.00    +0.005 C 
ATOM     13  C   UNL     1       0.033   1.406  -0.581  0.00  0.00    +0.037 C 
ATOM     14  N   UNL     1      -0.495   4.221  -0.883  0.00  0.00    -0.317 N 
ATOM     15  C   UNL     1      -1.123   4.349   0.440  0.00  0.00    +0.087 C 
ATOM     16  C   UNL     1      -2.618   4.040   0.325  0.00  0.00    -0.062 C 
ATOM     17  C   UNL     1      -2.606   4.835  -1.962  0.00  0.00    +0.033 C 
ATOM     18  C   UNL     1      -1.111   5.144  -1.846  0.00  0.00    +0.100 C 
ATOM     19  N   UNL     1      -3.241   4.969  -0.637  0.00  0.00    +0.389 N 
ATOM     20  H   UNL     1      -3.124   5.932  -0.301  0.00  0.00    -0.085 HD
ATOM     21  H   UNL     1      -4.241   4.753  -0.717  0.00  0.00    -0.085 HD
ENDROOT
BRANCH  17  22
ATOM     22  C   UNL     1      -3.248   5.805  -2.919  0.00  0.00    +0.198 C 
ATOM     23  O   UNL     1      -3.862   6.760  -2.493  0.00  0.00    -0.278 OA
ATOM     24  N   UNL     1      -3.140   5.612  -4.249  0.00  0.00    -0.331 N 
ATOM     25  H   UNL     1      -2.649   4.848  -4.589  0.00  0.00    +0.145 HD
ATOM     26  H   UNL     1      -3.553   6.236  -4.865  0.00  0.00    +0.145 HD
ENDBRANCH  17  22
BRANCH   1  28
ATOM     27  C   UNL     1       4.495   7.541  -0.841  0.00  0.00    +0.011 C 
ATOM     28  C   UNL     1       3.181   7.267  -0.910  0.00  0.00    +0.049 C 
BRANCH  27  32
ATOM     29  C   UNL     1       5.843  11.554  -1.126  0.00  0.00    +0.000 A 
ATOM     30  C   UNL     1       6.759  10.530  -0.963  0.00  0.00    +0.001 A 
ATOM     31  C   UNL     1       6.329   9.223  -0.869  0.00  0.00    +0.008 A 
ATOM     32  C   UNL     1       4.963   8.935  -0.940  0.00  0.00    -0.025 A 
ATOM     33  C   UNL     1       4.044   9.974  -1.111  0.00  0.00    +0.008 A 
ATOM     34  C   UNL     1       4.489  11.276  -1.197  0.00  0.00    +0.001 A 
ENDBRANCH  27  32
ENDBRANCH   1  28
TORSDOF 3
