REMARK  Name = ZINC10215224
REMARK  3 active torsions:
REMARK  status: ('A' for Active; 'I' for Inactive)
REMARK    1  A    between atoms: C_4  and  O_29
REMARK    2  A    between atoms: C_5  and  C_7
REMARK    3  A    between atoms: C_20  and  C_22
REMARK                            x       y       z     vdW  Elec       q    Type
REMARK                         _______ _______ _______ _____ _____    ______ ____
ROOT
ATOM      1  C   UNL     1       2.343  -1.095   2.589  0.00  0.00    +0.072 C 
ATOM      2  N   UNL     1       1.205  -1.163   1.978  0.00  0.00    -0.184 NA
ATOM      3  N   UNL     1       1.151  -0.403   0.825  0.00  0.00    -0.204 N 
ATOM      4  C   UNL     1       2.514   0.080   0.506  0.00  0.00    +0.136 C 
ATOM      5  C   UNL     1       3.287  -0.211   1.799  0.00  0.00    +0.086 C 
ATOM      6  C   UNL     1       2.389   1.559   0.245  0.00  0.00    +0.018 A 
ATOM      7  C   UNL     1       3.528   2.342   0.246  0.00  0.00    +0.029 A 
ATOM      8  C   UNL     1       3.443   3.699  -0.007  0.00  0.00    +0.042 A 
ATOM      9  C   UNL     1       2.209   4.271  -0.265  0.00  0.00    +0.023 A 
ATOM     10  C   UNL     1       1.071   3.494  -0.260  0.00  0.00    +0.047 A 
ATOM     11  C   UNL     1       1.147   2.126   0.003  0.00  0.00    +0.129 A 
ATOM     12  O   UNL     1      -0.017   1.428   0.010  0.00  0.00    -0.463 OA
ATOM     13  C   UNL     1       0.002  -0.004   0.002  0.00  0.00    +0.329 C 
ATOM     14 CL   UNL     1       4.875   4.679  -0.003  0.00  0.00    -0.084 Cl
ENDROOT
BRANCH   1  19
ATOM     15  C   UNL     1       4.238  -2.260   5.611  0.00  0.00    +0.001 A 
ATOM     16  C   UNL     1       3.288  -3.045   6.242  0.00  0.00    +0.004 A 
ATOM     17  C   UNL     1       2.030  -3.199   5.690  0.00  0.00    +0.046 A 
ATOM     18  C   UNL     1       1.710  -2.563   4.502  0.00  0.00    +0.126 A 
ATOM     19  C   UNL     1       2.671  -1.772   3.857  0.00  0.00    +0.039 A 
ATOM     20  C   UNL     1       3.938  -1.624   4.424  0.00  0.00    +0.013 A 
BRANCH  18  21
ATOM     21  O   UNL     1       0.472  -2.709   3.962  0.00  0.00    -0.506 OA
ATOM     22  H   UNL     1       0.394  -3.458   3.355  0.00  0.00    +0.292 HD
ENDBRANCH  18  21
ENDBRANCH   1  19
BRANCH  13  23
ATOM     23  C   UNL     1      -1.273  -0.542   0.598  0.00  0.00    +0.101 A 
ATOM     24  C   UNL     1      -2.443   0.185   0.479  0.00  0.00    +0.029 A 
ATOM     25  C   UNL     1      -3.611  -0.320   1.030  0.00  0.00    +0.003 A 
ATOM     26  C   UNL     1      -3.558  -1.542   1.682  0.00  0.00    +0.020 A 
ATOM     27  C   UNL     1      -2.352  -2.213   1.761  0.00  0.00    +0.111 A 
ATOM     28  N   UNL     1      -1.262  -1.705   1.220  0.00  0.00    -0.254 NA
ENDBRANCH  13  23
TORSDOF 3
