REMARK  Name = ZINC12848535
REMARK  4 active torsions:
REMARK  status: ('A' for Active; 'I' for Inactive)
REMARK    1  A    between atoms: C_1  and  N_2
REMARK    2  A    between atoms: C_8  and  C_10
REMARK    3  A    between atoms: C_10  and  C_11
REMARK    4  A    between atoms: C_14  and  C_16
REMARK                            x       y       z     vdW  Elec       q    Type
REMARK                         _______ _______ _______ _____ _____    ______ ____
ROOT
ATOM      1  C   UNL     1      -4.196  -1.876   0.006  0.00  0.00    +0.058 A 
ATOM      2  C   UNL     1      -4.875  -2.554   0.969  0.00  0.00    +0.071 A 
ATOM      3  S   UNL     1      -4.558  -4.242   0.470  0.00  0.00    -0.075 S 
ATOM      4  C   UNL     1      -3.558  -3.861  -0.962  0.00  0.00    +0.109 A 
ATOM      5  N   UNL     1      -3.561  -2.536  -0.934  0.00  0.00    -0.243 NA
ENDROOT
BRANCH   4   6
ATOM      6  C   UNL     1      -2.907  -4.778  -1.922  0.00  0.00    +0.007 A 
ATOM      7  C   UNL     1      -2.165  -4.265  -2.987  0.00  0.00    +0.012 A 
ATOM      8  C   UNL     1      -1.556  -5.125  -3.878  0.00  0.00    +0.020 A 
ATOM      9  C   UNL     1      -1.689  -6.495  -3.722  0.00  0.00    +0.041 A 
ATOM     10  C   UNL     1      -2.428  -7.010  -2.670  0.00  0.00    +0.020 A 
ATOM     11  C   UNL     1      -3.037  -6.159  -1.770  0.00  0.00    +0.012 A 
ATOM     12 CL   UNL     1      -0.926  -7.571  -4.851  0.00  0.00    -0.084 Cl
ENDBRANCH   4   6
BRANCH   1  13
ATOM     13  C   UNL     1      -4.176  -0.369   0.015  0.00  0.00    +0.152 C 
BRANCH  13  21
ATOM     14  C   UNL     1       1.472   4.362   0.012  0.00  0.00    +0.172 C 
ATOM     15  N   UNL     1       0.631   3.163   0.013  0.00  0.00    -0.273 N 
ATOM     16  C   UNL     1       1.070   1.887   0.002  0.00  0.00    +0.110 A 
ATOM     17  C   UNL     1      -0.013   1.076   0.008  0.00  0.00    +0.065 A 
ATOM     18  C   UNL     1      -1.159   1.887   0.017  0.00  0.00    +0.147 A 
ATOM     19  N   UNL     1      -0.770   3.140   0.026  0.00  0.00    -0.156 NA
ATOM     20  N   UNL     1      -2.486   1.437   0.019  0.00  0.00    -0.269 N 
ATOM     21  C   UNL     1      -2.749   0.115   0.013  0.00  0.00    +0.224 C 
ATOM     22  O   UNL     1      -1.837  -0.685   0.004  0.00  0.00    -0.275 OA
ATOM     23  H   UNL     1      -3.215   2.076   0.026  0.00  0.00    +0.156 HD
ENDBRANCH  13  21
ENDBRANCH   1  13
TORSDOF 3
