REMARK  Name = ZINC02727140
REMARK  16 active torsions:
REMARK  status: ('A' for Active; 'I' for Inactive)
REMARK    1  A    between atoms: C_1  and  C_2
REMARK    2  A    between atoms: C_2  and  O_3
REMARK    3  A    between atoms: O_3  and  C_4
REMARK    4  A    between atoms: C_4  and  C_5
REMARK    5  A    between atoms: C_5  and  O_6
REMARK    6  A    between atoms: O_6  and  C_7
REMARK    7  A    between atoms: C_7  and  C_9
REMARK    8  A    between atoms: C_10  and  C_39
REMARK    9  A    between atoms: C_14  and  C_16
REMARK   10  A    between atoms: C_18  and  O_26
REMARK   11  A    between atoms: C_19  and  O_24
REMARK   12  A    between atoms: C_21  and  O_22
REMARK   13  A    between atoms: O_22  and  C_23
REMARK   14  A    between atoms: O_24  and  C_25
REMARK   15  A    between atoms: O_26  and  C_27
REMARK   16  A    between atoms: C_31  and  C_34
REMARK                            x       y       z     vdW  Elec       q    Type
REMARK                         _______ _______ _______ _____ _____    ______ ____
ROOT
ATOM      1  C   UNL     1      -7.016   1.257   2.020  0.00  0.00    +0.065 C 
ATOM      2  C   UNL     1      -7.402   1.614   3.257  0.00  0.00    +0.016 C 
ATOM      3  N   UNL     1      -7.011   0.881   4.342  0.00  0.00    -0.321 N 
ATOM      4  C   UNL     1      -6.579  -0.410   4.193  0.00  0.00    +0.016 C 
ATOM      5  C   UNL     1      -6.153  -0.855   2.991  0.00  0.00    +0.024 C 
ATOM      6  C   UNL     1      -6.144   0.058   1.791  0.00  0.00    +0.096 C 
ATOM      7  C   UNL     1      -5.704  -2.177   2.825  0.00  0.00    +0.162 C 
ATOM      8  O   UNL     1      -5.340  -2.549   1.727  0.00  0.00    -0.292 OA
ATOM      9  C   UNL     1      -5.666  -3.138   3.982  0.00  0.00    +0.088 C 
ATOM     10  C   UNL     1      -5.469  -2.348   5.280  0.00  0.00    +0.039 C 
ATOM     11  C   UNL     1      -6.596  -1.319   5.397  0.00  0.00    +0.060 C 
ATOM     12  C   UNL     1      -8.270   2.831   3.449  0.00  0.00    +0.061 C 
ATOM     13  H   UNL     1      -7.041   1.327   5.348  0.00  0.00    +0.152 HD
ENDROOT
BRANCH   6  14
ATOM     14  C   UNL     1      -4.733   0.515   1.527  0.00  0.00    +0.010 A 
ATOM     15  C   UNL     1      -4.055   1.250   2.482  0.00  0.00    +0.057 A 
ATOM     16  C   UNL     1      -2.758   1.671   2.242  0.00  0.00    +0.162 A 
ATOM     17  C   UNL     1      -2.136   1.354   1.038  0.00  0.00    +0.165 A 
ATOM     18  C   UNL     1      -2.818   0.623   0.080  0.00  0.00    +0.095 A 
ATOM     19  C   UNL     1      -4.116   0.198   0.327  0.00  0.00    +0.128 A 
BRANCH  19  20
ATOM     20  O   UNL     1      -4.785  -0.524  -0.612  0.00  0.00    -0.495 OA
ATOM     21  C   UNL     1      -4.088  -0.814  -1.825  0.00  0.00    +0.277 C 
ENDBRANCH  19  20
BRANCH  17  22
ATOM     22  O   UNL     1      -0.862   1.766   0.800  0.00  0.00    -0.491 OA
ATOM     23  C   UNL     1      -0.287   1.405  -0.457  0.00  0.00    +0.277 C 
ENDBRANCH  17  22
BRANCH  16  24
ATOM     24  O   UNL     1      -2.091   2.393   3.183  0.00  0.00    -0.491 OA
ATOM     25  C   UNL     1      -2.791   2.682   4.395  0.00  0.00    +0.277 C 
ENDBRANCH  16  24
ENDBRANCH   6  14
BRANCH  10  26
ATOM     26  C   UNL     1      -5.513  -3.289   6.456  0.00  0.00    -0.006 A 
ATOM     27  C   UNL     1      -4.556  -3.541   7.383  0.00  0.00    +0.011 A 
ATOM     28  C   UNL     1      -4.821  -4.452   8.389  0.00  0.00    +0.008 A 
ATOM     29  C   UNL     1      -6.026  -5.074   8.412  0.00  0.00    +0.045 A 
ATOM     30  S   UNL     1      -6.834  -4.366   6.986  0.00  0.00    -0.101 S 
ENDBRANCH  10  26
BRANCH   1  31
ATOM     31  C   UNL     1      -7.441   2.028   0.912  0.00  0.00    +0.338 C 
ATOM     32  O   UNL     1      -8.230   2.940   1.072  0.00  0.00    -0.245 OA
BRANCH  31  33
ATOM     33  O   UNL     1      -6.971   1.751  -0.322  0.00  0.00    -0.459 OA
BRANCH  33  34
ATOM     34  C   UNL     1      -7.442   2.569  -1.395  0.00  0.00    +0.260 C 
BRANCH  34  35
ATOM     35  C   UNL     1      -6.803   2.108  -2.707  0.00  0.00    +0.201 C 
BRANCH  35  36
ATOM     36  O   UNL     1      -7.251   0.786  -3.015  0.00  0.00    -0.377 OA
BRANCH  36  38
ATOM     37  C   UNL     1      -7.255  -1.153  -4.457  0.00  0.00    +0.034 C 
ATOM     38  C   UNL     1      -6.710   0.259  -4.228  0.00  0.00    +0.156 C 
ENDBRANCH  36  38
ENDBRANCH  35  36
ENDBRANCH  34  35
ENDBRANCH  33  34
ENDBRANCH  31  33
ENDBRANCH   1  31
TORSDOF 11
