REMARK  Name = ZINC21528529
REMARK  12 active torsions:
REMARK  status: ('A' for Active; 'I' for Inactive)
REMARK    1  A    between atoms: C_1  and  C_2
REMARK    2  A    between atoms: C_4  and  C_33
REMARK    3  A    between atoms: C_6  and  N_8
REMARK    4  A    between atoms: N_12  and  S_24
REMARK    5  A    between atoms: C_14  and  C_15
REMARK    6  A    between atoms: C_14  and  C_16
REMARK    7  A    between atoms: N_18  and  C_19
REMARK    8  A    between atoms: C_19  and  C_20
REMARK    9  A    between atoms: C_20  and  C_21
REMARK   10  A    between atoms: C_21  and  C_22
REMARK   11  A    between atoms: C_21  and  C_23
REMARK   12  A    between atoms: S_24  and  C_27
REMARK                            x       y       z     vdW  Elec       q    Type
REMARK                         _______ _______ _______ _____ _____    ______ ____
ROOT
ATOM      1  N   UNL     1      -3.279   3.010  -2.175  0.00  0.00    -0.255 N 
ATOM      2  C   UNL     1      -2.165   3.721  -2.356  0.00  0.00    +0.236 C 
ATOM      3  O   UNL     1      -2.265   4.859  -2.763  0.00  0.00    -0.274 OA
ATOM      4  C   UNL     1      -0.791   3.177  -2.078  0.00  0.00    +0.205 C 
ATOM      5  N   UNL     1      -0.919   1.923  -1.320  0.00  0.00    -0.165 NA
ATOM      6  C   UNL     1      -1.959   0.975  -1.754  0.00  0.00    +0.145 C 
ATOM      7  C   UNL     1      -3.321   1.668  -1.609  0.00  0.00    +0.129 C 
ATOM      8  C   UNL     1      -4.382   0.845  -2.342  0.00  0.00    +0.043 C 
ENDROOT
BRANCH   1  14
ATOM      9  C   UNL     1      -7.154   3.130  -5.198  0.00  0.00    +0.044 C 
ATOM     10  C   UNL     1      -6.392   3.672  -4.016  0.00  0.00    -0.048 A 
ATOM     11  C   UNL     1      -6.892   4.748  -3.306  0.00  0.00    +0.006 A 
ATOM     12  C   UNL     1      -6.196   5.248  -2.221  0.00  0.00    -0.048 A 
ATOM     13  C   UNL     1      -4.998   4.674  -1.844  0.00  0.00    +0.027 A 
ATOM     14  C   UNL     1      -4.493   3.593  -2.555  0.00  0.00    +0.038 A 
ATOM     15  C   UNL     1      -5.192   3.097  -3.647  0.00  0.00    +0.027 A 
ATOM     16  C   UNL     1      -6.745   6.420  -1.450  0.00  0.00    +0.044 C 
ENDBRANCH   1  14
BRANCH   7  17
ATOM     17  C   UNL     1      -3.682   1.756  -0.149  0.00  0.00    +0.238 C 
ATOM     18  O   UNL     1      -3.120   1.047   0.658  0.00  0.00    -0.273 OA
ATOM     19  N   UNL     1      -4.630   2.623   0.259  0.00  0.00    -0.313 N 
ATOM     20  H   UNL     1      -5.140   3.265  -0.473  0.00  0.00    +0.149 HD
BRANCH  19  21
ATOM     21  C   UNL     1      -4.981   2.708   1.679  0.00  0.00    +0.104 C 
BRANCH  21  22
ATOM     22  C   UNL     1      -6.076   3.760   1.871  0.00  0.00    +0.022 C 
BRANCH  22  23
ATOM     23  C   UNL     1      -6.442   3.850   3.354  0.00  0.00    -0.016 C 
ATOM     24  C   UNL     1      -5.240   4.367   4.146  0.00  0.00    +0.007 C 
ATOM     25  C   UNL     1      -7.621   4.809   3.531  0.00  0.00    +0.007 C 
ENDBRANCH  22  23
ENDBRANCH  21  22
ENDBRANCH  19  21
ENDBRANCH   7  17
BRANCH   5  26
ATOM     26  S   UNL     1       0.070   1.588  -0.035  0.00  0.00    +0.061 S 
ATOM     27  O   UNL     1       0.565   2.836   0.433  0.00  0.00    -0.153 OA
ATOM     28  O   UNL     1      -0.644   0.690   0.804  0.00  0.00    -0.153 OA
BRANCH  26  29
ATOM     29  C   UNL     1       1.456   0.699  -0.661  0.00  0.00    +0.105 A 
ATOM     30  C   UNL     1       1.383  -0.672  -0.819  0.00  0.00    +0.028 A 
ATOM     31  C   UNL     1       2.470  -1.369  -1.315  0.00  0.00    +0.002 A 
ATOM     32  C   UNL     1       3.631  -0.696  -1.645  0.00  0.00    +0.000 A 
ATOM     33  C   UNL     1       3.705   0.675  -1.482  0.00  0.00    +0.002 A 
ATOM     34  C   UNL     1       2.618   1.372  -0.990  0.00  0.00    +0.028 A 
ENDBRANCH  26  29
ENDBRANCH   5  26
TORSDOF 7
