REMARK  Name = ZINC03418024
REMARK  6 active torsions:
REMARK  status: ('A' for Active; 'I' for Inactive)
REMARK    1  A    between atoms: C_3  and  C_27
REMARK    2  A    between atoms: C_6  and  C_7
REMARK    3  A    between atoms: C_7  and  S_8
REMARK    4  A    between atoms: S_8  and  C_9
REMARK    5  A    between atoms: C_15  and  C_17
REMARK    6  A    between atoms: C_20  and  C_23
REMARK                            x       y       z     vdW  Elec       q    Type
REMARK                         _______ _______ _______ _____ _____    ______ ____
ROOT
ATOM      1  C   UNL     1      -0.425   4.019   0.028  0.00  0.00    +0.160 A 
ATOM      2  N   UNL     1       0.793   3.498   0.013  0.00  0.00    -0.133 NA
ATOM      3  N   UNL     1       0.985   2.252   0.005  0.00  0.00    -0.125 NA
ATOM      4  C   UNL     1      -0.017   1.387   0.010  0.00  0.00    +0.189 A 
ATOM      5  S   UNL     1      -1.404   2.519   0.021  0.00  0.00    -0.024 S 
ATOM      6  N   UNL     1       0.002  -0.004   0.002  0.00  0.00    -0.259 N 
ATOM      7  C   UNL     1       1.178  -0.662  -0.012  0.00  0.00    +0.250 C 
ATOM      8  O   UNL     1       2.223  -0.040  -0.018  0.00  0.00    -0.270 OA
ATOM      9  H   UNL     1      -0.831  -0.500   0.007  0.00  0.00    +0.157 HD
ENDROOT
BRANCH   7  10
ATOM     10  C   UNL     1       1.198  -2.140  -0.020  0.00  0.00    +0.037 A 
ATOM     11  C   UNL     1       0.001  -2.857  -0.007  0.00  0.00    +0.013 A 
ATOM     12  C   UNL     1       0.027  -4.237  -0.021  0.00  0.00    +0.013 A 
ATOM     13  C   UNL     1       1.236  -4.909  -0.035  0.00  0.00    +0.055 A 
ATOM     14  C   UNL     1       2.426  -4.204  -0.043  0.00  0.00    +0.013 A 
ATOM     15  C   UNL     1       2.415  -2.824  -0.035  0.00  0.00    +0.013 A 
BRANCH  13  16
ATOM     16  C   UNL     1       1.256  -6.416  -0.044  0.00  0.00    +0.417 C 
ATOM     17  F   UNL     1       1.275  -6.889   1.273  0.00  0.00    -0.166 F 
ATOM     18  F   UNL     1       0.114  -6.894  -0.695  0.00  0.00    -0.166 F 
ATOM     19  F   UNL     1       2.398  -6.863  -0.716  0.00  0.00    -0.166 F 
ENDBRANCH  13  16
ENDBRANCH   7  10
BRANCH   1  20
ATOM     20  S   UNL     1      -0.936   5.705   0.041  0.00  0.00    -0.092 S 
BRANCH  20  21
ATOM     21  C   UNL     1       0.621   6.636   0.032  0.00  0.00    +0.111 C 
BRANCH  21  27
ATOM     22  C   UNL     1       0.182   8.795  -1.153  0.00  0.00    +0.006 A 
ATOM     23  C   UNL     1      -0.095  10.147  -1.151  0.00  0.00    +0.019 A 
ATOM     24  C   UNL     1      -0.223  10.828   0.061  0.00  0.00    +0.052 A 
ATOM     25  C   UNL     1      -0.074  10.134   1.264  0.00  0.00    +0.019 A 
ATOM     26  C   UNL     1       0.198   8.782   1.247  0.00  0.00    +0.006 A 
ATOM     27  C   UNL     1       0.323   8.113   0.042  0.00  0.00    -0.037 A 
BRANCH  24  28
ATOM     28  C   UNL     1      -0.506  12.232   0.071  0.00  0.00    +0.099 C 
ATOM     29  N   UNL     1      -0.731  13.345   0.079  0.00  0.00    -0.191 NA
ENDBRANCH  24  28
ENDBRANCH  21  27
ENDBRANCH  20  21
ENDBRANCH   1  20
TORSDOF 6
