REMARK  Name = ZINC17025716
REMARK  7 active torsions:
REMARK  status: ('A' for Active; 'I' for Inactive)
REMARK    1  A    between atoms: C_1  and  C_2
REMARK    2  A    between atoms: C_6  and  C_15
REMARK    3  A    between atoms: C_13  and  C_14
REMARK    4  A    between atoms: C_15  and  C_16
REMARK    5  A    between atoms: C_16  and  N_17
REMARK    6  A    between atoms: C_18  and  C_20
REMARK    7  A    between atoms: C_21  and  C_22
REMARK                            x       y       z     vdW  Elec       q    Type
REMARK                         _______ _______ _______ _____ _____    ______ ____
ROOT
ATOM      1  C   UNL     1      -6.944   2.268  -1.478  0.00  0.00    +0.109 C 
ENDROOT
BRANCH   1   2
ATOM      2  N   UNL     1      -7.730   3.503  -1.437  0.00  0.00    -0.312 N 
ATOM      3  C   UNL     1      -8.207   4.036  -2.579  0.00  0.00    +0.237 C 
ATOM      4  O   UNL     1      -7.984   3.492  -3.645  0.00  0.00    -0.271 OA
ATOM      5  H   UNL     1      -7.908   3.937  -0.588  0.00  0.00    +0.149 HD
BRANCH   3   6
ATOM      6  C   UNL     1      -8.992   5.270  -2.539  0.00  0.00    +0.068 C 
ATOM      7  C   UNL     1      -9.353   5.878  -3.688  0.00  0.00    +0.013 C 
BRANCH   7   8
ATOM      8  C   UNL     1      -8.763   5.448  -4.964  0.00  0.00    -0.021 A 
ATOM      9  C   UNL     1      -9.573   5.293  -6.095  0.00  0.00    +0.012 A 
ATOM     10  C   UNL     1      -9.018   4.890  -7.289  0.00  0.00    +0.050 A 
ATOM     11  C   UNL     1      -7.656   4.635  -7.377  0.00  0.00    +0.166 A 
ATOM     12  C   UNL     1      -6.841   4.787  -6.253  0.00  0.00    +0.167 A 
ATOM     13  C   UNL     1      -7.389   5.197  -5.054  0.00  0.00    +0.057 A 
ATOM     14  O   UNL     1      -5.558   4.479  -6.601  0.00  0.00    -0.453 OA
ATOM     15  C   UNL     1      -5.526   4.534  -8.039  0.00  0.00    +0.466 C 
ATOM     16  O   UNL     1      -6.880   4.232  -8.424  0.00  0.00    -0.453 OA
ENDBRANCH   7   8
ENDBRANCH   3   6
ENDBRANCH   1   2
BRANCH   1  17
ATOM     17  C   UNL     1      -6.528   1.881  -0.057  0.00  0.00    +0.059 C 
BRANCH  17  23
ATOM     18  C   UNL     1      -0.027  -1.767  -0.292  0.00  0.00    +0.044 C 
ATOM     19  C   UNL     1      -1.534  -1.767  -0.249  0.00  0.00    -0.047 A 
ATOM     20  C   UNL     1      -2.210  -0.581  -0.207  0.00  0.00    +0.013 A 
ATOM     21  C   UNL     1      -3.608  -0.581  -0.166  0.00  0.00    -0.001 A 
ATOM     22  C   UNL     1      -4.365   0.672  -0.121  0.00  0.00    +0.019 A 
ATOM     23  C   UNL     1      -5.719   0.610  -0.099  0.00  0.00    +0.019 A 
ATOM     24  C   UNL     1      -6.374  -0.640  -0.104  0.00  0.00    +0.252 A 
ATOM     25  O   UNL     1      -7.592  -0.673  -0.074  0.00  0.00    -0.268 OA
ATOM     26  N   UNL     1      -5.688  -1.796  -0.141  0.00  0.00    -0.322 N 
ATOM     27  H   UNL     1      -6.169  -2.638  -0.143  0.00  0.00    +0.169 HD
ATOM     28  C   UNL     1      -4.309  -1.802  -0.175  0.00  0.00    +0.049 A 
ATOM     29  C   UNL     1      -3.599  -2.997  -0.212  0.00  0.00    +0.030 A 
ATOM     30  C   UNL     1      -2.221  -2.973  -0.251  0.00  0.00    -0.046 A 
ATOM     31  C   UNL     1      -1.454  -4.269  -0.298  0.00  0.00    +0.044 C 
ENDBRANCH  17  23
ENDBRANCH   1  17
TORSDOF 5
