REMARK  Name = ZINC16763444
REMARK  5 active torsions:
REMARK  status: ('A' for Active; 'I' for Inactive)
REMARK    1  A    between atoms: C_1  and  C_2
REMARK    2  A    between atoms: C_2  and  C_4
REMARK    3  A    between atoms: C_2  and  S_14
REMARK    4  A    between atoms: N_6  and  C_7
REMARK    5  A    between atoms: S_14  and  C_15
REMARK                            x       y       z     vdW  Elec       q    Type
REMARK                         _______ _______ _______ _____ _____    ______ ____
ROOT
ATOM      1  C   UNL     1      -4.091  -2.888   1.336  0.00  0.00    +0.029 C 
ATOM      2  C   UNL     1      -3.311  -2.926   0.021  0.00  0.00    +0.137 C 
ENDROOT
BRANCH   2   3
ATOM      3  C   UNL     1      -2.623  -4.260  -0.116  0.00  0.00    +0.226 C 
ATOM      4  O   UNL     1      -1.469  -4.387   0.236  0.00  0.00    -0.275 OA
ATOM      5  N   UNL     1      -3.289  -5.312  -0.631  0.00  0.00    -0.312 N 
ATOM      6  H   UNL     1      -4.212  -5.211  -0.913  0.00  0.00    +0.149 HD
BRANCH   5   7
ATOM      7  C   UNL     1      -2.621  -6.609  -0.764  0.00  0.00    +0.073 C 
ATOM      8  C   UNL     1      -1.810  -6.621  -2.076  0.00  0.00    +0.022 C 
ATOM      9  C   UNL     1      -0.751  -7.686  -1.974  0.00  0.00    +0.002 C 
ATOM     10  C   UNL     1      -1.208  -9.027  -2.581  0.00  0.00    +0.000 C 
ATOM     11  C   UNL     1      -2.665  -9.378  -2.227  0.00  0.00    +0.000 C 
ATOM     12  C   UNL     1      -2.999  -9.072  -0.792  0.00  0.00    +0.002 C 
ATOM     13  C   UNL     1      -3.623  -7.663  -0.725  0.00  0.00    +0.022 C 
ENDBRANCH   5   7
ENDBRANCH   2   3
BRANCH   2  14
ATOM     14  S   UNL     1      -2.070  -1.603   0.015  0.00  0.00    -0.073 S 
BRANCH  14  15
ATOM     15  C   UNL     1      -3.026  -0.123   0.031  0.00  0.00    +0.198 A 
ATOM     16  N   UNL     1      -4.332  -0.059   0.044  0.00  0.00    -0.121 NA
ATOM     17  N   UNL     1      -4.700   1.294   0.054  0.00  0.00    -0.121 NA
ATOM     18  C   UNL     1      -3.608   1.997   0.047  0.00  0.00    +0.202 A 
ATOM     19  N   UNL     1      -2.518   1.167   0.033  0.00  0.00    -0.264 N 
ATOM     20  C   UNL     1      -1.243   1.753   0.018  0.00  0.00    +0.065 A 
ATOM     21  C   UNL     1      -0.013   1.076   0.008  0.00  0.00    +0.027 A 
ATOM     22  C   UNL     1       1.173   1.771   0.000  0.00  0.00    +0.002 A 
ATOM     23  C   UNL     1       1.194   3.156   0.007  0.00  0.00    +0.001 A 
ATOM     24  C   UNL     1      -0.004   3.848   0.022  0.00  0.00    +0.017 A 
ATOM     25  C   UNL     1      -1.190   3.150   0.030  0.00  0.00    +0.040 A 
ATOM     26  S   UNL     1      -2.901   3.627   0.049  0.00  0.00    -0.048 S 
ENDBRANCH  14  15
ENDBRANCH   2  14
TORSDOF 4
