REMARK  Name = ZINC13149399
REMARK  16 active torsions:
REMARK  status: ('A' for Active; 'I' for Inactive)
REMARK    1  A    between atoms: C_1  and  C_2
REMARK    2  A    between atoms: C_5  and  O_8
REMARK    3  A    between atoms: O_8  and  C_9
REMARK    4  A    between atoms: C_9  and  C_10
REMARK    5  A    between atoms: C_10  and  C_12
REMARK    6  A    between atoms: C_10  and  O_33
REMARK    7  A    between atoms: C_12  and  N_71
REMARK    8  A    between atoms: C_13  and  C_14
REMARK    9  A    between atoms: C_13  and  N_71
REMARK   10  A    between atoms: C_20  and  C_21
REMARK   11  A    between atoms: C_20  and  N_71
REMARK   12  A    between atoms: C_21  and  C_23
REMARK   13  A    between atoms: C_21  and  O_32
REMARK   14  A    between atoms: C_23  and  O_24
REMARK   15  A    between atoms: O_24  and  C_25
REMARK   16  A    between atoms: C_28  and  C_31
REMARK                            x       y       z     vdW  Elec       q    Type
REMARK                         _______ _______ _______ _____ _____    ______ ____
ROOT
ATOM      1  N   UNL     1      -0.745   1.709  -3.691  0.00  0.00    +0.383 N 
ATOM      2  H   UNL     1      -0.809   2.703  -3.440  0.00  0.00    -0.082 HD
ENDROOT
BRANCH   1   3
ATOM      3  C   UNL     1      -0.006   1.583  -4.965  0.00  0.00    -0.044 C 
BRANCH   3   4
ATOM      4  C   UNL     1       1.148   2.588  -4.963  0.00  0.00    +0.135 C 
BRANCH   4   5
ATOM      5  O   UNL     1       2.058   2.268  -3.910  0.00  0.00    -0.390 OA
ATOM      6  H   UNL     1       2.448   1.386  -3.982  0.00  0.00    +0.210 HD
ENDBRANCH   4   5
BRANCH   4   7
ATOM      7  C   UNL     1       1.879   2.527  -6.306  0.00  0.00    +0.258 C 
BRANCH   7   8
ATOM      8  O   UNL     1       2.881   3.545  -6.349  0.00  0.00    -0.489 OA
BRANCH   8  13
ATOM      9  C   UNL     1       5.976   3.889 -11.042  0.00  0.00    +0.044 C 
ATOM     10  C   UNL     1       5.148   3.797  -9.787  0.00  0.00    -0.050 A 
ATOM     11  C   UNL     1       5.377   4.675  -8.743  0.00  0.00    +0.007 A 
ATOM     12  C   UNL     1       4.619   4.593  -7.591  0.00  0.00    +0.046 A 
ATOM     13  C   UNL     1       3.628   3.628  -7.481  0.00  0.00    +0.121 A 
ATOM     14  C   UNL     1       3.405   2.744  -8.527  0.00  0.00    +0.046 A 
ATOM     15  C   UNL     1       4.161   2.834  -9.680  0.00  0.00    +0.007 A 
ENDBRANCH   8  13
ENDBRANCH   7   8
ENDBRANCH   4   7
ENDBRANCH   3   4
ENDBRANCH   1   3
BRANCH   1  16
ATOM     16  C   UNL     1      -0.028   0.989  -2.618  0.00  0.00    -0.075 C 
BRANCH  16  17
ATOM     17  C   UNL     1       0.119  -0.492  -2.972  0.00  0.00    -0.028 C 
ATOM     18  C   UNL     1       1.495  -0.990  -2.522  0.00  0.00    +0.002 C 
ATOM     19  C   UNL     1       1.642  -2.471  -2.877  0.00  0.00    +0.000 C 
ATOM     20  C   UNL     1       0.552  -3.276  -2.167  0.00  0.00    +0.000 C 
ATOM     21  C   UNL     1      -0.823  -2.779  -2.616  0.00  0.00    +0.000 C 
ATOM     22  C   UNL     1      -0.971  -1.298  -2.262  0.00  0.00    +0.002 C 
ENDBRANCH  16  17
ENDBRANCH   1  16
BRANCH   1  23
ATOM     23  C   UNL     1      -2.110   1.163  -3.843  0.00  0.00    -0.044 C 
BRANCH  23  24
ATOM     24  C   UNL     1      -2.904   1.456  -2.568  0.00  0.00    +0.135 C 
BRANCH  24  25
ATOM     25  O   UNL     1      -2.869   2.859  -2.298  0.00  0.00    -0.390 OA
ATOM     26  H   UNL     1      -3.246   3.405  -3.001  0.00  0.00    +0.210 HD
ENDBRANCH  24  25
BRANCH  24  27
ATOM     27  C   UNL     1      -4.355   1.010  -2.758  0.00  0.00    +0.258 C 
BRANCH  27  28
ATOM     28  O   UNL     1      -5.068   1.176  -1.531  0.00  0.00    -0.489 OA
BRANCH  28  29
ATOM     29  C   UNL     1      -6.381   0.823  -1.527  0.00  0.00    +0.121 A 
ATOM     30  C   UNL     1      -6.971   0.332  -2.683  0.00  0.00    +0.046 A 
ATOM     31  C   UNL     1      -8.304  -0.032  -2.675  0.00  0.00    +0.007 A 
ATOM     32  C   UNL     1      -9.052   0.104  -1.521  0.00  0.00    -0.050 A 
ATOM     33  C   UNL     1      -8.468   0.598  -0.369  0.00  0.00    +0.007 A 
ATOM     34  C   UNL     1      -7.134   0.958  -0.370  0.00  0.00    +0.046 A 
ATOM     35  C   UNL     1     -10.507  -0.287  -1.517  0.00  0.00    +0.044 C 
ENDBRANCH  28  29
ENDBRANCH  27  28
ENDBRANCH  24  27
ENDBRANCH  23  24
ENDBRANCH   1  23
TORSDOF 14
