REMARK  Name = ZINC35201391
REMARK  10 active torsions:
REMARK  status: ('A' for Active; 'I' for Inactive)
REMARK    1  A    between atoms: C_1  and  C_2
REMARK    2  A    between atoms: C_6  and  C_36
REMARK    3  A    between atoms: C_7  and  N_8
REMARK    4  A    between atoms: N_11  and  C_12
REMARK    5  A    between atoms: C_12  and  C_13
REMARK    6  A    between atoms: C_16  and  S_27
REMARK    7  A    between atoms: N_17  and  C_18
REMARK    8  A    between atoms: C_21  and  N_24
REMARK    9  A    between atoms: S_27  and  C_28
REMARK   10  A    between atoms: C_28  and  C_29
REMARK                            x       y       z     vdW  Elec       q    Type
REMARK                         _______ _______ _______ _____ _____    ______ ____
ROOT
ATOM      1  C   UNL     1      -0.157  -0.485   7.286  0.00  0.00    +0.156 A 
ATOM      2  N   UNL     1       0.902  -0.216   7.996  0.00  0.00    -0.132 NA
ATOM      3  N   UNL     1       0.590   0.540   8.988  0.00  0.00    -0.122 NA
ATOM      4  C   UNL     1      -0.697   0.798   8.966  0.00  0.00    +0.196 A 
ATOM      5  N   UNL     1      -1.215   0.156   7.874  0.00  0.00    -0.273 N 
ENDROOT
BRANCH   5   6
ATOM      6  C   UNL     1      -2.551   0.152   7.448  0.00  0.00    +0.050 A 
ATOM      7  C   UNL     1      -2.895   0.726   6.231  0.00  0.00    +0.028 A 
ATOM      8  C   UNL     1      -4.212   0.721   5.814  0.00  0.00    +0.035 A 
ATOM      9  C   UNL     1      -5.187   0.145   6.607  0.00  0.00    +0.126 A 
ATOM     10  C   UNL     1      -4.848  -0.426   7.820  0.00  0.00    +0.035 A 
ATOM     11  C   UNL     1      -3.532  -0.429   8.239  0.00  0.00    +0.028 A 
BRANCH   9  12
ATOM     12  N   UNL     1      -6.598   0.142   6.158  0.00  0.00    +0.056 N 
ATOM     13  O   UNL     1      -6.895   0.642   5.098  0.00  0.00    -0.126 OA
ATOM     14  O   UNL     1      -7.452  -0.361   6.850  0.00  0.00    -0.126 OA
ENDBRANCH   9  12
ENDBRANCH   5   6
BRANCH   1  15
ATOM     15  C   UNL     1      -0.207  -1.338   6.045  0.00  0.00    +0.182 C 
BRANCH  15  19
ATOM     16  N   UNL     1       0.231  -0.278   2.552  0.00  0.00    -0.269 N 
ATOM     17  C   UNL     1       0.021  -1.050   3.636  0.00  0.00    +0.304 C 
ATOM     18  O   UNL     1      -0.169  -2.244   3.505  0.00  0.00    -0.252 OA
ATOM     19  N   UNL     1       0.021  -0.499   4.866  0.00  0.00    -0.292 N 
ATOM     20  H   UNL     1       0.456   0.659   2.660  0.00  0.00    +0.156 HD
ATOM     21  H   UNL     1       0.173   0.454   4.971  0.00  0.00    +0.151 HD
BRANCH  16  28
ATOM     22  C   UNL     1       2.628  -0.827   1.120  0.00  0.00    +0.045 C 
ATOM     23  C   UNL     1       1.269  -1.112   0.536  0.00  0.00    -0.029 A 
ATOM     24  C   UNL     1       1.160  -1.660  -0.727  0.00  0.00    +0.005 A 
ATOM     25  C   UNL     1      -0.087  -1.922  -1.263  0.00  0.00    +0.001 A 
ATOM     26  C   UNL     1      -1.229  -1.635  -0.538  0.00  0.00    +0.005 A 
ATOM     27  C   UNL     1      -1.127  -1.086   0.725  0.00  0.00    -0.029 A 
ATOM     28  C   UNL     1       0.124  -0.828   1.270  0.00  0.00    +0.041 A 
ATOM     29  C   UNL     1      -2.372  -0.773   1.514  0.00  0.00    +0.045 C 
ENDBRANCH  16  28
ENDBRANCH  15  19
ENDBRANCH   1  15
BRANCH   4  30
ATOM     30  S   UNL     1      -1.588   1.790  10.118  0.00  0.00    -0.081 S 
BRANCH  30  31
ATOM     31  C   UNL     1      -0.321   2.339  11.294  0.00  0.00    +0.112 C 
BRANCH  31  32
ATOM     32  C   UNL     1      -0.957   3.208  12.349  0.00  0.00    -0.037 A 
ATOM     33  C   UNL     1      -1.048   4.574  12.155  0.00  0.00    +0.007 A 
ATOM     34  C   UNL     1      -1.632   5.372  13.121  0.00  0.00    +0.038 A 
ATOM     35  C   UNL     1      -2.126   4.802  14.283  0.00  0.00    +0.123 A 
ATOM     36  C   UNL     1      -2.033   3.434  14.476  0.00  0.00    +0.038 A 
ATOM     37  C   UNL     1      -1.454   2.638  13.506  0.00  0.00    +0.007 A 
ATOM     38  F   UNL     1      -2.696   5.581  15.228  0.00  0.00    -0.205 F 
ENDBRANCH  31  32
ENDBRANCH  30  31
ENDBRANCH   4  30
TORSDOF 8
