REMARK  Name = ZINC39684190
REMARK  11 active torsions:
REMARK  status: ('A' for Active; 'I' for Inactive)
REMARK    1  A    between atoms: C_1  and  C_2
REMARK    2  A    between atoms: C_7  and  C_11
REMARK    3  A    between atoms: C_11  and  C_12
REMARK    4  A    between atoms: C_12  and  N_13
REMARK    5  A    between atoms: C_14  and  C_16
REMARK    6  A    between atoms: C_27  and  C_29
REMARK    7  A    between atoms: C_32  and  C_39
REMARK    8  A    between atoms: N_34  and  C_35
REMARK    9  A    between atoms: C_35  and  C_36
REMARK   10  A    between atoms: C_35  and  C_37
REMARK   11  A    between atoms: C_35  and  C_38
REMARK                            x       y       z     vdW  Elec       q    Type
REMARK                         _______ _______ _______ _____ _____    ______ ____
ROOT
ATOM      1  C   UNL     1      -9.494   2.969  -6.776  0.00  0.00    +0.100 C 
ATOM      2  C   UNL     1      -8.597   3.708  -7.795  0.00  0.00    +0.121 C 
ATOM      3  N   UNL     1      -8.029   2.633  -8.642  0.00  0.00    -0.299 N 
ATOM      4  C   UNL     1      -9.149   1.680  -8.829  0.00  0.00    +0.115 C 
ATOM      5  C   UNL     1      -9.857   1.640  -7.460  0.00  0.00    -0.004 C 
ATOM      6  C   UNL     1     -11.367   1.539  -7.649  0.00  0.00    -0.010 C 
ATOM      7  C   UNL     1     -11.709   0.185  -8.277  0.00  0.00    -0.082 C 
ATOM      8  N   UNL     1     -11.231  -0.896  -7.406  0.00  0.00    +0.379 N 
ATOM      9  C   UNL     1      -9.767  -0.847  -7.305  0.00  0.00    -0.082 C 
ATOM     10  C   UNL     1      -9.344   0.464  -6.635  0.00  0.00    -0.010 C 
ATOM     11  C   UNL     1      -6.777   2.542  -9.133  0.00  0.00    +0.238 C 
ATOM     12  O   UNL     1      -6.461   1.592  -9.817  0.00  0.00    -0.273 OA
ATOM     13  H   UNL     1     -11.634  -0.788  -6.487  0.00  0.00    -0.086 HD
ATOM     14  H   UNL     1     -11.511  -1.785  -7.791  0.00  0.00    -0.086 HD
ENDROOT
BRANCH  11  15
ATOM     15  C   UNL     1      -5.769   3.621  -8.831  0.00  0.00    +0.184 C 
ATOM     16  C   UNL     1      -4.942   3.258  -7.580  0.00  0.00    +0.085 C 
ATOM     17  C   UNL     1      -3.525   3.171  -8.099  0.00  0.00    +0.036 C 
ATOM     18  N   UNL     1      -3.507   3.419  -9.344  0.00  0.00    -0.192 NA
ATOM     19  N   UNL     1      -4.758   3.701  -9.898  0.00  0.00    -0.238 N 
ATOM     20  C   UNL     1      -2.315   2.841  -7.263  0.00  0.00    +0.062 C 
BRANCH  19  21
ATOM     21  C   UNL     1      -5.023   4.021 -11.303  0.00  0.00    +0.044 C 
ATOM     22  C   UNL     1      -6.509   4.336 -11.483  0.00  0.00    +0.033 C 
ATOM     23  C   UNL     1      -4.190   5.237 -11.714  0.00  0.00    +0.033 C 
ATOM     24  C   UNL     1      -4.645   2.824 -12.178  0.00  0.00    +0.033 C 
ENDBRANCH  19  21
ENDBRANCH  11  15
BRANCH   1  26
ATOM     25  N   UNL     1      -9.393   2.651  -4.325  0.00  0.00    -0.315 N 
ATOM     26  C   UNL     1      -8.735   2.712  -5.500  0.00  0.00    +0.218 C 
ATOM     27  O   UNL     1      -7.532   2.559  -5.529  0.00  0.00    -0.275 OA
ATOM     28  H   UNL     1     -10.355   2.773  -4.301  0.00  0.00    +0.149 HD
BRANCH  25  29
ATOM     29  C   UNL     1      -8.656   2.401  -3.084  0.00  0.00    +0.109 C 
BRANCH  29  30
ATOM     30  C   UNL     1      -9.632   2.382  -1.906  0.00  0.00    +0.056 C 
BRANCH  30  37
ATOM     31  C   UNL     1      -6.307   2.378   3.411  0.00  0.00    +0.046 C 
ATOM     32  C   UNL     1      -6.918   3.116   2.247  0.00  0.00    -0.027 A 
ATOM     33  C   UNL     1      -6.769   4.481   2.140  0.00  0.00    +0.005 A 
ATOM     34  C   UNL     1      -7.327   5.172   1.073  0.00  0.00    +0.001 A 
ATOM     35  C   UNL     1      -8.034   4.509   0.110  0.00  0.00    +0.010 A 
ATOM     36  C   UNL     1      -8.197   3.126   0.199  0.00  0.00    +0.003 A 
ATOM     37  C   UNL     1      -8.873   2.124  -0.630  0.00  0.00    -0.021 A 
ATOM     38  C   UNL     1      -8.690   0.935  -0.036  0.00  0.00    +0.087 A 
ATOM     39  N   UNL     1      -7.951   1.092   1.105  0.00  0.00    -0.360 N 
ATOM     40  C   UNL     1      -7.629   2.420   1.275  0.00  0.00    +0.050 A 
ATOM     41  H   UNL     1      -7.690   0.374   1.704  0.00  0.00    +0.165 HD
ENDBRANCH  30  37
ENDBRANCH  29  30
ENDBRANCH  25  29
ENDBRANCH   1  26
TORSDOF 6
