REMARK  Name = ZINC20888497
REMARK  9 active torsions:
REMARK  status: ('A' for Active; 'I' for Inactive)
REMARK    1  A    between atoms: C_1  and  C_2
REMARK    2  A    between atoms: C_7  and  N_8
REMARK    3  A    between atoms: C_9  and  C_28
REMARK    4  A    between atoms: C_12  and  S_13
REMARK    5  A    between atoms: S_13  and  C_14
REMARK    6  A    between atoms: C_14  and  C_15
REMARK    7  A    between atoms: N_17  and  C_18
REMARK    8  A    between atoms: C_20  and  N_25
REMARK    9  A    between atoms: C_23  and  C_24
REMARK                            x       y       z     vdW  Elec       q    Type
REMARK                         _______ _______ _______ _____ _____    ______ ____
ROOT
ATOM      1  N   UNL     1      -0.004   1.046   4.091  0.00  0.00    -0.270 N 
ATOM      2  C   UNL     1       1.027   0.320   4.647  0.00  0.00    +0.171 A 
ATOM      3  N   UNL     1       1.734  -0.166   3.652  0.00  0.00    -0.128 NA
ATOM      4  N   UNL     1       1.222   0.195   2.530  0.00  0.00    -0.122 NA
ATOM      5  C   UNL     1       0.158   0.934   2.735  0.00  0.00    +0.197 A 
ENDROOT
BRANCH   2   6
ATOM      6  C   UNL     1       1.290   0.129   6.087  0.00  0.00    +0.045 A 
ATOM      7  C   UNL     1       0.566   0.635   7.118  0.00  0.00    +0.095 A 
ATOM      8  N   UNL     1       1.115   0.240   8.304  0.00  0.00    -0.360 N 
ATOM      9  H   UNL     1       0.654   0.551   9.254  0.00  0.00    +0.165 HD
ATOM     10  C   UNL     1       2.231  -0.536   8.077  0.00  0.00    +0.047 A 
ATOM     11  C   UNL     1       2.394  -0.642   6.685  0.00  0.00    +0.010 A 
ATOM     12  C   UNL     1       3.455  -1.377   6.161  0.00  0.00    +0.011 A 
ATOM     13  C   UNL     1       4.341  -1.998   7.013  0.00  0.00    +0.001 A 
ATOM     14  C   UNL     1       4.182  -1.894   8.387  0.00  0.00    +0.002 A 
ATOM     15  C   UNL     1       3.138  -1.170   8.920  0.00  0.00    +0.026 A 
ENDBRANCH   2   6
BRANCH   1  22
ATOM     16  C   UNL     1       0.476   3.772   4.755  0.00  0.00    +0.046 C 
ATOM     17  C   UNL     1      -0.814   3.081   5.114  0.00  0.00    -0.026 A 
ATOM     18  C   UNL     1      -1.807   3.773   5.779  0.00  0.00    +0.005 A 
ATOM     19  C   UNL     1      -2.989   3.138   6.114  0.00  0.00    +0.000 A 
ATOM     20  C   UNL     1      -3.183   1.811   5.778  0.00  0.00    +0.002 A 
ATOM     21  C   UNL     1      -2.196   1.115   5.108  0.00  0.00    +0.026 A 
ATOM     22  C   UNL     1      -1.008   1.750   4.771  0.00  0.00    +0.053 A 
ENDBRANCH   1  22
BRANCH   5  23
ATOM     23  S   UNL     1      -0.869   1.655   1.497  0.00  0.00    -0.076 S 
BRANCH  23  24
ATOM     24  C   UNL     1      -0.021   1.073   0.008  0.00  0.00    +0.173 C 
BRANCH  24  25
ATOM     25  C   UNL     1      -0.743   1.582  -1.213  0.00  0.00    +0.227 C 
ATOM     26  O   UNL     1      -1.734   2.271  -1.088  0.00  0.00    -0.275 OA
ATOM     27  N   UNL     1      -0.288   1.272  -2.443  0.00  0.00    -0.285 N 
ATOM     28  H   UNL     1       0.659   0.725  -2.558  0.00  0.00    +0.155 HD
BRANCH  27  29
ATOM     29  C   UNL     1      -1.022   1.646  -3.575  0.00  0.00    +0.038 A 
ATOM     30  C   UNL     1      -2.392   1.853  -3.479  0.00  0.00    +0.056 A 
ATOM     31  C   UNL     1      -3.112   2.226  -4.597  0.00  0.00    +0.128 A 
ATOM     32  C   UNL     1      -2.471   2.385  -5.813  0.00  0.00    +0.033 A 
ATOM     33  C   UNL     1      -1.108   2.176  -5.912  0.00  0.00    +0.007 A 
ATOM     34  C   UNL     1      -0.382   1.807  -4.796  0.00  0.00    -0.029 A 
ATOM     35  C   UNL     1       1.104   1.579  -4.905  0.00  0.00    +0.045 C 
BRANCH  31  36
ATOM     36  N   UNL     1      -4.571   2.450  -4.495  0.00  0.00    +0.056 N 
ATOM     37  O   UNL     1      -5.208   2.775  -5.482  0.00  0.00    -0.126 OA
ATOM     38  O   UNL     1      -5.136   2.310  -3.425  0.00  0.00    -0.126 OA
ENDBRANCH  31  36
ENDBRANCH  27  29
ENDBRANCH  24  25
ENDBRANCH  23  24
ENDBRANCH   5  23
TORSDOF 7
