REMARK  Name = ZINC64890715
REMARK  11 active torsions:
REMARK  status: ('A' for Active; 'I' for Inactive)
REMARK    1  A    between atoms: C_1  and  C_2
REMARK    2  A    between atoms: C_2  and  C_3
REMARK    3  A    between atoms: C_2  and  C_4
REMARK    4  A    between atoms: C_4  and  C_6
REMARK    5  A    between atoms: C_4  and  N_28
REMARK    6  A    between atoms: C_9  and  C_12
REMARK    7  A    between atoms: N_24  and  C_25
REMARK    8  A    between atoms: C_25  and  C_26
REMARK    9  A    between atoms: C_25  and  C_27
REMARK   10  A    between atoms: N_28  and  S_29
REMARK   11  A    between atoms: S_29  and  C_32
REMARK                            x       y       z     vdW  Elec       q    Type
REMARK                         _______ _______ _______ _____ _____    ______ ____
ROOT
ATOM      1  C   UNL     1      -1.417  -1.026   1.141  0.00  0.00    +0.262 C 
ATOM      2  N   UNL     1      -2.804  -1.448   1.374  0.00  0.00    -0.341 N 
ATOM      3  C   UNL     1      -3.124  -2.334   0.481  0.00  0.00    +0.134 C 
ATOM      4  N   UNL     1      -2.080  -2.584  -0.374  0.00  0.00    -0.247 N 
ATOM      5  O   UNL     1      -0.972  -1.780   0.003  0.00  0.00    -0.246 OA
ATOM      6  H   UNL     1      -2.096  -3.210  -1.115  0.00  0.00    +0.196 HD
ATOM      7  H   UNL     1      -3.384  -1.119   2.078  0.00  0.00    +0.164 HD
ENDROOT
BRANCH   3   8
ATOM      8  C   UNL     1      -4.447  -2.991   0.398  0.00  0.00    +0.019 A 
ATOM      9  C   UNL     1      -5.594  -2.312   0.817  0.00  0.00    +0.013 A 
ATOM     10  C   UNL     1      -6.825  -2.921   0.739  0.00  0.00    +0.028 A 
ATOM     11  C   UNL     1      -6.935  -4.218   0.243  0.00  0.00    +0.069 A 
ATOM     12  C   UNL     1      -5.792  -4.903  -0.178  0.00  0.00    +0.067 A 
ATOM     13  C   UNL     1      -4.551  -4.286  -0.105  0.00  0.00    +0.039 A 
ATOM     14  N   UNL     1      -5.887  -6.200  -0.677  0.00  0.00    -0.316 N 
ATOM     15  H   UNL     1      -5.088  -6.668  -0.966  0.00  0.00    +0.169 HD
ATOM     16  C   UNL     1      -7.088  -6.807  -0.757  0.00  0.00    +0.314 A 
ATOM     17  O   UNL     1      -7.177  -7.938  -1.190  0.00  0.00    -0.262 OA
ATOM     18  C   UNL     1      -8.307  -6.074  -0.308  0.00  0.00    +0.317 A 
ATOM     19  O   UNL     1      -9.399  -6.603  -0.372  0.00  0.00    -0.262 OA
ATOM     20  N   UNL     1      -8.186  -4.820   0.171  0.00  0.00    -0.300 N 
BRANCH  20  21
ATOM     21  C   UNL     1      -9.375  -4.089   0.616  0.00  0.00    +0.085 C 
ATOM     22  C   UNL     1     -10.359  -3.959  -0.548  0.00  0.00    +0.030 C 
ATOM     23  C   UNL     1     -10.040  -4.850   1.764  0.00  0.00    +0.030 C 
ENDBRANCH  20  21
ENDBRANCH   3   8
BRANCH   1  24
ATOM     24  C   UNL     1      -1.362   0.472   0.838  0.00  0.00    +0.131 C 
BRANCH  24  26
ATOM     25  C   UNL     1       0.127   2.358   0.152  0.00  0.00    +0.009 C 
ATOM     26  C   UNL     1       0.086   0.886   0.568  0.00  0.00    +0.006 C 
ATOM     27  C   UNL     1       0.916   0.692   1.839  0.00  0.00    +0.009 C 
ENDBRANCH  24  26
BRANCH  24  28
ATOM     28  N   UNL     1      -2.181   0.762  -0.342  0.00  0.00    -0.182 NA
ATOM     29  H   UNL     1      -1.922   0.413  -1.209  0.00  0.00    +0.148 HD
BRANCH  28  30
ATOM     30  S   UNL     1      -3.547   1.686  -0.195  0.00  0.00    +0.059 S 
ATOM     31  O   UNL     1      -4.076   1.841  -1.505  0.00  0.00    -0.153 OA
ATOM     32  O   UNL     1      -4.303   1.126   0.870  0.00  0.00    -0.153 OA
BRANCH  30  33
ATOM     33  C   UNL     1      -3.039   3.288   0.335  0.00  0.00    +0.105 A 
ATOM     34  C   UNL     1      -2.990   3.586   1.684  0.00  0.00    +0.028 A 
ATOM     35  C   UNL     1      -2.591   4.842   2.100  0.00  0.00    +0.002 A 
ATOM     36  C   UNL     1      -2.241   5.800   1.167  0.00  0.00    +0.000 A 
ATOM     37  C   UNL     1      -2.290   5.502  -0.182  0.00  0.00    +0.002 A 
ATOM     38  C   UNL     1      -2.685   4.244  -0.598  0.00  0.00    +0.028 A 
ENDBRANCH  30  33
ENDBRANCH  28  30
ENDBRANCH  24  28
ENDBRANCH   1  24
TORSDOF 7
