REMARK  Name = ZINC13477009
REMARK  4 active torsions:
REMARK  status: ('A' for Active; 'I' for Inactive)
REMARK    1  A    between atoms: C_4  and  N_7
REMARK    2  A    between atoms: C_11  and  C_12
REMARK    3  A    between atoms: C_15  and  C_17
REMARK    4  A    between atoms: C_20  and  C_23
REMARK                            x       y       z     vdW  Elec       q    Type
REMARK                         _______ _______ _______ _____ _____    ______ ____
ROOT
ATOM      1  N   UNL     1       6.493   8.986   0.222  0.00  0.00    -0.197 N 
ATOM      2  C   UNL     1       5.421   9.066  -0.549  0.00  0.00    +0.265 C 
ATOM      3  O   UNL     1       5.068   8.135  -1.249  0.00  0.00    -0.269 OA
ATOM      4  C   UNL     1       4.677  10.337  -0.519  0.00  0.00    +0.083 C 
ATOM      5  C   UNL     1       3.551  10.701  -1.198  0.00  0.00    +0.066 C 
ATOM      6  S   UNL     1       5.659  11.273   0.645  0.00  0.00    -0.025 S 
ATOM      7  C   UNL     1       6.882  10.020   0.996  0.00  0.00    +0.290 C 
ATOM      8  O   UNL     1       7.837  10.085   1.746  0.00  0.00    -0.262 OA
ENDROOT
BRANCH   1  12
ATOM      9  C   UNL     1       8.719   5.462   0.261  0.00  0.00    +0.000 A 
ATOM     10  C   UNL     1       9.001   6.446  -0.669  0.00  0.00    +0.002 A 
ATOM     11  C   UNL     1       8.265   7.615  -0.685  0.00  0.00    +0.024 A 
ATOM     12  C   UNL     1       7.241   7.801   0.234  0.00  0.00    +0.045 A 
ATOM     13  C   UNL     1       6.965   6.814   1.171  0.00  0.00    +0.024 A 
ATOM     14  C   UNL     1       7.701   5.645   1.178  0.00  0.00    +0.002 A 
ENDBRANCH   1  12
BRANCH   5  15
ATOM     15  C   UNL     1       2.838   9.742  -1.950  0.00  0.00    +0.130 A 
ATOM     16  C   UNL     1       1.777  10.002  -2.798  0.00  0.00    +0.050 A 
ATOM     17  C   UNL     1       1.376   8.775  -3.332  0.00  0.00    +0.050 A 
ATOM     18  C   UNL     1       2.202   7.813  -2.795  0.00  0.00    +0.136 A 
ATOM     19  O   UNL     1       3.072   8.414  -1.962  0.00  0.00    -0.455 OA
BRANCH  18  20
ATOM     20  C   UNL     1       2.140   6.368  -3.079  0.00  0.00    +0.017 A 
ATOM     21  C   UNL     1       3.043   5.495  -2.463  0.00  0.00    +0.012 A 
ATOM     22  C   UNL     1       2.985   4.156  -2.728  0.00  0.00    +0.016 A 
ATOM     23  C   UNL     1       2.024   3.658  -3.613  0.00  0.00    +0.063 A 
ATOM     24  C   UNL     1       1.125   4.532  -4.233  0.00  0.00    +0.016 A 
ATOM     25  C   UNL     1       1.179   5.870  -3.965  0.00  0.00    +0.012 A 
BRANCH  23  26
ATOM     26  C   UNL     1       1.963   2.212  -3.899  0.00  0.00    +0.387 C 
ATOM     27  O   UNL     1       2.747   1.454  -3.365  0.00  0.00    -0.241 OA
ATOM     28  O   UNL     1       1.036   1.733  -4.752  0.00  0.00    -0.241 OA
ENDBRANCH  23  26
ENDBRANCH  18  20
ENDBRANCH   5  15
TORSDOF 4
