REMARK  Name = ZINC04528827
REMARK  9 active torsions:
REMARK  status: ('A' for Active; 'I' for Inactive)
REMARK    1  A    between atoms: C_1  and  C_2
REMARK    2  A    between atoms: C_2  and  N_3
REMARK    3  A    between atoms: C_8  and  S_16
REMARK    4  A    between atoms: N_13  and  C_14
REMARK    5  A    between atoms: C_14  and  C_15
REMARK    6  A    between atoms: S_16  and  C_17
REMARK    7  A    between atoms: C_17  and  C_19
REMARK    8  A    between atoms: C_17  and  C_20
REMARK    9  A    between atoms: C_20  and  C_22
REMARK                            x       y       z     vdW  Elec       q    Type
REMARK                         _______ _______ _______ _____ _____    ______ ____
ROOT
ATOM      1  N   UNL     1      -0.698   1.558   1.213  0.00  0.00    -0.315 N 
ATOM      2  C   UNL     1      -0.211   1.225   2.460  0.00  0.00    +0.199 A 
ATOM      3  N   UNL     1       0.877   0.477   2.554  0.00  0.00    -0.179 NA
ATOM      4  C   UNL     1       1.363   0.146   3.757  0.00  0.00    +0.259 A 
ATOM      5  N   UNL     1       2.405  -0.570   4.153  0.00  0.00    -0.183 NA
ATOM      6  C   UNL     1       2.450  -0.598   5.487  0.00  0.00    +0.212 A 
ATOM      7  N   UNL     1       1.443   0.095   5.973  0.00  0.00    -0.134 NA
ATOM      8  N   UNL     1       0.720   0.589   4.882  0.00  0.00    -0.166 N 
ATOM      9  C   UNL     1      -0.399   1.358   4.757  0.00  0.00    +0.200 A 
ATOM     10  N   UNL     1      -0.842   1.666   3.551  0.00  0.00    -0.300 N 
ATOM     11  N   UNL     1      -1.055   1.811   5.872  0.00  0.00    -0.315 N 
ATOM     12  H   UNL     1      -1.602   2.179   1.124  0.00  0.00    +0.149 HD
ATOM     13  H   UNL     1      -0.679   1.555   6.873  0.00  0.00    +0.149 HD
ATOM     14  H   UNL     1      -1.740   2.294   3.451  0.00  0.00    +0.171 HD
ENDROOT
BRANCH   1  16
ATOM     15  C   UNL     1      -0.753   1.593  -1.232  0.00  0.00    +0.024 C 
ATOM     16  C   UNL     1      -0.013   1.086   0.008  0.00  0.00    +0.101 C 
ENDBRANCH   1  16
BRANCH  11  17
ATOM     17  C   UNL     1      -2.257   2.636   5.729  0.00  0.00    +0.101 C 
ATOM     18  C   UNL     1      -2.789   3.005   7.115  0.00  0.00    +0.024 C 
ENDBRANCH  11  17
BRANCH   6  19
ATOM     19  S   UNL     1       3.669  -1.433   6.447  0.00  0.00    -0.073 S 
BRANCH  19  20
ATOM     20  C   UNL     1       4.762  -2.186   5.210  0.00  0.00    +0.122 C 
ATOM     21  C   UNL     1       5.466  -1.085   4.414  0.00  0.00    +0.028 C 
BRANCH  20  22
ATOM     22  C   UNL     1       5.791  -3.042   5.903  0.00  0.00    +0.176 C 
ATOM     23  O   UNL     1       6.098  -2.808   7.052  0.00  0.00    -0.291 OA
BRANCH  22  24
ATOM     24  C   UNL     1       6.422  -4.160   5.185  0.00  0.00    +0.019 A 
ATOM     25  C   UNL     1       6.065  -4.436   3.861  0.00  0.00    +0.012 A 
ATOM     26  C   UNL     1       6.664  -5.482   3.193  0.00  0.00    +0.016 A 
ATOM     27  C   UNL     1       7.610  -6.266   3.833  0.00  0.00    +0.018 A 
ATOM     28  C   UNL     1       7.964  -6.002   5.146  0.00  0.00    +0.016 A 
ATOM     29  C   UNL     1       7.377  -4.956   5.825  0.00  0.00    +0.012 A 
ATOM     30 BR   UNL     1       8.421  -7.703   2.910  0.00  0.00    -0.050 Br
ENDBRANCH  22  24
ENDBRANCH  20  22
ENDBRANCH  19  20
ENDBRANCH   6  19
TORSDOF 6
