REMARK  Name = ZINC13128859
REMARK  8 active torsions:
REMARK  status: ('A' for Active; 'I' for Inactive)
REMARK    1  A    between atoms: C_4  and  N_17
REMARK    2  A    between atoms: C_5  and  C_7
REMARK    3  A    between atoms: N_9  and  C_10
REMARK    4  A    between atoms: C_18  and  C_20
REMARK    5  A    between atoms: C_20  and  S_21
REMARK    6  A    between atoms: S_21  and  C_22
REMARK    7  A    between atoms: N_27  and  C_28
REMARK    8  A    between atoms: C_28  and  C_29
REMARK                            x       y       z     vdW  Elec       q    Type
REMARK                         _______ _______ _______ _____ _____    ______ ____
ROOT
ATOM      1  N   UNL     1      -5.282  -0.328   0.009  0.00  0.00    -0.284 N 
ATOM      2  C   UNL     1      -4.058  -0.890  -0.013  0.00  0.00    +0.227 C 
ATOM      3  O   UNL     1      -3.945  -2.097   0.007  0.00  0.00    -0.275 OA
ATOM      4  H   UNL     1      -5.372   0.636   0.076  0.00  0.00    +0.155 HD
ENDROOT
BRANCH   1   8
ATOM      5  C   UNL     1      -8.684  -2.731  -0.206  0.00  0.00    +0.001 A 
ATOM      6  C   UNL     1      -7.481  -3.173  -0.733  0.00  0.00    +0.002 A 
ATOM      7  C   UNL     1      -6.354  -2.380  -0.664  0.00  0.00    +0.024 A 
ATOM      8  C   UNL     1      -6.419  -1.130  -0.062  0.00  0.00    +0.046 A 
ATOM      9  C   UNL     1      -7.633  -0.681   0.478  0.00  0.00    +0.058 A 
ATOM     10  C   UNL     1      -8.767  -1.494   0.395  0.00  0.00    +0.015 A 
BRANCH   9  11
ATOM     11  C   UNL     1      -7.714   0.642   1.124  0.00  0.00    +0.250 C 
ATOM     12  O   UNL     1      -6.752   1.385   1.112  0.00  0.00    -0.270 OA
ATOM     13  N   UNL     1      -8.855   1.028   1.729  0.00  0.00    -0.281 N 
ATOM     14  H   UNL     1      -9.648   0.472   1.669  0.00  0.00    +0.155 HD
BRANCH  13  15
ATOM     15  C   UNL     1      -8.896   2.230   2.444  0.00  0.00    +0.034 A 
ATOM     16  C   UNL     1      -7.733   2.750   2.997  0.00  0.00    +0.026 A 
ATOM     17  C   UNL     1      -7.775   3.939   3.698  0.00  0.00    +0.040 A 
ATOM     18  C   UNL     1      -8.977   4.607   3.859  0.00  0.00    +0.124 A 
ATOM     19  C   UNL     1     -10.139   4.088   3.314  0.00  0.00    +0.040 A 
ATOM     20  C   UNL     1     -10.101   2.901   2.607  0.00  0.00    +0.026 A 
ATOM     21  F   UNL     1      -9.017   5.768   4.550  0.00  0.00    -0.205 F 
ENDBRANCH  13  15
ENDBRANCH   9  11
ENDBRANCH   1   8
BRANCH   2  22
ATOM     22  C   UNL     1      -2.829  -0.019  -0.065  0.00  0.00    +0.172 C 
BRANCH  22  23
ATOM     23  S   UNL     1      -1.347  -1.065  -0.086  0.00  0.00    -0.088 S 
BRANCH  23  24
ATOM     24  C   UNL     1      -0.014   0.086  -0.146  0.00  0.00    +0.160 A 
ATOM     25  N   UNL     1      -0.049   1.405  -0.172  0.00  0.00    -0.133 NA
ATOM     26  N   UNL     1       1.126   2.119  -0.219  0.00  0.00    -0.125 NA
ATOM     27  C   UNL     1       2.281   1.483  -0.238  0.00  0.00    +0.182 A 
ATOM     28  S   UNL     1       1.745  -0.220  -0.189  0.00  0.00    -0.025 S 
ATOM     29  N   UNL     1       3.570   2.000  -0.283  0.00  0.00    -0.320 N 
ATOM     30  H   UNL     1       4.333   1.401  -0.292  0.00  0.00    +0.148 HD
BRANCH  29  31
ATOM     31  C   UNL     1       3.778   3.450  -0.319  0.00  0.00    +0.135 C 
BRANCH  31  32
ATOM     32  C   UNL     1       5.277   3.750  -0.365  0.00  0.00    +0.135 C 
ATOM     33  C   UNL     1       5.524   5.272  -0.277  0.00  0.00    +0.035 C 
ATOM     34  C   UNL     1       6.722   5.513  -1.223  0.00  0.00    +0.031 C 
ATOM     35  C   UNL     1       7.057   4.109  -1.770  0.00  0.00    +0.160 C 
ATOM     36  O   UNL     1       5.829   3.360  -1.642  0.00  0.00    -0.375 OA
ENDBRANCH  31  32
ENDBRANCH  29  31
ENDBRANCH  23  24
ENDBRANCH  22  23
ENDBRANCH   2  22
TORSDOF 8
