REMARK  Name = ZINC24809616
REMARK  11 active torsions:
REMARK  status: ('A' for Active; 'I' for Inactive)
REMARK    1  A    between atoms: C_1  and  C_2
REMARK    2  A    between atoms: C_2  and  C_26
REMARK    3  A    between atoms: N_5  and  N_9
REMARK    4  A    between atoms: C_10  and  C_12
REMARK    5  A    between atoms: C_12  and  N_13
REMARK    6  A    between atoms: N_13  and  C_14
REMARK    7  A    between atoms: N_13  and  C_20
REMARK    8  A    between atoms: C_14  and  C_15
REMARK    9  A    between atoms: C_20  and  C_21
REMARK   10  A    between atoms: C_26  and  C_27
REMARK   11  A    between atoms: C_27  and  C_28
REMARK                            x       y       z     vdW  Elec       q    Type
REMARK                         _______ _______ _______ _____ _____    ______ ____
ROOT
ATOM      1  N   UNL     1       3.390   0.117  -0.514  0.00  0.00    -0.225 N 
ATOM      2  C   UNL     1       4.077   0.705  -1.513  0.00  0.00    +0.213 C 
ATOM      3  O   UNL     1       3.521   0.964  -2.560  0.00  0.00    -0.276 OA
ATOM      4  H   UNL     1       3.894  -0.118   0.436  0.00  0.00    +0.173 HD
ENDROOT
BRANCH   1   9
ATOM      5  C   UNL     1      -0.415  -1.758  -2.394  0.00  0.00    +0.041 C 
ATOM      6  C   UNL     1       0.062  -1.296  -1.016  0.00  0.00    +0.112 C 
ATOM      7  C   UNL     1       1.565  -1.441  -0.891  0.00  0.00    +0.263 C 
ATOM      8  O   UNL     1       2.211  -2.464  -0.965  0.00  0.00    -0.271 OA
ATOM      9  N   UNL     1       2.035  -0.195  -0.683  0.00  0.00    -0.137 N 
ATOM     10  C   UNL     1       1.048   0.707  -0.659  0.00  0.00    +0.326 C 
ATOM     11  O   UNL     1       1.224   1.897  -0.486  0.00  0.00    -0.251 OA
ATOM     12  N   UNL     1      -0.162   0.150  -0.847  0.00  0.00    -0.284 N 
ATOM     13  H   UNL     1      -1.183   0.557  -0.891  0.00  0.00    +0.151 HD
BRANCH   6  14
ATOM     14  C   UNL     1      -0.648  -2.083   0.088  0.00  0.00    +0.040 C 
BRANCH  14  15
ATOM     15  C   UNL     1      -2.155  -1.832   0.005  0.00  0.00    +0.038 C 
BRANCH  15  16
ATOM     16  C   UNL     1      -2.854  -2.607   1.093  0.00  0.00    -0.047 A 
ATOM     17  C   UNL     1      -3.294  -3.895   0.850  0.00  0.00    +0.003 A 
ATOM     18  C   UNL     1      -3.931  -4.607   1.849  0.00  0.00    +0.000 A 
ATOM     19  C   UNL     1      -4.136  -4.028   3.088  0.00  0.00    +0.000 A 
ATOM     20  C   UNL     1      -3.700  -2.739   3.329  0.00  0.00    +0.000 A 
ATOM     21  C   UNL     1      -3.059  -2.028   2.331  0.00  0.00    +0.003 A 
ENDBRANCH  15  16
ENDBRANCH  14  15
ENDBRANCH   6  14
ENDBRANCH   1   9
BRANCH   2  22
ATOM     22  C   UNL     1       5.535   1.041  -1.331  0.00  0.00    +0.021 C 
BRANCH  22  23
ATOM     23  N   UNL     1       6.049   1.669  -2.555  0.00  0.00    +0.395 N 
ATOM     24  H   UNL     1       5.793   1.017  -3.403  0.00  0.00    -0.080 HD
BRANCH  23  25
ATOM     25  C   UNL     1       5.416   2.975  -2.782  0.00  0.00    -0.002 C 
BRANCH  25  26
ATOM     26  C   UNL     1       5.641   3.858  -1.582  0.00  0.00    +0.089 A 
ATOM     27  C   UNL     1       6.627   4.762  -1.445  0.00  0.00    +0.042 A 
ATOM     28  C   UNL     1       6.459   5.362  -0.175  0.00  0.00    +0.041 A 
ATOM     29  C   UNL     1       5.385   4.782   0.391  0.00  0.00    +0.195 A 
ATOM     30  O   UNL     1       4.894   3.872  -0.466  0.00  0.00    -0.470 OA
ENDBRANCH  25  26
ENDBRANCH  23  25
BRANCH  23  31
ATOM     31  C   UNL     1       7.512   1.795  -2.507  0.00  0.00    -0.002 C 
BRANCH  31  32
ATOM     32  C   UNL     1       8.037   2.077  -3.891  0.00  0.00    +0.089 A 
ATOM     33  C   UNL     1       8.314   3.293  -4.395  0.00  0.00    +0.042 A 
ATOM     34  C   UNL     1       8.782   3.093  -5.714  0.00  0.00    +0.041 A 
ATOM     35  C   UNL     1       8.755   1.767  -5.941  0.00  0.00    +0.195 A 
ATOM     36  O   UNL     1       8.303   1.157  -4.833  0.00  0.00    -0.470 OA
ENDBRANCH  31  32
ENDBRANCH  23  31
ENDBRANCH  22  23
ENDBRANCH   2  22
TORSDOF 10
