REMARK  Name = ZINC02265589
REMARK  6 active torsions:
REMARK  status: ('A' for Active; 'I' for Inactive)
REMARK    1  A    between atoms: C_1  and  C_2
REMARK    2  A    between atoms: C_5  and  C_8
REMARK    3  A    between atoms: C_9  and  C_19
REMARK    4  A    between atoms: N_21  and  N_22
REMARK    5  A    between atoms: C_23  and  C_24
REMARK    6  A    between atoms: C_29  and  C_30
REMARK                            x       y       z     vdW  Elec       q    Type
REMARK                         _______ _______ _______ _____ _____    ______ ____
ROOT
ATOM      1  C   UNL     1       4.951   9.448  -0.000  0.00  0.00    +0.109 A 
ATOM      2  C   UNL     1       4.831   8.062  -0.001  0.00  0.00    +0.177 A 
ATOM      3  N   UNL     1       6.067   7.537  -0.015  0.00  0.00    -0.124 NA
ATOM      4  N   UNL     1       6.946   8.475  -0.018  0.00  0.00    -0.058 NA
ATOM      5  N   UNL     1       6.291   9.714  -0.006  0.00  0.00    -0.187 N 
ATOM      6  C   UNL     1       6.891  10.977  -0.006  0.00  0.00    +0.241 A 
ATOM      7  C   UNL     1       8.333  11.241  -0.018  0.00  0.00    +0.206 A 
ATOM      8  N   UNL     1       8.513  12.533  -0.015  0.00  0.00    -0.032 NA
ATOM      9  O   UNL     1       7.237  13.149  -0.001  0.00  0.00    -0.239 OA
ATOM     10  N   UNL     1       6.264  12.119  -0.000  0.00  0.00    -0.027 NA
ATOM     11  N   UNL     1       9.337  10.279  -0.031  0.00  0.00    -0.337 N 
ATOM     12  H   UNL     1       9.106   9.337  -0.032  0.00  0.00    +0.144 HD
ATOM     13  H   UNL     1      10.268  10.550  -0.039  0.00  0.00    +0.144 HD
ENDROOT
BRANCH   1  18
ATOM     14  C   UNL     1       0.664  13.285   0.032  0.00  0.00    +0.044 C 
ATOM     15  C   UNL     1       1.787  12.280   0.023  0.00  0.00    -0.050 A 
ATOM     16  C   UNL     1       1.728  11.189  -0.826  0.00  0.00    +0.004 A 
ATOM     17  C   UNL     1       2.752  10.265  -0.838  0.00  0.00    +0.010 A 
ATOM     18  C   UNL     1       3.850  10.433   0.008  0.00  0.00    +0.003 A 
ATOM     19  C   UNL     1       3.901  11.533   0.866  0.00  0.00    +0.010 A 
ATOM     20  C   UNL     1       2.872  12.453   0.864  0.00  0.00    +0.004 A 
ENDBRANCH   1  18
BRANCH   2  21
ATOM     21  C   UNL     1       3.570   7.304   0.007  0.00  0.00    +0.286 C 
ATOM     22  O   UNL     1       2.506   7.893   0.019  0.00  0.00    -0.267 OA
ATOM     23  N   UNL     1       3.594   5.956  -0.000  0.00  0.00    -0.202 N 
ATOM     24  H   UNL     1       4.442   5.486  -0.010  0.00  0.00    +0.178 HD
BRANCH  23  25
ATOM     25  N   UNL     1       2.393   5.234   0.007  0.00  0.00    -0.187 NA
ATOM     26  C   UNL     1       2.416   3.937   0.000  0.00  0.00    +0.138 C 
BRANCH  26  27
ATOM     27  C   UNL     1       1.152   3.177   0.008  0.00  0.00    +0.006 A 
ATOM     28  C   UNL     1       1.173   1.780   0.000  0.00  0.00    +0.010 A 
ATOM     29  C   UNL     1      -0.013   1.076   0.008  0.00  0.00    +0.001 A 
ATOM     30  C   UNL     1      -1.221   1.750   0.017  0.00  0.00    +0.001 A 
ATOM     31  C   UNL     1      -1.250   3.133   0.030  0.00  0.00    +0.013 A 
ATOM     32  C   UNL     1      -0.071   3.850   0.022  0.00  0.00    +0.063 A 
BRANCH  32  33
ATOM     33  C   UNL     1      -0.104   5.357   0.031  0.00  0.00    +0.418 C 
ATOM     34  F   UNL     1      -1.433   5.794   0.045  0.00  0.00    -0.166 F 
ATOM     35  F   UNL     1       0.555   5.831   1.170  0.00  0.00    -0.166 F 
ATOM     36  F   UNL     1       0.534   5.844  -1.115  0.00  0.00    -0.166 F 
ENDBRANCH  32  33
ENDBRANCH  26  27
ENDBRANCH  23  25
ENDBRANCH   2  21
TORSDOF 5
