REMARK  Name = ZINC53790488
REMARK  7 active torsions:
REMARK  status: ('A' for Active; 'I' for Inactive)
REMARK    1  A    between atoms: C_1  and  C_2
REMARK    2  A    between atoms: C_2  and  C_3
REMARK    3  A    between atoms: C_2  and  C_4
REMARK    4  A    between atoms: C_4  and  C_5
REMARK    5  A    between atoms: C_5  and  C_7
REMARK    6  A    between atoms: C_5  and  N_17
REMARK    7  A    between atoms: C_18  and  C_20
REMARK                            x       y       z     vdW  Elec       q    Type
REMARK                         _______ _______ _______ _____ _____    ______ ____
ROOT
ATOM      1  N   UNL     1      -1.329  -0.822   2.501  0.00  0.00    -0.301 N 
ATOM      2  C   UNL     1      -2.382  -0.298   1.842  0.00  0.00    +0.250 C 
ATOM      3  O   UNL     1      -2.289   0.796   1.320  0.00  0.00    -0.270 OA
ATOM      4  H   UNL     1      -1.426  -1.657   2.984  0.00  0.00    +0.150 HD
ENDROOT
BRANCH   2   5
ATOM      5  C   UNL     1      -3.644  -1.050   1.755  0.00  0.00    +0.100 A 
ATOM      6  C   UNL     1      -4.693  -0.574   0.997  0.00  0.00    +0.100 A 
ATOM      7  N   UNL     1      -5.856  -1.231   0.894  0.00  0.00    -0.360 N 
ATOM      8  H   UNL     1      -6.559  -0.848   0.347  0.00  0.00    +0.165 HD
ATOM      9  C   UNL     1      -6.095  -2.428   1.533  0.00  0.00    +0.050 A 
ATOM     10  C   UNL     1      -7.322  -3.072   1.393  0.00  0.00    +0.026 A 
ATOM     11  C   UNL     1      -7.550  -4.268   2.037  0.00  0.00    +0.002 A 
ATOM     12  C   UNL     1      -6.567  -4.845   2.829  0.00  0.00    +0.001 A 
ATOM     13  C   UNL     1      -5.346  -4.226   2.982  0.00  0.00    +0.014 A 
ATOM     14  C   UNL     1      -5.102  -3.015   2.336  0.00  0.00    +0.046 A 
ATOM     15  C   UNL     1      -3.805  -2.325   2.471  0.00  0.00    +0.201 A 
ATOM     16  O   UNL     1      -2.907  -2.791   3.150  0.00  0.00    -0.286 OA
ENDBRANCH   2   5
BRANCH   1  17
ATOM     17  C   UNL     1      -0.038  -0.130   2.487  0.00  0.00    +0.139 C 
BRANCH  17  18
ATOM     18  C   UNL     1       0.753  -0.518   3.709  0.00  0.00    +0.129 A 
ATOM     19  N   UNL     1       1.103   0.331   4.713  0.00  0.00    -0.340 N 
ATOM     20  H   UNL     1       0.890   1.276   4.768  0.00  0.00    +0.167 HD
ATOM     21  C   UNL     1       1.816  -0.402   5.641  0.00  0.00    +0.066 A 
ATOM     22  C   UNL     1       2.423  -0.099   6.852  0.00  0.00    +0.028 A 
ATOM     23  C   UNL     1       3.076  -1.089   7.555  0.00  0.00    +0.002 A 
ATOM     24  C   UNL     1       3.130  -2.385   7.059  0.00  0.00    +0.002 A 
ATOM     25  C   UNL     1       2.538  -2.701   5.869  0.00  0.00    +0.030 A 
ATOM     26  C   UNL     1       1.871  -1.713   5.140  0.00  0.00    +0.089 A 
ATOM     27  N   UNL     1       1.197  -1.715   3.961  0.00  0.00    -0.231 NA
ENDBRANCH  17  18
BRANCH  17  28
ATOM     28  C   UNL     1       0.739  -0.525   1.229  0.00  0.00    +0.033 C 
BRANCH  28  30
ATOM     29  C   UNL     1      -0.020   1.510  -0.007  0.00  0.00    +0.007 C 
ATOM     30  C   UNL     1      -0.005  -0.020  -0.009  0.00  0.00    -0.015 C 
ATOM     31  C   UNL     1       0.705  -0.521  -1.269  0.00  0.00    +0.007 C 
ENDBRANCH  28  30
ENDBRANCH  17  28
ENDBRANCH   1  17
TORSDOF 5
