REMARK  Name = ZINC67350953
REMARK  6 active torsions:
REMARK  status: ('A' for Active; 'I' for Inactive)
REMARK    1  A    between atoms: C_1  and  C_2
REMARK    2  A    between atoms: C_2  and  C_28
REMARK    3  A    between atoms: N_7  and  C_8
REMARK    4  A    between atoms: C_11  and  C_15
REMARK    5  A    between atoms: C_15  and  C_17
REMARK    6  A    between atoms: C_15  and  C_19
REMARK                            x       y       z     vdW  Elec       q    Type
REMARK                         _______ _______ _______ _____ _____    ______ ____
ROOT
ATOM      1  C   UNL     1       1.784  -0.030   2.110  0.00  0.00    +0.040 A 
ATOM      2  C   UNL     1       1.891   1.321   1.802  0.00  0.00    +0.024 A 
ATOM      3  C   UNL     1       2.733   2.131   2.537  0.00  0.00    +0.008 A 
ATOM      4  C   UNL     1       3.471   1.600   3.579  0.00  0.00    -0.008 A 
ATOM      5  C   UNL     1       3.368   0.256   3.889  0.00  0.00    +0.047 A 
ATOM      6  C   UNL     1       2.522  -0.559   3.161  0.00  0.00    +0.044 A 
ATOM      7 CL   UNL     1       4.297  -0.407   5.197  0.00  0.00    -0.083 Cl
ENDROOT
BRANCH   1  14
ATOM      8  C   UNL     1       2.920  -1.566   0.117  0.00  0.00    +0.056 C 
ATOM      9  C   UNL     1       1.465  -1.887   0.466  0.00  0.00    +0.109 C 
ATOM     10  N   UNL     1       0.653  -1.896  -0.756  0.00  0.00    -0.337 N 
ATOM     11  C   UNL     1      -0.593  -1.505  -0.725  0.00  0.00    +0.191 C 
ATOM     12  N   UNL     1      -1.166  -1.042   0.400  0.00  0.00    -0.187 NA
ATOM     13  C   UNL     1      -0.435  -0.724   1.452  0.00  0.00    +0.189 C 
ATOM     14  N   UNL     1       0.932  -0.853   1.367  0.00  0.00    -0.250 N 
ATOM     15  N   UNL     1      -1.024  -0.278   2.603  0.00  0.00    -0.331 N 
ATOM     16  N   UNL     1      -1.344  -1.569  -1.881  0.00  0.00    -0.329 N 
ATOM     17  C   UNL     1       1.387  -3.254   1.148  0.00  0.00    +0.056 C 
ATOM     18  H   UNL     1      -1.992  -0.256   2.675  0.00  0.00    +0.145 HD
ATOM     19  H   UNL     1      -0.475   0.017   3.346  0.00  0.00    +0.145 HD
ATOM     20  H   UNL     1      -0.945  -1.900  -2.701  0.00  0.00    +0.145 HD
ATOM     21  H   UNL     1      -2.271  -1.282  -1.874  0.00  0.00    +0.145 HD
ATOM     22  H   UNL     1       1.044  -2.194  -1.592  0.00  0.00    +0.164 HD
ENDBRANCH   1  14
BRANCH   4  23
ATOM     23  C   UNL     1       4.390   2.488   4.378  0.00  0.00    +0.153 C 
BRANCH  23  24
ATOM     24  C   UNL     1       5.497   2.996   3.490  0.00  0.00    -0.026 A 
ATOM     25  C   UNL     1       5.215   3.903   2.486  0.00  0.00    +0.006 A 
ATOM     26  C   UNL     1       6.229   4.369   1.671  0.00  0.00    +0.020 A 
ATOM     27  C   UNL     1       7.527   3.927   1.861  0.00  0.00    +0.041 A 
ATOM     28  C   UNL     1       7.808   3.020   2.866  0.00  0.00    +0.020 A 
ATOM     29  C   UNL     1       6.794   2.558   3.684  0.00  0.00    +0.006 A 
ATOM     30 CL   UNL     1       8.801   4.512   0.837  0.00  0.00    -0.084 Cl
ENDBRANCH  23  24
BRANCH  23  31
ATOM     31  C   UNL     1       3.628   3.628   4.913  0.00  0.00    +0.075 C 
ATOM     32  N   UNL     1       3.040   4.508   5.326  0.00  0.00    -0.196 NA
ENDBRANCH  23  31
ENDBRANCH   4  23
TORSDOF 4
