REMARK  Name = ZINC62789069
REMARK  3 active torsions:
REMARK  status: ('A' for Active; 'I' for Inactive)
REMARK    1  A    between atoms: C_3  and  C_17
REMARK    2  A    between atoms: C_4  and  O_8
REMARK    3  A    between atoms: O_8  and  C_9
REMARK                            x       y       z     vdW  Elec       q    Type
REMARK                         _______ _______ _______ _____ _____    ______ ____
ROOT
ATOM      1  C   UNL     1       0.016   1.297  -0.432  0.00  0.00    +0.021 A 
ATOM      2  C   UNL     1       1.160   2.059  -0.328  0.00  0.00    +0.016 A 
ATOM      3  C   UNL     1       2.398   1.438  -0.159  0.00  0.00    +0.054 A 
ATOM      4  C   UNL     1       2.470   0.039  -0.096  0.00  0.00    +0.140 A 
ATOM      5  C   UNL     1       1.311  -0.714  -0.202  0.00  0.00    +0.067 A 
ATOM      6  C   UNL     1       0.090  -0.086  -0.369  0.00  0.00    +0.044 A 
ATOM      7 CL   UNL     1      -1.357  -1.035  -0.502  0.00  0.00    -0.083 Cl
ENDROOT
BRANCH   3   8
ATOM      8  C   UNL     1       3.627   2.249  -0.048  0.00  0.00    +0.098 C 
ATOM      9  N   UNL     1       3.939   3.120  -1.007  0.00  0.00    -0.387 N 
ATOM     10  N   UNL     1       4.423   2.111   1.012  0.00  0.00    -0.344 N 
ATOM     11  H   UNL     1       4.705   3.705  -0.900  0.00  0.00    +0.157 HD
ATOM     12  H   UNL     1       4.195   1.478   1.711  0.00  0.00    +0.144 HD
ATOM     13  H   UNL     1       5.230   2.644   1.086  0.00  0.00    +0.144 HD
ATOM     14  H   UNL     1       3.401   3.169  -1.812  0.00  0.00    +0.157 HD
ENDBRANCH   3   8
BRANCH   4  15
ATOM     15  O   UNL     1       3.668  -0.575   0.068  0.00  0.00    -0.454 OA
BRANCH  15  16
ATOM     16  C   UNL     1       3.703  -1.932   0.011  0.00  0.00    +0.142 A 
ATOM     17  C   UNL     1       3.616  -2.679   1.177  0.00  0.00    +0.049 A 
ATOM     18  C   UNL     1       3.651  -4.058   1.117  0.00  0.00    +0.023 A 
ATOM     19  C   UNL     1       3.774  -4.697  -0.104  0.00  0.00    +0.042 A 
ATOM     20  C   UNL     1       3.861  -3.954  -1.269  0.00  0.00    +0.039 A 
ATOM     21  C   UNL     1       3.820  -2.574  -1.214  0.00  0.00    +0.061 A 
ATOM     22 BR   UNL     1       3.931  -1.560  -2.807  0.00  0.00    -0.046 Br
ATOM     23 CL   UNL     1       3.819  -6.430  -0.176  0.00  0.00    -0.084 Cl
ENDBRANCH  15  16
ENDBRANCH   4  15
TORSDOF 3
