REMARK  Name = ZINC17397461
REMARK  6 active torsions:
REMARK  status: ('A' for Active; 'I' for Inactive)
REMARK    1  A    between atoms: C_3  and  C_18
REMARK    2  A    between atoms: C_5  and  S_7
REMARK    3  A    between atoms: S_7  and  N_10
REMARK    4  A    between atoms: N_10  and  C_11
REMARK    5  A    between atoms: N_20  and  N_21
REMARK    6  A    between atoms: C_22  and  C_24
REMARK                            x       y       z     vdW  Elec       q    Type
REMARK                         _______ _______ _______ _____ _____    ______ ____
ROOT
ATOM      1  C   UNL     1       3.131   4.471   0.301  0.00  0.00    +0.003 A 
ATOM      2  C   UNL     1       1.839   3.989   0.336  0.00  0.00    +0.013 A 
ATOM      3  C   UNL     1       1.609   2.614   0.271  0.00  0.00    +0.040 A 
ATOM      4  C   UNL     1       2.688   1.736   0.162  0.00  0.00    +0.042 A 
ATOM      5  C   UNL     1       3.975   2.231   0.124  0.00  0.00    +0.109 A 
ATOM      6  C   UNL     1       4.197   3.596   0.194  0.00  0.00    +0.029 A 
ENDROOT
BRANCH   3   7
ATOM      7  C   UNL     1       0.227   2.090   0.312  0.00  0.00    +0.260 C 
ATOM      8  O   UNL     1       0.029   0.892   0.251  0.00  0.00    -0.269 OA
ATOM      9  N   UNL     1      -0.814   2.940   0.411  0.00  0.00    -0.230 N 
ATOM     10  H   UNL     1      -0.656   3.896   0.460  0.00  0.00    +0.173 HD
BRANCH   9  11
ATOM     11  N   UNL     1      -2.124   2.444   0.444  0.00  0.00    -0.228 N 
ATOM     12  C   UNL     1      -3.164   3.294   0.544  0.00  0.00    +0.295 C 
ATOM     13  O   UNL     1      -2.966   4.493   0.605  0.00  0.00    -0.265 OA
ATOM     14  H   UNL     1      -2.281   1.488   0.395  0.00  0.00    +0.173 HD
BRANCH  12  15
ATOM     15  C   UNL     1      -4.535   2.775   0.578  0.00  0.00    +0.190 A 
ATOM     16  C   UNL     1      -5.674   3.521   0.676  0.00  0.00    +0.054 A 
ATOM     17  C   UNL     1      -6.750   2.619   0.674  0.00  0.00    +0.042 A 
ATOM     18  C   UNL     1      -6.227   1.377   0.576  0.00  0.00    +0.196 A 
ATOM     19  O   UNL     1      -4.893   1.475   0.512  0.00  0.00    -0.458 OA
ENDBRANCH  12  15
ENDBRANCH   9  11
ENDBRANCH   3   7
BRANCH   5  20
ATOM     20  S   UNL     1       5.340   1.125  -0.013  0.00  0.00    +0.072 S 
ATOM     21  O   UNL     1       6.491   1.846   0.404  0.00  0.00    -0.150 OA
ATOM     22  O   UNL     1       4.939  -0.092   0.602  0.00  0.00    -0.150 OA
BRANCH  20  23
ATOM     23  N   UNL     1       5.544   0.797  -1.623  0.00  0.00    -0.216 N 
ATOM     24  H   UNL     1       5.426  -0.108  -1.952  0.00  0.00    +0.174 HD
BRANCH  23  25
ATOM     25  C   UNL     1       5.886   1.824  -2.507  0.00  0.00    +0.048 A 
ATOM     26  C   UNL     1       4.937   2.330  -3.386  0.00  0.00    +0.026 A 
ATOM     27  C   UNL     1       5.277   3.349  -4.254  0.00  0.00    +0.022 A 
ATOM     28  C   UNL     1       6.564   3.857  -4.258  0.00  0.00    +0.041 A 
ATOM     29  C   UNL     1       7.513   3.350  -3.388  0.00  0.00    +0.022 A 
ATOM     30  C   UNL     1       7.178   2.336  -2.513  0.00  0.00    +0.026 A 
ATOM     31 CL   UNL     1       6.989   5.132  -5.357  0.00  0.00    -0.084 Cl
ENDBRANCH  23  25
ENDBRANCH  20  23
ENDBRANCH   5  20
TORSDOF 6
