REMARK  Name = ZINC63480108
REMARK  5 active torsions:
REMARK  status: ('A' for Active; 'I' for Inactive)
REMARK    1  A    between atoms: C_1  and  C_2
REMARK    2  A    between atoms: C_4  and  C_40
REMARK    3  A    between atoms: C_6  and  N_8
REMARK    4  A    between atoms: C_13  and  C_30
REMARK    5  A    between atoms: C_30  and  C_31
REMARK                            x       y       z     vdW  Elec       q    Type
REMARK                         _______ _______ _______ _____ _____    ______ ____
ROOT
ATOM      1  N   UNL     1       0.050  -2.798   2.395  0.00  0.00    -0.210 N 
ATOM      2  C   UNL     1      -0.025  -4.133   2.452  0.00  0.00    +0.232 C 
ATOM      3  O   UNL     1      -0.111  -4.871   1.494  0.00  0.00    -0.274 OA
ATOM      4  C   UNL     1       0.014  -4.578   3.896  0.00  0.00    +0.107 C 
ATOM      5  C   UNL     1      -1.363  -5.159   4.285  0.00  0.00    +0.072 C 
ATOM      6  N   UNL     1      -1.677  -4.545   5.602  0.00  0.00    -0.295 NA
ATOM      7  C   UNL     1      -1.189  -3.159   5.481  0.00  0.00    +0.136 C 
ATOM      8  C   UNL     1       0.134  -3.241   4.679  0.00  0.00    +0.123 C 
ATOM      9  C   UNL     1       0.146  -2.196   3.587  0.00  0.00    +0.233 C 
ATOM     10  O   UNL     1       0.227  -1.000   3.762  0.00  0.00    -0.274 OA
ATOM     11  C   UNL     1      -2.199  -2.275   4.807  0.00  0.00    +0.003 A 
ATOM     12  C   UNL     1      -2.811  -2.303   3.573  0.00  0.00    +0.008 A 
ATOM     13  C   UNL     1      -3.726  -1.324   3.231  0.00  0.00    +0.000 A 
ATOM     14  C   UNL     1      -4.025  -0.317   4.131  0.00  0.00    +0.002 A 
ATOM     15  C   UNL     1      -3.415  -0.284   5.367  0.00  0.00    +0.023 A 
ATOM     16  C   UNL     1      -2.492  -1.267   5.720  0.00  0.00    +0.039 A 
ATOM     17  N   UNL     1      -1.755  -1.447   6.892  0.00  0.00    -0.283 N 
ATOM     18  C   UNL     1      -0.965  -2.537   6.833  0.00  0.00    +0.243 C 
ATOM     19  O   UNL     1      -0.218  -2.938   7.700  0.00  0.00    -0.273 OA
ATOM     20  H   UNL     1      -2.670  -4.564   5.783  0.00  0.00    +0.124 HD
ATOM     21  H   UNL     1      -1.806  -0.857   7.660  0.00  0.00    +0.155 HD
ENDROOT
BRANCH   1  27
ATOM     22  C   UNL     1       2.376   0.050  -0.871  0.00  0.00    +0.044 C 
ATOM     23  C   UNL     1       1.149  -0.700  -0.420  0.00  0.00    -0.048 A 
ATOM     24  C   UNL     1       0.007  -0.687  -1.199  0.00  0.00    +0.006 A 
ATOM     25  C   UNL     1      -1.121  -1.373  -0.788  0.00  0.00    -0.048 A 
ATOM     26  C   UNL     1      -1.110  -2.074   0.402  0.00  0.00    +0.027 A 
ATOM     27  C   UNL     1       0.035  -2.088   1.186  0.00  0.00    +0.044 A 
ATOM     28  C   UNL     1       1.168  -1.403   0.768  0.00  0.00    +0.027 A 
ATOM     29  C   UNL     1      -2.365  -1.356  -1.640  0.00  0.00    +0.044 C 
ENDBRANCH   1  27
BRANCH   5  30
ATOM     30  C   UNL     1      -1.282  -6.681   4.410  0.00  0.00    +0.052 C 
BRANCH  30  31
ATOM     31  C   UNL     1      -2.659  -7.238   4.668  0.00  0.00    -0.040 C 
ATOM     32  C   UNL     1      -3.524  -7.726   3.750  0.00  0.00    -0.001 A 
ATOM     33  C   UNL     1      -3.446  -7.877   2.292  0.00  0.00    +0.010 A 
ATOM     34  C   UNL     1      -4.497  -8.412   1.631  0.00  0.00    +0.001 A 
ATOM     35  C   UNL     1      -5.658  -8.823   2.301  0.00  0.00    +0.002 A 
ATOM     36  C   UNL     1      -5.804  -8.716   3.639  0.00  0.00    +0.026 A 
ATOM     37  C   UNL     1      -4.760  -8.168   4.434  0.00  0.00    +0.043 A 
ATOM     38  N   UNL     1      -4.662  -7.962   5.725  0.00  0.00    -0.380 N 
ATOM     39  C   UNL     1      -3.349  -7.370   6.006  0.00  0.00    +0.144 C 
ATOM     40  H   UNL     1      -5.343  -8.169   6.384  0.00  0.00    +0.160 HD
ENDBRANCH  30  31
ENDBRANCH   5  30
TORSDOF 3
