REMARK  Name = ZINC20242600
REMARK  12 active torsions:
REMARK  status: ('A' for Active; 'I' for Inactive)
REMARK    1  A    between atoms: C_1  and  C_2
REMARK    2  A    between atoms: C_2  and  C_3
REMARK    3  A    between atoms: C_3  and  N_4
REMARK    4  A    between atoms: N_4  and  C_5
REMARK    5  A    between atoms: N_4  and  C_8
REMARK    6  A    between atoms: C_5  and  C_6
REMARK    7  A    between atoms: C_6  and  C_7
REMARK    8  A    between atoms: C_8  and  C_9
REMARK    9  A    between atoms: C_9  and  N_10
REMARK   10  A    between atoms: C_11  and  C_13
REMARK   11  A    between atoms: N_19  and  C_30
REMARK   12  A    between atoms: C_30  and  C_31
REMARK                            x       y       z     vdW  Elec       q    Type
REMARK                         _______ _______ _______ _____ _____    ______ ____
ROOT
ATOM      1  C   UNL     1      -4.759   2.099   3.873  0.00  0.00    +0.039 A 
ATOM      2  C   UNL     1      -4.448   0.756   3.651  0.00  0.00    +0.014 A 
ATOM      3  C   UNL     1      -3.841   0.383   2.471  0.00  0.00    +0.020 A 
ATOM      4  C   UNL     1      -3.539   1.329   1.506  0.00  0.00    +0.065 A 
ATOM      5  C   UNL     1      -3.843   2.666   1.710  0.00  0.00    +0.054 A 
ATOM      6  C   UNL     1      -4.455   3.050   2.903  0.00  0.00    +0.037 A 
ATOM      7  N   UNL     1      -3.564   3.641   0.770  0.00  0.00    -0.262 N 
ATOM      8  C   UNL     1      -2.487   3.856   0.062  0.00  0.00    +0.252 C 
ATOM      9  O   UNL     1      -2.528   4.822  -0.675  0.00  0.00    -0.270 OA
ATOM     10  C   UNL     1      -1.238   3.091   0.033  0.00  0.00    +0.053 A 
ATOM     11  C   UNL     1      -0.015   3.776   0.026  0.00  0.00    +0.014 A 
ATOM     12  C   UNL     1       1.171   3.076   0.002  0.00  0.00    +0.001 A 
ATOM     13  C   UNL     1       1.163   1.692  -0.013  0.00  0.00    +0.001 A 
ATOM     14  C   UNL     1      -0.039   1.007  -0.006  0.00  0.00    +0.018 A 
ATOM     15  C   UNL     1      -1.232   1.698   0.009  0.00  0.00    +0.056 A 
ATOM     16  S   UNL     1      -2.756   0.814   0.013  0.00  0.00    +0.088 S 
ATOM     17  O   UNL     1      -3.518   1.443  -1.009  0.00  0.00    -0.247 OA
ENDROOT
BRANCH   1  19
ATOM     18  N   UNL     1      -5.702   1.589   6.075  0.00  0.00    -0.313 N 
ATOM     19  C   UNL     1      -5.409   2.511   5.136  0.00  0.00    +0.244 C 
ATOM     20  O   UNL     1      -5.678   3.681   5.327  0.00  0.00    -0.270 OA
ATOM     21  H   UNL     1      -5.458   0.531   5.901  0.00  0.00    +0.149 HD
BRANCH  18  22
ATOM     22  C   UNL     1      -6.346   1.997   7.326  0.00  0.00    +0.086 C 
BRANCH  22  23
ATOM     23  C   UNL     1      -6.567   0.768   8.210  0.00  0.00    -0.060 C 
BRANCH  23  24
ATOM     24  N   UNL     1      -7.098   1.191   9.512  0.00  0.00    +0.381 N 
ATOM     25  H   UNL     1      -6.545   2.088   9.828  0.00  0.00    -0.082 HD
BRANCH  24  26
ATOM     26  C   UNL     1      -8.519   1.550   9.409  0.00  0.00    -0.079 C 
BRANCH  26  28
ATOM     27  C   UNL     1     -10.452   2.591  10.603  0.00  0.00    +0.002 C 
ATOM     28  C   UNL     1      -8.972   2.217  10.710  0.00  0.00    -0.022 C 
ENDBRANCH  26  28
ENDBRANCH  24  26
BRANCH  24  29
ATOM     29  C   UNL     1      -6.891   0.151  10.529  0.00  0.00    -0.079 C 
BRANCH  29  30
ATOM     30  C   UNL     1      -5.423   0.145  10.959  0.00  0.00    -0.022 C 
ATOM     31  C   UNL     1      -5.232  -0.848  12.107  0.00  0.00    +0.002 C 
ENDBRANCH  29  30
ENDBRANCH  24  29
ENDBRANCH  23  24
ENDBRANCH  22  23
ENDBRANCH  18  22
ENDBRANCH   1  19
BRANCH   7  32
ATOM     32  C   UNL     1      -4.654   4.590   0.530  0.00  0.00    +0.149 C 
BRANCH  32  33
ATOM     33  C   UNL     1      -5.535   4.074  -0.578  0.00  0.00    -0.030 A 
ATOM     34  C   UNL     1      -5.265   4.414  -1.891  0.00  0.00    +0.008 A 
ATOM     35  C   UNL     1      -6.069   3.937  -2.908  0.00  0.00    +0.038 A 
ATOM     36  C   UNL     1      -7.151   3.126  -2.612  0.00  0.00    +0.123 A 
ATOM     37  C   UNL     1      -7.423   2.789  -1.296  0.00  0.00    +0.038 A 
ATOM     38  C   UNL     1      -6.615   3.264  -0.281  0.00  0.00    +0.008 A 
ATOM     39  F   UNL     1      -7.941   2.663  -3.605  0.00  0.00    -0.205 F 
ENDBRANCH  32  33
ENDBRANCH   7  32
TORSDOF 10
