REMARK  Name = ZINC22399370
REMARK  7 active torsions:
REMARK  status: ('A' for Active; 'I' for Inactive)
REMARK    1  A    between atoms: C_1  and  S_2
REMARK    2  A    between atoms: S_2  and  N_5
REMARK    3  A    between atoms: N_5  and  C_6
REMARK    4  A    between atoms: N_5  and  C_20
REMARK    5  A    between atoms: C_6  and  C_7
REMARK    6  A    between atoms: C_25  and  O_26
REMARK    7  A    between atoms: O_26  and  C_27
REMARK                            x       y       z     vdW  Elec       q    Type
REMARK                         _______ _______ _______ _____ _____    ______ ____
ROOT
ATOM      1  N   UNL     1       0.952  -0.332  -0.985  0.00  0.00    -0.195 N 
ENDROOT
BRANCH   1   2
ATOM      2  C   UNL     1       2.337  -0.530  -0.938  0.00  0.00    +0.094 A 
ATOM      3  C   UNL     1       3.200   0.528  -1.183  0.00  0.00    +0.028 A 
ATOM      4  C   UNL     1       4.567   0.330  -1.136  0.00  0.00    +0.002 A 
ATOM      5  C   UNL     1       5.078  -0.922  -0.845  0.00  0.00    +0.004 A 
ATOM      6  C   UNL     1       4.224  -1.982  -0.600  0.00  0.00    +0.048 A 
ATOM      7  C   UNL     1       2.852  -1.790  -0.639  0.00  0.00    +0.151 A 
BRANCH   7   8
ATOM      8  O   UNL     1       2.011  -2.830  -0.392  0.00  0.00    -0.454 OA
BRANCH   8   9
ATOM      9  C   UNL     1       1.563  -3.553  -1.451  0.00  0.00    +0.129 A 
ATOM     10  C   UNL     1       2.044  -3.289  -2.726  0.00  0.00    +0.046 A 
ATOM     11  C   UNL     1       1.591  -4.031  -3.800  0.00  0.00    +0.004 A 
ATOM     12  C   UNL     1       0.651  -5.027  -3.608  0.00  0.00    +0.000 A 
ATOM     13  C   UNL     1       0.167  -5.288  -2.340  0.00  0.00    +0.004 A 
ATOM     14  C   UNL     1       0.621  -4.553  -1.261  0.00  0.00    +0.046 A 
ENDBRANCH   8   9
ENDBRANCH   7   8
ENDBRANCH   1   2
BRANCH   1  16
ATOM     15  C   UNL     1       0.132   1.795   0.557  0.00  0.00    +0.218 C 
ATOM     16  S   UNL     1       0.114  -0.012   0.407  0.00  0.00    +0.043 S 
ATOM     17  O   UNL     1       0.892  -0.597   1.442  0.00  0.00    -0.155 OA
ATOM     18  O   UNL     1      -1.207  -0.469   0.148  0.00  0.00    -0.155 OA
ENDBRANCH   1  16
BRANCH   1  19
ATOM     19  C   UNL     1       0.244  -0.407  -2.265  0.00  0.00    +0.227 C 
BRANCH  19  20
ATOM     20  C   UNL     1       0.314   0.930  -2.957  0.00  0.00    +0.239 C 
ATOM     21  O   UNL     1       0.897   1.855  -2.432  0.00  0.00    -0.273 OA
ATOM     22  N   UNL     1      -0.272   1.098  -4.159  0.00  0.00    -0.259 N 
ATOM     23  C   UNL     1      -0.985  -0.007  -4.817  0.00  0.00    +0.209 C 
ATOM     24  C   UNL     1      -0.645  -0.007  -6.285  0.00  0.00    +0.235 C 
ATOM     25  O   UNL     1      -0.659  -1.051  -6.903  0.00  0.00    -0.274 OA
ATOM     26  N   UNL     1      -0.325   1.137  -6.919  0.00  0.00    -0.283 N 
ATOM     27  C   UNL     1      -0.252   2.346  -6.219  0.00  0.00    +0.055 A 
ATOM     28  C   UNL     1      -0.226   2.335  -4.821  0.00  0.00    +0.058 A 
ATOM     29  C   UNL     1      -0.154   3.521  -4.113  0.00  0.00    +0.025 A 
ATOM     30  C   UNL     1      -0.115   4.725  -4.794  0.00  0.00    +0.002 A 
ATOM     31  C   UNL     1      -0.148   4.743  -6.176  0.00  0.00    +0.002 A 
ATOM     32  C   UNL     1      -0.210   3.555  -6.894  0.00  0.00    +0.025 A 
ATOM     33  H   UNL     1      -0.117   1.128  -7.999  0.00  0.00    +0.155 HD
ENDBRANCH  19  20
ENDBRANCH   1  19
TORSDOF 6
