REMARK  Name = ZINC36006725
REMARK  17 active torsions:
REMARK  status: ('A' for Active; 'I' for Inactive)
REMARK    1  A    between atoms: C_1  and  C_2
REMARK    2  A    between atoms: C_2  and  N_3
REMARK    3  A    between atoms: C_4  and  C_26
REMARK    4  A    between atoms: C_5  and  C_21
REMARK    5  A    between atoms: C_6  and  C_11
REMARK    6  A    between atoms: C_14  and  C_17
REMARK    7  A    between atoms: C_17  and  C_18
REMARK    8  A    between atoms: C_17  and  C_19
REMARK    9  A    between atoms: C_17  and  C_20
REMARK   10  A    between atoms: C_21  and  O_23
REMARK   11  A    between atoms: O_23  and  C_24
REMARK   12  A    between atoms: C_24  and  C_25
REMARK   13  A    between atoms: C_26  and  N_27
REMARK   14  A    between atoms: C_31  and  C_34
REMARK   15  A    between atoms: N_37  and  C_38
REMARK   16  A    between atoms: C_38  and  C_39
REMARK   17  A    between atoms: C_38  and  C_40
REMARK                            x       y       z     vdW  Elec       q    Type
REMARK                         _______ _______ _______ _____ _____    ______ ____
ROOT
ATOM      1  N   UNL     1       0.771  -0.611  -1.022  0.00  0.00    -0.258 N 
ATOM      2  C   UNL     1       0.325  -0.604  -2.313  0.00  0.00    +0.041 C 
ATOM      3  C   UNL     1       1.135  -0.960  -3.333  0.00  0.00    +0.080 C 
ATOM      4  C   UNL     1       2.555  -1.367  -2.996  0.00  0.00    +0.144 C 
ATOM      5  N   UNL     1       2.938  -1.339  -1.574  0.00  0.00    -0.288 N 
ATOM      6  C   UNL     1       2.016  -0.955  -0.669  0.00  0.00    +0.307 C 
ATOM      7  O   UNL     1       2.324  -0.926   0.506  0.00  0.00    -0.252 OA
ATOM      8  H   UNL     1       3.833  -1.589  -1.296  0.00  0.00    +0.151 HD
ENDROOT
BRANCH   4   9
ATOM      9  C   UNL     1       2.772  -2.768  -3.508  0.00  0.00    -0.022 A 
ATOM     10  C   UNL     1       2.302  -3.848  -2.784  0.00  0.00    +0.006 A 
ATOM     11  C   UNL     1       2.500  -5.133  -3.253  0.00  0.00    +0.004 A 
ATOM     12  C   UNL     1       3.168  -5.338  -4.447  0.00  0.00    -0.042 A 
ATOM     13  C   UNL     1       3.636  -4.257  -5.170  0.00  0.00    +0.004 A 
ATOM     14  C   UNL     1       3.434  -2.972  -4.703  0.00  0.00    +0.006 A 
BRANCH  12  15
ATOM     15  C   UNL     1       3.385  -6.739  -4.958  0.00  0.00    -0.013 C 
ATOM     16  C   UNL     1       2.031  -7.419  -5.170  0.00  0.00    +0.015 C 
ATOM     17  C   UNL     1       4.142  -6.685  -6.286  0.00  0.00    +0.015 C 
ATOM     18  C   UNL     1       4.201  -7.533  -3.936  0.00  0.00    +0.015 C 
ENDBRANCH  12  15
ENDBRANCH   4   9
BRANCH   1  20
ATOM     19  C   UNL     1      -0.065   1.298   0.257  0.00  0.00    +0.025 C 
ATOM     20  C   UNL     1      -0.162  -0.212   0.035  0.00  0.00    +0.111 C 
ENDBRANCH   1  20
BRANCH   3  21
ATOM     21  C   UNL     1       0.673  -0.955  -4.670  0.00  0.00    +0.339 C 
ATOM     22  O   UNL     1       0.292  -1.989  -5.186  0.00  0.00    -0.245 OA
BRANCH  21  23
ATOM     23  O   UNL     1       0.655   0.197  -5.373  0.00  0.00    -0.462 OA
BRANCH  23  24
ATOM     24  C   UNL     1       0.176   0.129  -6.717  0.00  0.00    +0.229 C 
ATOM     25  C   UNL     1       0.230   1.521  -7.349  0.00  0.00    +0.048 C 
ENDBRANCH  23  24
ENDBRANCH  21  23
ENDBRANCH   3  21
BRANCH   2  26
ATOM     26  C   UNL     1      -1.096  -0.193  -2.603  0.00  0.00    +0.136 C 
BRANCH  26  27
ATOM     27  N   UNL     1      -2.018  -1.187  -2.038  0.00  0.00    -0.294 NA
ATOM     28  C   UNL     1      -1.876  -2.482  -2.716  0.00  0.00    +0.104 C 
ATOM     29  C   UNL     1      -2.718  -3.533  -1.984  0.00  0.00    +0.125 C 
ATOM     30  N   UNL     1      -4.098  -3.035  -1.877  0.00  0.00    -0.280 N 
ATOM     31  C   UNL     1      -4.310  -1.685  -1.333  0.00  0.00    +0.088 C 
ATOM     32  C   UNL     1      -3.406  -0.707  -2.091  0.00  0.00    +0.107 C 
ATOM     33  C   UNL     1      -5.775  -1.283  -1.515  0.00  0.00    +0.029 C 
ATOM     34  C   UNL     1      -5.140  -3.796  -2.267  0.00  0.00    +0.303 C 
ATOM     35  O   UNL     1      -6.266  -3.337  -2.255  0.00  0.00    -0.253 OA
ATOM     36  N   UNL     1      -4.934  -5.065  -2.672  0.00  0.00    -0.297 N 
ATOM     37  H   UNL     1      -4.046  -5.453  -2.618  0.00  0.00    +0.150 HD
BRANCH  36  38
ATOM     38  C   UNL     1      -6.050  -5.858  -3.192  0.00  0.00    +0.068 C 
ATOM     39  C   UNL     1      -5.511  -6.948  -4.121  0.00  0.00    +0.027 C 
ATOM     40  C   UNL     1      -6.802  -6.506  -2.028  0.00  0.00    +0.027 C 
ENDBRANCH  36  38
ENDBRANCH  26  27
ENDBRANCH   2  26
TORSDOF 9
