REMARK  Name = ZINC67462689
REMARK  7 active torsions:
REMARK  status: ('A' for Active; 'I' for Inactive)
REMARK    1  A    between atoms: C_1  and  N_2
REMARK    2  A    between atoms: C_3  and  C_5
REMARK    3  A    between atoms: C_8  and  N_11
REMARK    4  A    between atoms: N_14  and  C_15
REMARK    5  A    between atoms: C_15  and  C_16
REMARK    6  A    between atoms: N_21  and  C_22
REMARK    7  A    between atoms: C_22  and  C_23
REMARK                            x       y       z     vdW  Elec       q    Type
REMARK                         _______ _______ _______ _____ _____    ______ ____
ROOT
ATOM      1  N   UNL     1      -2.542  -4.268  -2.442  0.00  0.00    -0.297 N 
ATOM      2  C   UNL     1      -3.595  -4.957  -2.927  0.00  0.00    +0.300 C 
ATOM      3  O   UNL     1      -3.956  -5.981  -2.380  0.00  0.00    -0.253 OA
ATOM      4  N   UNL     1      -4.247  -4.510  -4.019  0.00  0.00    -0.301 N 
ATOM      5  H   UNL     1      -2.254  -3.451  -2.879  0.00  0.00    +0.151 HD
ATOM      6  H   UNL     1      -3.958  -3.693  -4.456  0.00  0.00    +0.150 HD
ENDROOT
BRANCH   1  10
ATOM      7  C   UNL     1      -1.135  -2.201   0.001  0.00  0.00    +0.075 C 
ATOM      8  C   UNL     1      -0.419  -2.694  -1.258  0.00  0.00    +0.014 C 
ATOM      9  C   UNL     1      -0.399  -4.224  -1.266  0.00  0.00    +0.023 C 
ATOM     10  C   UNL     1      -1.834  -4.753  -1.255  0.00  0.00    +0.074 C 
ATOM     11  C   UNL     1      -2.550  -4.260   0.004  0.00  0.00    +0.023 C 
ATOM     12  C   UNL     1      -2.571  -2.730   0.012  0.00  0.00    +0.014 C 
BRANCH   7  15
ATOM     13  C   UNL     1      -0.018   1.461   0.010  0.00  0.00    +0.128 C 
ATOM     14  N   UNL     1       0.002  -0.004   0.002  0.00  0.00    -0.318 N 
ATOM     15  C   UNL     1      -1.156  -0.694   0.009  0.00  0.00    +0.216 C 
ATOM     16  O   UNL     1      -2.214  -0.102   0.023  0.00  0.00    -0.276 OA
ATOM     17  H   UNL     1       0.849  -0.478  -0.009  0.00  0.00    +0.148 HD
ENDBRANCH   7  15
ENDBRANCH   1  10
BRANCH   4  18
ATOM     18  C   UNL     1      -5.390  -5.258  -4.547  0.00  0.00    +0.090 C 
BRANCH  18  19
ATOM     19  C   UNL     1      -5.944  -4.542  -5.780  0.00  0.00    -0.051 C 
ATOM     20  C   UNL     1      -7.038  -5.405  -6.442  0.00  0.00    -0.016 C 
ATOM     21  C   UNL     1      -6.788  -5.185  -7.957  0.00  0.00    -0.020 C 
ATOM     22  C   UNL     1      -5.243  -5.083  -8.008  0.00  0.00    -0.078 C 
ATOM     23  N   UNL     1      -4.871  -4.353  -6.774  0.00  0.00    +0.383 N 
ATOM     24  H   UNL     1      -4.003  -4.718  -6.410  0.00  0.00    -0.081 HD
BRANCH  23  25
ATOM     25  C   UNL     1      -4.718  -2.922  -7.069  0.00  0.00    -0.075 C 
BRANCH  25  26
ATOM     26  C   UNL     1      -3.524  -2.719  -8.004  0.00  0.00    -0.028 C 
ATOM     27  C   UNL     1      -2.237  -3.123  -7.283  0.00  0.00    +0.002 C 
ATOM     28  C   UNL     1      -1.043  -2.920  -8.218  0.00  0.00    +0.000 C 
ATOM     29  C   UNL     1      -0.959  -1.448  -8.625  0.00  0.00    +0.000 C 
ATOM     30  C   UNL     1      -2.246  -1.044  -9.347  0.00  0.00    +0.000 C 
ATOM     31  C   UNL     1      -3.440  -1.247  -8.412  0.00  0.00    +0.002 C 
ENDBRANCH  25  26
ENDBRANCH  23  25
ENDBRANCH  18  19
ENDBRANCH   4  18
TORSDOF 6
