REMARK  Name = ZINC13643463
REMARK  14 active torsions:
REMARK  status: ('A' for Active; 'I' for Inactive)
REMARK    1  A    between atoms: C_1  and  C_2
REMARK    2  A    between atoms: C_2  and  O_3
REMARK    3  A    between atoms: O_3  and  C_4
REMARK    4  A    between atoms: C_4  and  C_6
REMARK    5  A    between atoms: C_7  and  C_25
REMARK    6  A    between atoms: C_12  and  C_14
REMARK    7  A    between atoms: C_17  and  O_23
REMARK    8  A    between atoms: C_18  and  C_20
REMARK    9  A    between atoms: C_20  and  O_21
REMARK   10  A    between atoms: O_21  and  C_22
REMARK   11  A    between atoms: O_23  and  C_24
REMARK   12  A    between atoms: C_25  and  S_26
REMARK   13  A    between atoms: S_26  and  C_27
REMARK   14  A    between atoms: C_31  and  C_33
REMARK                            x       y       z     vdW  Elec       q    Type
REMARK                         _______ _______ _______ _____ _____    ______ ____
ROOT
ATOM      1  C   UNL     1       1.379   2.077  -0.058  0.00  0.00    +0.079 C 
ATOM      2  C   UNL     1       1.794   2.849   0.970  0.00  0.00    +0.034 C 
ATOM      3  N   UNL     1       0.973   3.113   2.029  0.00  0.00    -0.272 N 
ATOM      4  C   UNL     1      -0.275   2.641   2.137  0.00  0.00    +0.304 C 
ATOM      5  O   UNL     1      -0.930   2.931   3.119  0.00  0.00    -0.252 OA
ATOM      6  N   UNL     1      -0.830   1.857   1.192  0.00  0.00    -0.288 N 
ATOM      7  C   UNL     1      -0.026   1.513   0.006  0.00  0.00    +0.144 C 
ATOM      8  H   UNL     1       1.314   3.673   2.744  0.00  0.00    +0.156 HD
ATOM      9  H   UNL     1      -1.736   1.526   1.290  0.00  0.00    +0.151 HD
ENDROOT
BRANCH   7  10
ATOM     10  C   UNL     1       0.071   0.011  -0.069  0.00  0.00    -0.022 A 
ATOM     11  C   UNL     1       0.404  -0.716   1.059  0.00  0.00    +0.009 A 
ATOM     12  C   UNL     1       0.489  -2.093   0.993  0.00  0.00    +0.046 A 
ATOM     13  C   UNL     1       0.251  -2.746  -0.208  0.00  0.00    +0.125 A 
ATOM     14  C   UNL     1      -0.077  -2.013  -1.339  0.00  0.00    +0.020 A 
ATOM     15  C   UNL     1      -0.166  -0.636  -1.267  0.00  0.00    +0.015 A 
BRANCH  13  16
ATOM     16  O   UNL     1       0.339  -4.100  -0.276  0.00  0.00    -0.495 OA
ATOM     17  C   UNL     1       0.681  -4.789   0.928  0.00  0.00    +0.277 C 
ENDBRANCH  13  16
BRANCH  14  18
ATOM     18  C   UNL     1      -0.336  -2.719  -2.645  0.00  0.00    +0.198 C 
BRANCH  18  19
ATOM     19  O   UNL     1      -0.652  -1.755  -3.652  0.00  0.00    -0.378 OA
ATOM     20  C   UNL     1      -0.916  -2.322  -4.937  0.00  0.00    +0.194 C 
ENDBRANCH  18  19
ENDBRANCH  14  18
ENDBRANCH   7  10
BRANCH   1  21
ATOM     21  C   UNL     1       2.227   1.803  -1.156  0.00  0.00    +0.339 C 
ATOM     22  O   UNL     1       2.090   2.416  -2.198  0.00  0.00    -0.245 OA
BRANCH  21  23
ATOM     23  O   UNL     1       3.189   0.863  -1.048  0.00  0.00    -0.462 OA
BRANCH  23  25
ATOM     24  C   UNL     1       5.034  -0.454  -1.886  0.00  0.00    +0.048 C 
ATOM     25  C   UNL     1       4.009   0.639  -2.196  0.00  0.00    +0.229 C 
ENDBRANCH  23  25
ENDBRANCH  21  23
ENDBRANCH   1  21
BRANCH   2  26
ATOM     26  C   UNL     1       3.184   3.430   0.946  0.00  0.00    +0.128 C 
BRANCH  26  27
ATOM     27  S   UNL     1       3.095   5.192   0.540  0.00  0.00    -0.080 S 
BRANCH  27  28
ATOM     28  C   UNL     1       4.808   5.602   0.580  0.00  0.00    +0.189 A 
ATOM     29  N   UNL     1       5.693   4.657   0.863  0.00  0.00    -0.230 NA
ATOM     30  C   UNL     1       6.986   4.931   0.901  0.00  0.00    +0.116 A 
ATOM     31  C   UNL     1       7.411   6.225   0.640  0.00  0.00    +0.052 A 
ATOM     32  C   UNL     1       6.459   7.189   0.348  0.00  0.00    +0.148 A 
ATOM     33  N   UNL     1       5.181   6.847   0.322  0.00  0.00    -0.218 NA
BRANCH  32  34
ATOM     34  C   UNL     1       6.874   8.608   0.058  0.00  0.00    +0.434 C 
ATOM     35  F   UNL     1       7.102   8.756  -1.315  0.00  0.00    -0.164 F 
ATOM     36  F   UNL     1       5.859   9.483   0.459  0.00  0.00    -0.164 F 
ATOM     37  F   UNL     1       8.048   8.903   0.759  0.00  0.00    -0.164 F 
ENDBRANCH  32  34
ENDBRANCH  27  28
ENDBRANCH  26  27
ENDBRANCH   2  26
TORSDOF 11
