REMARK  Name = ZINC39328122
REMARK  9 active torsions:
REMARK  status: ('A' for Active; 'I' for Inactive)
REMARK    1  A    between atoms: C_1  and  C_2
REMARK    2  A    between atoms: C_2  and  C_3
REMARK    3  A    between atoms: C_2  and  C_4
REMARK    4  A    between atoms: C_7  and  C_10
REMARK    5  A    between atoms: C_11  and  C_32
REMARK    6  A    between atoms: C_12  and  N_31
REMARK    7  A    between atoms: C_16  and  N_30
REMARK    8  A    between atoms: C_17  and  C_19
REMARK    9  A    between atoms: N_21  and  C_22
REMARK                            x       y       z     vdW  Elec       q    Type
REMARK                         _______ _______ _______ _____ _____    ______ ____
ROOT
ATOM      1  C   UNL     1      -5.761  -1.943   0.302  0.00  0.00    +0.014 A 
ATOM      2  C   UNL     1      -6.370  -2.730   1.289  0.00  0.00    +0.100 A 
ATOM      3  C   UNL     1      -7.729  -3.079   1.165  0.00  0.00    +0.136 A 
ATOM      4  N   UNL     1      -8.429  -2.666   0.121  0.00  0.00    -0.224 NA
ATOM      5  C   UNL     1      -7.894  -1.925  -0.828  0.00  0.00    +0.113 A 
ATOM      6  C   UNL     1      -6.543  -1.509  -0.808  0.00  0.00    +0.038 A 
ATOM      7  C   UNL     1      -6.131  -0.691  -1.935  0.00  0.00    +0.054 A 
ATOM      8  C   UNL     1      -7.067  -0.391  -2.904  0.00  0.00    +0.097 A 
ATOM      9  S   UNL     1      -8.535  -1.219  -2.327  0.00  0.00    -0.062 S 
ENDROOT
BRANCH   1  13
ATOM     10  C   UNL     1      -1.665  -0.860   0.623  0.00  0.00    -0.045 A 
ATOM     11  C   UNL     1      -2.646   0.106   0.764  0.00  0.00    +0.004 A 
ATOM     12  C   UNL     1      -3.978  -0.240   0.661  0.00  0.00    +0.009 A 
ATOM     13  C   UNL     1      -4.335  -1.566   0.414  0.00  0.00    -0.016 A 
ATOM     14  C   UNL     1      -3.340  -2.535   0.273  0.00  0.00    +0.009 A 
ATOM     15  C   UNL     1      -2.012  -2.176   0.373  0.00  0.00    +0.004 A 
BRANCH  10  17
ATOM     16  C   UNL     1       0.126   0.564  -0.333  0.00  0.00    +0.012 C 
ATOM     17  C   UNL     1      -0.213  -0.476   0.737  0.00  0.00    +0.013 C 
ATOM     18  C   UNL     1       0.051   0.116   2.124  0.00  0.00    +0.012 C 
ENDBRANCH  10  17
ENDBRANCH   1  13
BRANCH   8  19
ATOM     19  C   UNL     1      -6.898   0.379  -4.078  0.00  0.00    +0.257 C 
ATOM     20  O   UNL     1      -5.814   0.873  -4.332  0.00  0.00    -0.269 OA
ATOM     21  N   UNL     1      -7.937   0.567  -4.916  0.00  0.00    -0.280 N 
ATOM     22  H   UNL     1      -8.818   0.241  -4.676  0.00  0.00    +0.155 HD
BRANCH  21  23
ATOM     23  C   UNL     1      -7.743   1.230  -6.132  0.00  0.00    +0.054 A 
ATOM     24  C   UNL     1      -6.473   1.309  -6.688  0.00  0.00    +0.044 A 
ATOM     25  C   UNL     1      -6.285   1.966  -7.889  0.00  0.00    +0.043 A 
ATOM     26  C   UNL     1      -7.362   2.545  -8.539  0.00  0.00    +0.021 A 
ATOM     27  C   UNL     1      -8.628   2.469  -7.988  0.00  0.00    +0.023 A 
ATOM     28  C   UNL     1      -8.823   1.808  -6.790  0.00  0.00    +0.062 A 
ATOM     29 CL   UNL     1     -10.414   1.705  -6.103  0.00  0.00    -0.082 Cl
ATOM     30 CL   UNL     1      -4.698   2.065  -8.585  0.00  0.00    -0.083 Cl
ENDBRANCH  21  23
ENDBRANCH   8  19
BRANCH   7  31
ATOM     31  N   UNL     1      -4.829  -0.222  -2.036  0.00  0.00    -0.356 N 
ATOM     32  H   UNL     1      -4.125  -0.625  -1.503  0.00  0.00    +0.142 HD
ATOM     33  H   UNL     1      -4.621   0.509  -2.639  0.00  0.00    +0.142 HD
ENDBRANCH   7  31
BRANCH   3  34
ATOM     34  N   UNL     1      -8.333  -3.855   2.137  0.00  0.00    -0.342 N 
ATOM     35  H   UNL     1      -7.821  -4.159   2.902  0.00  0.00    +0.144 HD
ATOM     36  H   UNL     1      -9.269  -4.096   2.053  0.00  0.00    +0.144 HD
ENDBRANCH   3  34
BRANCH   2  37
ATOM     37  C   UNL     1      -5.613  -3.178   2.419  0.00  0.00    +0.103 C 
ATOM     38  N   UNL     1      -5.013  -3.534   3.316  0.00  0.00    -0.191 NA
ENDBRANCH   2  37
TORSDOF 7
