REMARK  Name = ZINC09631597
REMARK  9 active torsions:
REMARK  status: ('A' for Active; 'I' for Inactive)
REMARK    1  A    between atoms: C_15  and  C_17
REMARK    2  A    between atoms: C_17  and  O_18
REMARK    3  A    between atoms: O_18  and  C_19
REMARK    4  A    between atoms: C_19  and  C_21
REMARK    5  A    between atoms: C_24  and  N_30
REMARK    6  A    between atoms: C_25  and  N_27
REMARK    7  A    between atoms: N_30  and  C_31
REMARK    8  A    between atoms: C_31  and  C_32
REMARK    9  A    between atoms: C_32  and  O_33
REMARK                            x       y       z     vdW  Elec       q    Type
REMARK                         _______ _______ _______ _____ _____    ______ ____
ROOT
ATOM      1  O   UNL     1       5.607   2.943   1.481  0.00  0.00    -0.452 OA
ENDROOT
BRANCH   1   2
ATOM      2  C   UNL     1       6.801   3.565   1.437  0.00  0.00    +0.340 C 
ATOM      3  O   UNL     1       6.926   4.599   0.811  0.00  0.00    -0.245 OA
BRANCH   2   4
ATOM      4  C   UNL     1       7.958   2.990   2.147  0.00  0.00    +0.061 A 
ATOM      5  C   UNL     1       7.816   1.803   2.872  0.00  0.00    +0.017 A 
ATOM      6  C   UNL     1       8.889   1.267   3.525  0.00  0.00    +0.026 A 
ATOM      7  C   UNL     1      10.125   1.906   3.482  0.00  0.00    +0.058 A 
ATOM      8  C   UNL     1      10.275   3.092   2.767  0.00  0.00    +0.148 A 
ATOM      9  C   UNL     1       9.199   3.634   2.102  0.00  0.00    +0.049 A 
BRANCH   8  10
ATOM     10  N   UNL     1      11.591   3.768   2.722  0.00  0.00    +0.058 N 
ATOM     11  O   UNL     1      11.697   4.860   2.192  0.00  0.00    -0.126 OA
ATOM     12  O   UNL     1      12.568   3.234   3.215  0.00  0.00    -0.126 OA
ENDBRANCH   8  10
BRANCH   7  13
ATOM     13  N   UNL     1      11.213   1.359   4.153  0.00  0.00    -0.340 N 
ATOM     14  H   UNL     1      12.093   1.756   4.055  0.00  0.00    +0.146 HD
BRANCH  13  15
ATOM     15  C   UNL     1      11.030   0.184   5.008  0.00  0.00    +0.129 C 
BRANCH  15  16
ATOM     16  C   UNL     1      12.373  -0.213   5.624  0.00  0.00    +0.174 C 
BRANCH  16  17
ATOM     17  O   UNL     1      12.821   0.825   6.499  0.00  0.00    -0.393 OA
ATOM     18  H   UNL     1      13.669   0.641   6.926  0.00  0.00    +0.209 HD
ENDBRANCH  16  17
ENDBRANCH  15  16
ENDBRANCH  13  15
ENDBRANCH   7  13
ENDBRANCH   2   4
ENDBRANCH   1   2
BRANCH   1  19
ATOM     19  C   UNL     1       4.512   3.566   0.758  0.00  0.00    +0.328 C 
BRANCH  19  34
ATOM     20  C   UNL     1       2.749   6.468  -0.952  0.00  0.00    +0.002 A 
ATOM     21  C   UNL     1       2.126   6.452  -2.186  0.00  0.00    +0.001 A 
ATOM     22  C   UNL     1       1.521   5.294  -2.643  0.00  0.00    +0.017 A 
ATOM     23  C   UNL     1       1.534   4.157  -1.855  0.00  0.00    +0.035 A 
ATOM     24  C   UNL     1       2.157   4.170  -0.604  0.00  0.00    +0.055 A 
ATOM     25  C   UNL     1       2.765   5.335  -0.160  0.00  0.00    +0.025 A 
ATOM     26  N   UNL     1       2.167   3.019   0.194  0.00  0.00    -0.235 N 
ATOM     27  C   UNL     1       1.066   2.155   0.257  0.00  0.00    +0.055 A 
ATOM     28  C   UNL     1       0.717   1.554   1.456  0.00  0.00    +0.025 A 
ATOM     29  C   UNL     1      -0.372   0.703   1.512  0.00  0.00    +0.002 A 
ATOM     30  C   UNL     1      -1.118   0.445   0.377  0.00  0.00    +0.001 A 
ATOM     31  C   UNL     1      -0.779   1.040  -0.826  0.00  0.00    +0.017 A 
ATOM     32  C   UNL     1       0.309   1.892  -0.887  0.00  0.00    +0.035 A 
ATOM     33  S   UNL     1       0.766   2.666  -2.406  0.00  0.00    -0.086 S 
ATOM     34  C   UNL     1       3.265   2.736   0.921  0.00  0.00    +0.262 C 
ATOM     35  O   UNL     1       3.250   1.812   1.708  0.00  0.00    -0.271 OA
ENDBRANCH  19  34
ENDBRANCH   1  19
TORSDOF 9
