REMARK  Name = ZINC15817309
REMARK  11 active torsions:
REMARK  status: ('A' for Active; 'I' for Inactive)
REMARK    1  A    between atoms: C_1  and  C_2
REMARK    2  A    between atoms: C_6  and  N_9
REMARK    3  A    between atoms: C_7  and  C_8
REMARK    4  A    between atoms: C_19  and  S_20
REMARK    5  A    between atoms: S_20  and  C_21
REMARK    6  A    between atoms: C_21  and  C_23
REMARK    7  A    between atoms: C_21  and  C_24
REMARK    8  A    between atoms: N_26  and  C_27
REMARK    9  A    between atoms: C_27  and  C_28
REMARK   10  A    between atoms: C_28  and  C_29
REMARK   11  A    between atoms: C_28  and  C_30
REMARK                            x       y       z     vdW  Elec       q    Type
REMARK                         _______ _______ _______ _____ _____    ______ ____
ROOT
ATOM      1  N   UNL     1      -6.371   1.182   1.076  0.00  0.00    -0.255 N 
ATOM      2  C   UNL     1      -7.417   0.325   1.120  0.00  0.00    +0.267 A 
ATOM      3  O   UNL     1      -8.519   0.692   1.485  0.00  0.00    -0.267 OA
ATOM      4  C   UNL     1      -7.174  -1.066   0.717  0.00  0.00    +0.065 A 
ATOM      5  C   UNL     1      -8.185  -2.026   0.733  0.00  0.00    +0.015 A 
ATOM      6  C   UNL     1      -7.904  -3.308   0.348  0.00  0.00    +0.001 A 
ATOM      7  C   UNL     1      -6.623  -3.662  -0.059  0.00  0.00    +0.002 A 
ATOM      8  C   UNL     1      -5.614  -2.742  -0.085  0.00  0.00    +0.028 A 
ATOM      9  C   UNL     1      -5.870  -1.423   0.303  0.00  0.00    +0.079 A 
ATOM     10  N   UNL     1      -4.899  -0.480   0.293  0.00  0.00    -0.223 NA
ATOM     11  C   UNL     1      -5.141   0.755   0.658  0.00  0.00    +0.177 A 
ENDROOT
BRANCH   1  17
ATOM     12  C   UNL     1      -6.319   4.630   4.582  0.00  0.00    +0.044 C 
ATOM     13  C   UNL     1      -6.532   4.216   3.149  0.00  0.00    -0.046 A 
ATOM     14  C   UNL     1      -6.906   5.157   2.207  0.00  0.00    +0.004 A 
ATOM     15  C   UNL     1      -7.103   4.782   0.891  0.00  0.00    +0.002 A 
ATOM     16  C   UNL     1      -6.927   3.465   0.513  0.00  0.00    +0.026 A 
ATOM     17  C   UNL     1      -6.551   2.518   1.456  0.00  0.00    +0.055 A 
ATOM     18  C   UNL     1      -6.360   2.897   2.778  0.00  0.00    -0.024 A 
ATOM     19  C   UNL     1      -5.958   1.871   3.807  0.00  0.00    +0.046 C 
ENDBRANCH   1  17
BRANCH  11  20
ATOM     20  S   UNL     1      -3.818   1.918   0.614  0.00  0.00    -0.075 S 
BRANCH  20  21
ATOM     21  C   UNL     1      -2.482   0.853   0.018  0.00  0.00    +0.137 C 
ATOM     22  C   UNL     1      -2.799   0.384  -1.403  0.00  0.00    +0.029 C 
BRANCH  21  23
ATOM     23  C   UNL     1      -1.187   1.624   0.017  0.00  0.00    +0.226 C 
ATOM     24  O   UNL     1      -1.204   2.837   0.023  0.00  0.00    -0.275 OA
ATOM     25  N   UNL     1      -0.011   0.966   0.007  0.00  0.00    -0.314 N 
ATOM     26  H   UNL     1       0.002  -0.004   0.002  0.00  0.00    +0.149 HD
BRANCH  25  27
ATOM     27  C   UNL     1       1.248   1.716  -0.001  0.00  0.00    +0.107 C 
BRANCH  27  28
ATOM     28  C   UNL     1       2.424   0.737  -0.017  0.00  0.00    -0.000 C 
ATOM     29  C   UNL     1       3.733   1.517  -0.151  0.00  0.00    +0.009 C 
ATOM     30  C   UNL     1       2.438  -0.065   1.286  0.00  0.00    +0.009 C 
ENDBRANCH  27  28
ENDBRANCH  25  27
ENDBRANCH  21  23
ENDBRANCH  20  21
ENDBRANCH  11  20
TORSDOF 6
