REMARK  Name = ZINC38490174
REMARK  8 active torsions:
REMARK  status: ('A' for Active; 'I' for Inactive)
REMARK    1  A    between atoms: C_7  and  C_11
REMARK    2  A    between atoms: C_11  and  C_12
REMARK    3  A    between atoms: C_12  and  N_13
REMARK    4  A    between atoms: C_14  and  C_16
REMARK    5  A    between atoms: C_17  and  C_28
REMARK    6  A    between atoms: N_18  and  C_21
REMARK    7  A    between atoms: C_28  and  S_29
REMARK    8  A    between atoms: S_29  and  C_30
REMARK                            x       y       z     vdW  Elec       q    Type
REMARK                         _______ _______ _______ _____ _____    ______ ____
ROOT
ATOM      1  C   UNL     1      -2.103  -6.350  -2.609  0.00  0.00    +0.171 A 
ATOM      2  C   UNL     1      -2.682  -6.913  -3.711  0.00  0.00    +0.087 A 
ATOM      3  N   UNL     1      -3.443  -7.938  -3.271  0.00  0.00    -0.215 N 
ATOM      4  N   UNL     1      -3.305  -7.975  -1.876  0.00  0.00    -0.060 NA
ATOM      5  N   UNL     1      -2.506  -7.030  -1.522  0.00  0.00    -0.124 NA
ENDROOT
BRANCH   3   6
ATOM      6  C   UNL     1      -4.223  -8.799  -4.057  0.00  0.00    +0.067 A 
ATOM      7  C   UNL     1      -4.856  -8.319  -5.195  0.00  0.00    +0.029 A 
ATOM      8  C   UNL     1      -5.623  -9.169  -5.968  0.00  0.00    +0.022 A 
ATOM      9  C   UNL     1      -5.759 -10.498  -5.609  0.00  0.00    +0.041 A 
ATOM     10  C   UNL     1      -5.128 -10.979  -4.475  0.00  0.00    +0.022 A 
ATOM     11  C   UNL     1      -4.356 -10.135  -3.702  0.00  0.00    +0.029 A 
ATOM     12 CL   UNL     1      -6.723 -11.564  -6.583  0.00  0.00    -0.084 Cl
ENDBRANCH   3   6
BRANCH   1  14
ATOM     13  N   UNL     1      -0.675  -4.736  -1.452  0.00  0.00    -0.310 N 
ATOM     14  C   UNL     1      -1.186  -5.195  -2.612  0.00  0.00    +0.266 C 
ATOM     15  O   UNL     1      -0.890  -4.656  -3.661  0.00  0.00    -0.268 OA
ATOM     16  H   UNL     1      -0.911  -5.166  -0.615  0.00  0.00    +0.149 HD
BRANCH  13  17
ATOM     17  C   UNL     1       0.236  -3.589  -1.455  0.00  0.00    +0.109 C 
BRANCH  17  18
ATOM     18  C   UNL     1       0.666  -3.275  -0.021  0.00  0.00    +0.056 C 
BRANCH  18  25
ATOM     19  C   UNL     1      -0.017   1.362   0.009  0.00  0.00    +0.001 A 
ATOM     20  C   UNL     1       1.170   2.083   0.002  0.00  0.00    +0.002 A 
ATOM     21  C   UNL     1       2.386   1.436  -0.013  0.00  0.00    +0.026 A 
ATOM     22  C   UNL     1       2.428   0.046  -0.021  0.00  0.00    +0.047 A 
ATOM     23  C   UNL     1       1.223  -0.681  -0.013  0.00  0.00    +0.003 A 
ATOM     24  C   UNL     1       0.002  -0.004   0.002  0.00  0.00    +0.010 A 
ATOM     25  C   UNL     1       1.604  -2.095  -0.025  0.00  0.00    -0.021 A 
ATOM     26  C   UNL     1       2.945  -2.141  -0.038  0.00  0.00    +0.087 A 
ATOM     27  N   UNL     1       3.455  -0.871  -0.036  0.00  0.00    -0.360 N 
ATOM     28  H   UNL     1       4.399  -0.650  -0.044  0.00  0.00    +0.165 HD
ENDBRANCH  18  25
ENDBRANCH  17  18
ENDBRANCH  13  17
ENDBRANCH   1  14
BRANCH   2  29
ATOM     29  C   UNL     1      -2.506  -6.474  -5.141  0.00  0.00    +0.135 C 
BRANCH  29  30
ATOM     30  S   UNL     1      -3.768  -5.239  -5.555  0.00  0.00    -0.080 S 
BRANCH  30  31
ATOM     31  C   UNL     1      -3.432  -4.832  -7.236  0.00  0.00    +0.189 A 
ATOM     32  N   UNL     1      -2.427  -5.433  -7.859  0.00  0.00    -0.230 NA
ATOM     33  C   UNL     1      -2.149  -5.150  -9.121  0.00  0.00    +0.115 A 
ATOM     34  C   UNL     1      -2.922  -4.215  -9.791  0.00  0.00    +0.039 A 
ATOM     35  C   UNL     1      -3.965  -3.607  -9.111  0.00  0.00    +0.115 A 
ATOM     36  N   UNL     1      -4.193  -3.938  -7.851  0.00  0.00    -0.230 NA
ENDBRANCH  30  31
ENDBRANCH  29  30
ENDBRANCH   2  29
TORSDOF 8
