REMARK  Name = ZINC13346571
REMARK  7 active torsions:
REMARK  status: ('A' for Active; 'I' for Inactive)
REMARK    1  A    between atoms: C_3  and  C_6
REMARK    2  A    between atoms: N_8  and  C_9
REMARK    3  A    between atoms: C_9  and  C_10
REMARK    4  A    between atoms: C_12  and  C_15
REMARK    5  A    between atoms: C_18  and  N_21
REMARK    6  A    between atoms: N_21  and  S_22
REMARK    7  A    between atoms: S_22  and  C_25
REMARK                            x       y       z     vdW  Elec       q    Type
REMARK                         _______ _______ _______ _____ _____    ______ ____
ROOT
ATOM      1  C   UNL     1       4.112  -1.931  -4.276  0.00  0.00    +0.023 A 
ATOM      2  C   UNL     1       3.461  -3.161  -4.350  0.00  0.00    +0.013 A 
ATOM      3  C   UNL     1       2.468  -3.470  -3.446  0.00  0.00    +0.025 A 
ATOM      4  C   UNL     1       2.116  -2.555  -2.459  0.00  0.00    +0.048 A 
ATOM      5  C   UNL     1       2.760  -1.325  -2.387  0.00  0.00    +0.025 A 
ATOM      6  C   UNL     1       3.758  -1.015  -3.286  0.00  0.00    +0.013 A 
ENDROOT
BRANCH   1   9
ATOM      7  C   UNL     1       6.719  -0.586  -6.302  0.00  0.00    +0.245 A 
ATOM      8  N   UNL     1       5.891  -0.446  -5.297  0.00  0.00    -0.190 NA
ATOM      9  C   UNL     1       5.182  -1.596  -5.248  0.00  0.00    +0.202 A 
ATOM     10  N   UNL     1       5.612  -2.357  -6.221  0.00  0.00    -0.056 NA
ATOM     11  O   UNL     1       6.493  -1.792  -6.834  0.00  0.00    -0.336 OA
BRANCH   7  12
ATOM     12  C   UNL     1       7.732   0.424  -6.774  0.00  0.00    +0.203 C 
BRANCH  12  15
ATOM     13  C   UNL     1      10.063   0.992  -6.344  0.00  0.00    +0.251 C 
ATOM     14  O   UNL     1       9.963   1.891  -7.159  0.00  0.00    -0.270 OA
ATOM     15  N   UNL     1       9.003   0.202  -6.080  0.00  0.00    -0.302 N 
ATOM     16  H   UNL     1       9.082  -0.514  -5.430  0.00  0.00    +0.150 HD
BRANCH  13  19
ATOM     17  C   UNL     1      13.579   1.038  -4.995  0.00  0.00    +0.008 A 
ATOM     18  C   UNL     1      12.531   1.456  -5.777  0.00  0.00    +0.021 A 
ATOM     19  C   UNL     1      11.334   0.770  -5.649  0.00  0.00    +0.074 A 
ATOM     20  S   UNL     1      11.746  -0.460  -4.425  0.00  0.00    -0.092 S 
ATOM     21  C   UNL     1      13.400  -0.016  -4.156  0.00  0.00    +0.046 A 
ENDBRANCH  13  19
ENDBRANCH  12  15
ENDBRANCH   7  12
ENDBRANCH   1   9
BRANCH   4  22
ATOM     22  N   UNL     1       1.111  -2.870  -1.545  0.00  0.00    -0.216 N 
ATOM     23  H   UNL     1       0.238  -2.453  -1.621  0.00  0.00    +0.174 HD
BRANCH  22  24
ATOM     24  S   UNL     1       1.408  -3.954  -0.329  0.00  0.00    +0.072 S 
ATOM     25  O   UNL     1       1.972  -5.106  -0.941  0.00  0.00    -0.150 OA
ATOM     26  O   UNL     1       0.228  -4.012   0.461  0.00  0.00    -0.150 OA
BRANCH  24  27
ATOM     27  C   UNL     1       2.665  -3.261   0.693  0.00  0.00    +0.109 A 
ATOM     28  C   UNL     1       2.326  -2.375   1.699  0.00  0.00    +0.030 A 
ATOM     29  C   UNL     1       3.312  -1.831   2.501  0.00  0.00    +0.022 A 
ATOM     30  C   UNL     1       4.637  -2.172   2.296  0.00  0.00    +0.041 A 
ATOM     31  C   UNL     1       4.975  -3.058   1.288  0.00  0.00    +0.022 A 
ATOM     32  C   UNL     1       3.989  -3.602   0.487  0.00  0.00    +0.030 A 
ATOM     33 CL   UNL     1       5.875  -1.489   3.303  0.00  0.00    -0.084 Cl
ENDBRANCH  24  27
ENDBRANCH  22  24
ENDBRANCH   4  22
TORSDOF 7
