REMARK  Name = ZINC02770384
REMARK  8 active torsions:
REMARK  status: ('A' for Active; 'I' for Inactive)
REMARK    1  A    between atoms: C_1  and  C_2
REMARK    2  A    between atoms: C_3  and  C_17
REMARK    3  A    between atoms: C_4  and  C_15
REMARK    4  A    between atoms: C_5  and  N_7
REMARK    5  A    between atoms: C_8  and  C_10
REMARK    6  A    between atoms: C_10  and  C_11
REMARK    7  A    between atoms: C_11  and  C_12
REMARK    8  A    between atoms: C_12  and  C_13
REMARK                            x       y       z     vdW  Elec       q    Type
REMARK                         _______ _______ _______ _____ _____    ______ ____
ROOT
ATOM      1  C   UNL     1       3.783   2.257  -2.598  0.00  0.00    +0.052 C 
ATOM      2  C   UNL     1       4.251   2.525  -1.191  0.00  0.00    -0.002 A 
ATOM      3  C   UNL     1       3.659   2.166  -0.023  0.00  0.00    +0.013 A 
ATOM      4  C   UNL     1       4.313   2.540   1.214  0.00  0.00    +0.088 A 
ATOM      5  C   UNL     1       5.504   3.248   1.107  0.00  0.00    +0.090 A 
ATOM      6  S   UNL     1       5.713   3.392  -0.658  0.00  0.00    -0.077 S 
ENDROOT
BRANCH   3   7
ATOM      7  C   UNL     1       2.384   1.410  -0.014  0.00  0.00    +0.003 A 
ATOM      8  C   UNL     1       1.167   2.089   0.002  0.00  0.00    +0.011 A 
ATOM      9  C   UNL     1      -0.017   1.381   0.010  0.00  0.00    +0.021 A 
ATOM     10  C   UNL     1       0.002  -0.004   0.002  0.00  0.00    +0.042 A 
ATOM     11  C   UNL     1       1.207  -0.685  -0.013  0.00  0.00    +0.040 A 
ATOM     12  C   UNL     1       2.398   0.015  -0.021  0.00  0.00    +0.050 A 
ATOM     13 CL   UNL     1       3.909  -0.840  -0.040  0.00  0.00    -0.083 Cl
ATOM     14 CL   UNL     1      -1.491  -0.889   0.011  0.00  0.00    -0.083 Cl
ENDBRANCH   3   7
BRANCH   5  15
ATOM     15  N   UNL     1       6.325   3.723   2.120  0.00  0.00    -0.279 N 
ATOM     16  C   UNL     1       7.453   4.395   1.814  0.00  0.00    +0.218 C 
ATOM     17  O   UNL     1       7.750   4.585   0.653  0.00  0.00    -0.275 OA
ATOM     18  H   UNL     1       6.088   3.571   3.048  0.00  0.00    +0.155 HD
BRANCH  16  19
ATOM     19  C   UNL     1       8.344   4.911   2.914  0.00  0.00    +0.096 C 
BRANCH  19  20
ATOM     20  C   UNL     1       9.547   5.631   2.300  0.00  0.00    +0.020 C 
BRANCH  20  21
ATOM     21  C   UNL     1      10.452   6.155   3.417  0.00  0.00    +0.125 C 
BRANCH  21  22
ATOM     22  C   UNL     1      11.636   6.864   2.812  0.00  0.00    +0.356 C 
ATOM     23  O   UNL     1      11.745   6.943   1.611  0.00  0.00    -0.246 OA
ATOM     24  O   UNL     1      12.570   7.409   3.608  0.00  0.00    -0.246 OA
ENDBRANCH  21  22
ENDBRANCH  20  21
ENDBRANCH  19  20
ENDBRANCH  16  19
ENDBRANCH   5  15
BRANCH   4  25
ATOM     25  C   UNL     1       3.758   2.196   2.489  0.00  0.00    +0.102 C 
ATOM     26  N   UNL     1       3.318   1.924   3.500  0.00  0.00    -0.191 NA
ENDBRANCH   4  25
TORSDOF 7
