REMARK  Name = ZINC39711010
REMARK  11 active torsions:
REMARK  status: ('A' for Active; 'I' for Inactive)
REMARK    1  A    between atoms: C_1  and  C_2
REMARK    2  A    between atoms: C_7  and  N_8
REMARK    3  A    between atoms: N_11  and  C_14
REMARK    4  A    between atoms: C_14  and  C_16
REMARK    5  A    between atoms: C_14  and  C_25
REMARK    6  A    between atoms: N_20  and  C_21
REMARK    7  A    between atoms: C_21  and  C_22
REMARK    8  A    between atoms: C_22  and  O_23
REMARK    9  A    between atoms: O_23  and  C_24
REMARK   10  A    between atoms: C_30  and  C_38
REMARK   11  A    between atoms: C_32  and  C_37
REMARK                            x       y       z     vdW  Elec       q    Type
REMARK                         _______ _______ _______ _____ _____    ______ ____
ROOT
ATOM      1  C   UNL     1       0.022   3.569   4.340  0.00  0.00    +0.142 C 
ENDROOT
BRANCH   1   2
ATOM      2  C   UNL     1       1.421   3.339   4.916  0.00  0.00    +0.123 C 
ATOM      3  C   UNL     1       1.392   2.046   5.707  0.00  0.00    -0.003 C 
ATOM      4  C   UNL     1       1.739   2.111   7.024  0.00  0.00    -0.006 A 
ATOM      5  C   UNL     1       1.738   0.911   7.861  0.00  0.00    +0.012 A 
ATOM      6  C   UNL     1       2.090   1.023   9.167  0.00  0.00    -0.050 A 
ATOM      7  C   UNL     1       2.450   2.253   9.719  0.00  0.00    +0.008 A 
ATOM      8  C   UNL     1       2.471   3.403   8.996  0.00  0.00    -0.028 A 
ATOM      9  C   UNL     1       2.123   3.396   7.633  0.00  0.00    +0.043 A 
ATOM     10  N   UNL     1       2.148   4.530   6.934  0.00  0.00    -0.284 N 
ATOM     11  C   UNL     1       1.832   4.595   5.652  0.00  0.00    +0.226 C 
ATOM     12  O   UNL     1       1.872   5.660   5.066  0.00  0.00    -0.275 OA
ATOM     13  C   UNL     1       2.871   4.696   9.660  0.00  0.00    +0.046 C 
ATOM     14  C   UNL     1       2.093  -0.206  10.039  0.00  0.00    +0.044 C 
ATOM     15  H   UNL     1       2.410   5.347   7.387  0.00  0.00    +0.155 HD
ENDBRANCH   1   2
BRANCH   1  19
ATOM     16  N   UNL     1      -1.509   0.600   1.799  0.00  0.00    -0.327 N 
ATOM     17  C   UNL     1      -2.389   1.076   2.877  0.00  0.00    +0.120 C 
ATOM     18  C   UNL     1      -1.880   2.440   3.356  0.00  0.00    +0.104 C 
ATOM     19  N   UNL     1      -0.460   2.330   3.716  0.00  0.00    -0.289 NA
ATOM     20  C   UNL     1       0.359   1.974   2.550  0.00  0.00    +0.104 C 
ATOM     21  C   UNL     1      -0.059   0.586   2.041  0.00  0.00    +0.120 C 
BRANCH  16  28
ATOM     22  C   UNL     1      -1.843   2.520  -0.273  0.00  0.00    +0.045 C 
ATOM     23  C   UNL     1      -2.217   1.072  -0.459  0.00  0.00    -0.029 A 
ATOM     24  C   UNL     1      -2.734   0.641  -1.665  0.00  0.00    +0.006 A 
ATOM     25  C   UNL     1      -3.078  -0.686  -1.838  0.00  0.00    +0.020 A 
ATOM     26  C   UNL     1      -2.906  -1.589  -0.802  0.00  0.00    +0.043 A 
ATOM     27  C   UNL     1      -2.389  -1.164   0.407  0.00  0.00    +0.043 A 
ATOM     28  C   UNL     1      -2.038   0.169   0.581  0.00  0.00    +0.034 A 
ATOM     29 CL   UNL     1      -3.339  -3.255  -1.023  0.00  0.00    -0.083 Cl
ENDBRANCH  16  28
ENDBRANCH   1  19
BRANCH   1  30
ATOM     30  C   UNL     1       0.077   4.664   3.306  0.00  0.00    +0.170 A 
ATOM     31  N   UNL     1       0.832   4.691   2.235  0.00  0.00    -0.112 NA
ATOM     32  N   UNL     1       0.592   5.790   1.607  0.00  0.00    -0.023 NA
ATOM     33  N   UNL     1      -0.296   6.465   2.250  0.00  0.00    -0.044 NA
ATOM     34  N   UNL     1      -0.642   5.801   3.301  0.00  0.00    -0.225 N 
BRANCH  34  35
ATOM     35  C   UNL     1      -1.630   6.211   4.302  0.00  0.00    +0.175 C 
BRANCH  35  36
ATOM     36  C   UNL     1      -0.941   7.039   5.389  0.00  0.00    +0.183 C 
BRANCH  36  37
ATOM     37  O   UNL     1      -1.914   7.487   6.335  0.00  0.00    -0.381 OA
ATOM     38  C   UNL     1      -1.373   8.274   7.397  0.00  0.00    +0.194 C 
ENDBRANCH  36  37
ENDBRANCH  35  36
ENDBRANCH  34  35
ENDBRANCH   1  30
TORSDOF 7
