REMARK  Name = ZINC00302475
REMARK  3 active torsions:
REMARK  status: ('A' for Active; 'I' for Inactive)
REMARK    1  A    between atoms: C_1  and  C_2
REMARK    2  A    between atoms: C_15  and  C_18
REMARK    3  A    between atoms: C_20  and  N_25
REMARK                            x       y       z     vdW  Elec       q    Type
REMARK                         _______ _______ _______ _____ _____    ______ ____
ROOT
ATOM      1  C   UNL     1      -1.699   6.888   0.432  0.00  0.00    +0.044 C 
ATOM      2  C   UNL     1      -1.937   5.553  -0.225  0.00  0.00    -0.050 A 
ATOM      3  C   UNL     1      -3.015   5.387  -1.076  0.00  0.00    +0.005 A 
ATOM      4  C   UNL     1      -3.231   4.162  -1.675  0.00  0.00    +0.023 A 
ATOM      5  C   UNL     1      -2.369   3.103  -1.422  0.00  0.00    +0.031 A 
ATOM      6  C   UNL     1      -1.286   3.265  -0.572  0.00  0.00    -0.019 A 
ATOM      7  C   UNL     1      -1.080   4.501   0.025  0.00  0.00    +0.009 A 
ATOM      8  C   UNL     1      -0.330   2.154  -0.272  0.00  0.00    +0.049 C 
ATOM      9  C   UNL     1      -0.553   1.593   1.112  0.00  0.00    -0.023 C 
ATOM     10  C   UNL     1      -0.353   0.295   1.116  0.00  0.00    -0.030 C 
ATOM     11  C   UNL     1       0.031  -0.183  -0.271  0.00  0.00    +0.033 C 
ATOM     12  C   UNL     1      -0.504   0.941  -1.206  0.00  0.00    +0.029 C 
ATOM     13  C   UNL     1      -1.994   0.671  -1.439  0.00  0.00    +0.106 C 
ATOM     14  N   UNL     1      -2.606   1.865  -2.030  0.00  0.00    -0.336 N 
ATOM     15  H   UNL     1      -3.162   1.799  -2.822  0.00  0.00    +0.147 HD
ENDROOT
BRANCH  13  16
ATOM     16  C   UNL     1      -2.662   0.358  -0.125  0.00  0.00    -0.007 A 
ATOM     17  C   UNL     1      -3.121   1.385   0.678  0.00  0.00    +0.039 A 
ATOM     18  C   UNL     1      -3.734   1.099   1.883  0.00  0.00    +0.127 A 
ATOM     19  C   UNL     1      -3.888  -0.215   2.286  0.00  0.00    +0.034 A 
ATOM     20  C   UNL     1      -3.430  -1.242   1.484  0.00  0.00    +0.022 A 
ATOM     21  C   UNL     1      -2.820  -0.956   0.275  0.00  0.00    +0.046 A 
ATOM     22 CL   UNL     1      -2.249  -2.247  -0.736  0.00  0.00    -0.083 Cl
BRANCH  18  23
ATOM     23  N   UNL     1      -4.226   2.199   2.743  0.00  0.00    +0.056 N 
ATOM     24  O   UNL     1      -4.090   3.356   2.388  0.00  0.00    -0.126 OA
ATOM     25  O   UNL     1      -4.766   1.947   3.805  0.00  0.00    -0.126 OA
ENDBRANCH  18  23
ENDBRANCH  13  16
TORSDOF 2
