REMARK  Name = ZINC49512966
REMARK  11 active torsions:
REMARK  status: ('A' for Active; 'I' for Inactive)
REMARK    1  A    between atoms: C_1  and  C_2
REMARK    2  A    between atoms: C_2  and  C_3
REMARK    3  A    between atoms: C_2  and  C_4
REMARK    4  A    between atoms: C_13  and  N_16
REMARK    5  A    between atoms: C_17  and  C_19
REMARK    6  A    between atoms: N_21  and  C_22
REMARK    7  A    between atoms: C_22  and  C_23
REMARK    8  A    between atoms: C_23  and  C_25
REMARK    9  A    between atoms: C_23  and  N_31
REMARK   10  A    between atoms: N_29  and  C_30
REMARK   11  A    between atoms: N_34  and  C_37
REMARK                            x       y       z     vdW  Elec       q    Type
REMARK                         _______ _______ _______ _____ _____    ______ ____
ROOT
ATOM      1  C   UNL     1      -8.768  -0.959   1.923  0.00  0.00    +0.299 C 
ATOM      2  O   UNL     1      -8.610   0.241   1.827  0.00  0.00    -0.265 OA
ATOM      3  N   UNL     1     -10.011  -1.468   2.035  0.00  0.00    -0.306 N 
ATOM      4  H   UNL     1     -10.138  -2.426   2.112  0.00  0.00    +0.149 HD
ENDROOT
BRANCH   1   6
ATOM      5  N   UNL     1      -6.343  -1.362   1.807  0.00  0.00    -0.278 N 
ATOM      6  C   UNL     1      -7.586  -1.871   1.919  0.00  0.00    +0.303 C 
ATOM      7  O   UNL     1      -7.744  -3.070   2.015  0.00  0.00    -0.265 OA
ATOM      8  H   UNL     1      -6.210  -0.401   1.808  0.00  0.00    +0.155 HD
BRANCH   5  18
ATOM      9  C   UNL     1      -1.520  -1.099   3.164  0.00  0.00    +0.222 C 
ATOM     10  O   UNL     1      -2.352  -0.244   2.946  0.00  0.00    -0.275 OA
ATOM     11  N   UNL     1      -1.721  -2.361   2.734  0.00  0.00    -0.271 N 
ATOM     12  C   UNL     1      -0.667  -3.375   2.875  0.00  0.00    +0.114 C 
ATOM     13  C   UNL     1      -0.581  -4.148   1.553  0.00  0.00    +0.024 C 
ATOM     14  C   UNL     1      -1.904  -4.878   1.321  0.00  0.00    +0.038 C 
ATOM     15  C   UNL     1      -3.063  -3.925   1.456  0.00  0.00    -0.026 A 
ATOM     16  C   UNL     1      -2.941  -2.728   2.149  0.00  0.00    +0.041 A 
ATOM     17  C   UNL     1      -4.029  -1.874   2.266  0.00  0.00    +0.047 A 
ATOM     18  C   UNL     1      -5.245  -2.218   1.691  0.00  0.00    +0.036 A 
ATOM     19  C   UNL     1      -5.366  -3.418   1.000  0.00  0.00    +0.024 A 
ATOM     20  C   UNL     1      -4.276  -4.261   0.878  0.00  0.00    +0.007 A 
BRANCH   9  22
ATOM     21  C   UNL     1      -0.283   0.733   4.287  0.00  0.00    +0.017 C 
ATOM     22  C   UNL     1      -0.261  -0.751   3.917  0.00  0.00    +0.069 C 
ATOM     23  C   UNL     1      -0.180  -1.594   5.191  0.00  0.00    +0.017 C 
ENDBRANCH   9  22
ENDBRANCH   5  18
ENDBRANCH   1   6
BRANCH   3  24
ATOM     24  C   UNL     1     -11.171  -0.573   2.039  0.00  0.00    +0.129 C 
BRANCH  24  25
ATOM     25  C   UNL     1     -12.456  -1.404   2.050  0.00  0.00    +0.121 C 
BRANCH  25  26
ATOM     26  N   UNL     1     -12.434  -2.353   0.929  0.00  0.00    -0.296 NA
ATOM     27  C   UNL     1     -13.565  -3.289   1.010  0.00  0.00    +0.066 C 
ATOM     28  C   UNL     1     -13.473  -4.296  -0.139  0.00  0.00    -0.064 C 
ATOM     29  N   UNL     1     -13.498  -3.580  -1.421  0.00  0.00    +0.379 N 
ATOM     30  C   UNL     1     -12.350  -2.667  -1.497  0.00  0.00    -0.064 C 
ATOM     31  C   UNL     1     -12.432  -1.647  -0.360  0.00  0.00    +0.066 C 
ATOM     32  C   UNL     1     -13.428  -4.548  -2.524  0.00  0.00    -0.096 C 
ATOM     33  H   UNL     1     -14.354  -3.050  -1.494  0.00  0.00    -0.082 HD
ENDBRANCH  25  26
BRANCH  25  34
ATOM     34  C   UNL     1     -13.646  -0.490   1.911  0.00  0.00    +0.037 A 
ATOM     35  C   UNL     1     -14.636  -0.612   1.003  0.00  0.00    +0.024 A 
ATOM     36  C   UNL     1     -15.542   0.444   1.221  0.00  0.00    +0.019 A 
ATOM     37  C   UNL     1     -15.072   1.171   2.255  0.00  0.00    +0.085 A 
ATOM     38  N   UNL     1     -13.912   0.600   2.686  0.00  0.00    -0.352 N 
ATOM     39  C   UNL     1     -13.086   1.079   3.797  0.00  0.00    +0.148 C 
ENDBRANCH  25  34
ENDBRANCH  24  25
ENDBRANCH   3  24
TORSDOF 7
