REMARK  Name = ZINC47133823
REMARK  8 active torsions:
REMARK  status: ('A' for Active; 'I' for Inactive)
REMARK    1  A    between atoms: C_1  and  C_2
REMARK    2  A    between atoms: N_7  and  C_10
REMARK    3  A    between atoms: C_12  and  C_18
REMARK    4  A    between atoms: C_12  and  C_19
REMARK    5  A    between atoms: C_14  and  C_16
REMARK    6  A    between atoms: C_14  and  C_17
REMARK    7  A    between atoms: C_21  and  C_22
REMARK    8  A    between atoms: C_22  and  C_24
REMARK                            x       y       z     vdW  Elec       q    Type
REMARK                         _______ _______ _______ _____ _____    ______ ____
ROOT
ATOM      1  C   UNL     1      -0.524   1.555  -0.090  0.00  0.00    +0.046 C 
ATOM      2  C   UNL     1      -0.397   0.054  -0.083  0.00  0.00    -0.018 A 
ATOM      3  C   UNL     1      -0.347  -0.652  -1.284  0.00  0.00    +0.076 A 
ATOM      4  C   UNL     1      -0.228  -2.058  -1.172  0.00  0.00    +0.116 A 
ATOM      5  N   UNL     1      -0.170  -2.841  -2.241  0.00  0.00    -0.230 NA
ATOM      6  C   UNL     1      -0.221  -2.355  -3.451  0.00  0.00    +0.203 A 
ATOM      7  N   UNL     1      -0.335  -1.024  -3.685  0.00  0.00    -0.296 N 
ATOM      8  C   UNL     1      -0.401  -0.138  -2.673  0.00  0.00    +0.263 A 
ATOM      9  O   UNL     1      -0.503   1.056  -2.893  0.00  0.00    -0.267 OA
ATOM     10  S   UNL     1      -0.191  -2.331   0.581  0.00  0.00    -0.065 S 
ATOM     11  C   UNL     1      -0.325  -0.632   1.111  0.00  0.00    +0.060 A 
ENDROOT
BRANCH   7  12
ATOM     12  C   UNL     1      -0.386  -0.539  -5.070  0.00  0.00    +0.089 C 
ATOM     13  C   UNL     1      -1.570  -1.192  -5.787  0.00  0.00    +0.012 C 
ATOM     14  C   UNL     1      -1.630  -0.706  -7.235  0.00  0.00    -0.071 C 
ATOM     15  N   UNL     1      -0.371  -0.913  -7.935  0.00  0.00    +0.386 N 
ATOM     16  C   UNL     1       0.852  -0.515  -7.256  0.00  0.00    -0.071 C 
ATOM     17  C   UNL     1       0.896  -0.947  -5.794  0.00  0.00    +0.012 C 
ATOM     18  C   UNL     1       1.095   0.992  -7.364  0.00  0.00    -0.010 C 
ATOM     19  C   UNL     1       2.030  -1.214  -7.976  0.00  0.00    -0.010 C 
ATOM     20  C   UNL     1      -2.084   0.752  -7.285  0.00  0.00    -0.010 C 
ATOM     21  C   UNL     1      -2.709  -1.547  -7.956  0.00  0.00    -0.010 C 
ATOM     22  H   UNL     1      -0.297  -1.904  -8.177  0.00  0.00    -0.084 HD
ATOM     23  H   UNL     1      -0.417  -0.421  -8.831  0.00  0.00    -0.084 HD
ENDBRANCH   7  12
BRANCH  11  24
ATOM     24  C   UNL     1      -0.352  -0.118   2.427  0.00  0.00    +0.167 C 
ATOM     25  O   UNL     1      -0.451   1.079   2.609  0.00  0.00    -0.292 OA
ATOM     26  C   UNL     1      -0.259  -1.054   3.604  0.00  0.00    +0.092 C 
ENDBRANCH  11  24
TORSDOF 2
