REMARK  Name = ZINC06220653
REMARK  5 active torsions:
REMARK  status: ('A' for Active; 'I' for Inactive)
REMARK    1  A    between atoms: C_1  and  C_2
REMARK    2  A    between atoms: C_2  and  C_3
REMARK    3  A    between atoms: C_6  and  C_9
REMARK    4  A    between atoms: C_15  and  C_17
REMARK    5  A    between atoms: C_17  and  N_18
REMARK                            x       y       z     vdW  Elec       q    Type
REMARK                         _______ _______ _______ _____ _____    ______ ____
ROOT
ATOM      1  C   UNL     1       0.002  -0.004   0.002  0.00  0.00    +0.080 A 
ATOM      2  C   UNL     1      -1.169  -0.710   0.009  0.00  0.00    +0.076 A 
ATOM      3  S   UNL     1      -0.545  -2.386  -0.006  0.00  0.00    -0.060 S 
ATOM      4  C   UNL     1       1.195  -1.976  -0.021  0.00  0.00    +0.165 A 
ATOM      5  N   UNL     1       1.155  -0.657  -0.018  0.00  0.00    -0.225 NA
ATOM      6  N   UNL     1       2.297  -2.822  -0.036  0.00  0.00    -0.263 N 
ATOM      7  C   UNL     1       2.121  -4.158  -0.043  0.00  0.00    +0.237 C 
ATOM      8  O   UNL     1       1.001  -4.622  -0.035  0.00  0.00    -0.274 OA
ATOM      9  H   UNL     1       3.193  -2.451  -0.043  0.00  0.00    +0.157 HD
ENDROOT
BRANCH   1  13
ATOM     10  C   UNL     1      -0.056   4.247   0.025  0.00  0.00    -0.048 A 
ATOM     11  C   UNL     1       1.153   3.575   0.010  0.00  0.00    +0.004 A 
ATOM     12  C   UNL     1       1.178   2.195   0.003  0.00  0.00    +0.010 A 
ATOM     13  C   UNL     1      -0.018   1.479   0.010  0.00  0.00    +0.001 A 
ATOM     14  C   UNL     1      -1.233   2.162   0.020  0.00  0.00    +0.010 A 
ATOM     15  C   UNL     1      -1.246   3.542   0.033  0.00  0.00    +0.004 A 
BRANCH  10  17
ATOM     16  C   UNL     1      -0.097   6.271  -1.406  0.00  0.00    +0.009 C 
ATOM     17  C   UNL     1      -0.076   5.754   0.033  0.00  0.00    +0.032 C 
ENDBRANCH  10  17
ENDBRANCH   1  13
BRANCH   7  18
ATOM     18  C   UNL     1       3.317  -5.076  -0.060  0.00  0.00    +0.214 C 
BRANCH  18  19
ATOM     19  N   UNL     1       2.863  -6.469  -0.064  0.00  0.00    -0.215 N 
ATOM     20  C   UNL     1       2.617  -7.184  -1.183  0.00  0.00    +0.247 C 
ATOM     21  O   UNL     1       2.725  -6.812  -2.332  0.00  0.00    -0.273 OA
ATOM     22  C   UNL     1       2.181  -8.543  -0.699  0.00  0.00    +0.113 C 
ATOM     23  C   UNL     1       3.123  -9.640  -1.212  0.00  0.00    +0.035 C 
ATOM     24  C   UNL     1       2.188 -10.853  -1.456  0.00  0.00    +0.003 C 
ATOM     25  C   UNL     1       0.898 -10.189  -2.002  0.00  0.00    +0.003 C 
ATOM     26  C   UNL     1       0.771  -8.882  -1.189  0.00  0.00    +0.035 C 
ATOM     27  N   UNL     1       2.229  -8.445   0.762  0.00  0.00    -0.285 N 
ATOM     28  C   UNL     1       2.646  -7.193   1.041  0.00  0.00    +0.310 C 
ATOM     29  O   UNL     1       2.804  -6.769   2.169  0.00  0.00    -0.252 OA
ATOM     30  H   UNL     1       2.010  -9.142   1.400  0.00  0.00    +0.151 HD
ENDBRANCH  18  19
ENDBRANCH   7  18
TORSDOF 4
