REMARK  Name = ZINC01392569
REMARK  7 active torsions:
REMARK  status: ('A' for Active; 'I' for Inactive)
REMARK    1  A    between atoms: C_4  and  C_8
REMARK    2  A    between atoms: C_8  and  C_9
REMARK    3  A    between atoms: C_10  and  O_24
REMARK    4  A    between atoms: C_13  and  C_16
REMARK    5  A    between atoms: C_14  and  O_15
REMARK    6  A    between atoms: N_17  and  C_18
REMARK    7  A    between atoms: C_18  and  C_19
REMARK                            x       y       z     vdW  Elec       q    Type
REMARK                         _______ _______ _______ _____ _____    ______ ____
ROOT
ATOM      1  C   UNL     1       4.174  -0.967   1.374  0.00  0.00    +0.040 A 
ATOM      2  C   UNL     1       4.955  -0.027   2.031  0.00  0.00    +0.124 A 
ATOM      3  C   UNL     1       5.366  -0.249   3.341  0.00  0.00    +0.046 A 
ATOM      4  C   UNL     1       5.002  -1.403   3.996  0.00  0.00    +0.016 A 
ATOM      5  C   UNL     1       4.215  -2.357   3.343  0.00  0.00    +0.033 A 
ATOM      6  C   UNL     1       3.796  -2.130   2.023  0.00  0.00    +0.132 A 
ENDROOT
BRANCH   5   7
ATOM      7  C   UNL     1       3.822  -3.593   4.040  0.00  0.00    +0.090 C 
ATOM      8  N   UNL     1       3.006  -4.425   3.474  0.00  0.00    -0.383 N 
ATOM      9  H   UNL     1       2.711  -4.270   2.563  0.00  0.00    +0.160 HD
BRANCH   8  10
ATOM     10  C   UNL     1       2.530  -5.599   4.209  0.00  0.00    +0.186 C 
BRANCH  10  11
ATOM     11  C   UNL     1       1.042  -5.487   4.425  0.00  0.00    +0.124 A 
ATOM     12  C   UNL     1       0.090  -5.952   3.597  0.00  0.00    +0.046 A 
ATOM     13  C   UNL     1      -1.155  -5.633   4.184  0.00  0.00    +0.041 A 
ATOM     14  C   UNL     1      -0.890  -4.991   5.336  0.00  0.00    +0.195 A 
ATOM     15  O   UNL     1       0.443  -4.910   5.479  0.00  0.00    -0.466 OA
ENDBRANCH  10  11
ENDBRANCH   8  10
ENDBRANCH   5   7
BRANCH   6  16
ATOM     16  O   UNL     1       3.028  -3.048   1.384  0.00  0.00    -0.506 OA
ATOM     17  H   UNL     1       3.534  -3.716   0.902  0.00  0.00    +0.292 HD
ENDBRANCH   6  16
BRANCH   2  18
ATOM     18  O   UNL     1       5.319   1.114   1.392  0.00  0.00    -0.506 OA
ATOM     19  H   UNL     1       4.694   1.844   1.504  0.00  0.00    +0.292 HD
ENDBRANCH   2  18
BRANCH   1  20
ATOM     20  C   UNL     1       3.732  -0.720  -0.045  0.00  0.00    +0.082 C 
BRANCH  20  24
ATOM     21  C   UNL     1      -0.008   1.349  -0.034  0.00  0.00    +0.004 A 
ATOM     22  C   UNL     1       1.176   2.063  -0.033  0.00  0.00    +0.039 A 
ATOM     23  C   UNL     1       2.388   1.394  -0.037  0.00  0.00    +0.128 A 
ATOM     24  C   UNL     1       2.413   0.010  -0.041  0.00  0.00    +0.011 A 
ATOM     25  C   UNL     1       1.228  -0.703  -0.041  0.00  0.00    +0.047 A 
ATOM     26  C   UNL     1       0.018  -0.032  -0.037  0.00  0.00    +0.020 A 
ATOM     27 CL   UNL     1       1.259  -2.439  -0.046  0.00  0.00    -0.083 Cl
ATOM     28  F   UNL     1       3.545   2.091  -0.037  0.00  0.00    -0.205 F 
ENDBRANCH  20  24
ENDBRANCH   1  20
TORSDOF 7
