REMARK  Name = ZINC12285207
REMARK  5 active torsions:
REMARK  status: ('A' for Active; 'I' for Inactive)
REMARK    1  A    between atoms: C_1  and  C_2
REMARK    2  A    between atoms: C_5  and  S_8
REMARK    3  A    between atoms: S_8  and  N_11
REMARK    4  A    between atoms: N_19  and  N_20
REMARK    5  A    between atoms: C_21  and  C_23
REMARK                            x       y       z     vdW  Elec       q    Type
REMARK                         _______ _______ _______ _____ _____    ______ ____
ROOT
ATOM      1  N   UNL     1       1.651  -4.999  -0.034  0.00  0.00    -0.133 N 
ATOM      2  C   UNL     1       2.397  -5.210  -1.188  0.00  0.00    +0.069 A 
ATOM      3  C   UNL     1       2.067  -5.101  -2.535  0.00  0.00    +0.026 A 
ATOM      4  C   UNL     1       3.011  -5.371  -3.504  0.00  0.00    +0.002 A 
ATOM      5  C   UNL     1       4.295  -5.753  -3.151  0.00  0.00    +0.001 A 
ATOM      6  C   UNL     1       4.641  -5.867  -1.819  0.00  0.00    +0.012 A 
ATOM      7  C   UNL     1       3.696  -5.596  -0.836  0.00  0.00    +0.030 A 
ATOM      8  C   UNL     1       3.738  -5.621   0.645  0.00  0.00    +0.154 C 
ATOM      9  N   UNL     1       4.758  -5.928   1.410  0.00  0.00    -0.174 NA
ATOM     10  C   UNL     1       2.383  -5.219   1.071  0.00  0.00    +0.291 C 
ATOM     11  O   UNL     1       1.997  -5.109   2.220  0.00  0.00    -0.266 OA
ENDROOT
BRANCH   9  12
ATOM     12  N   UNL     1       4.621  -5.900   2.804  0.00  0.00    -0.202 N 
ATOM     13  C   UNL     1       5.669  -6.215   3.591  0.00  0.00    +0.270 C 
ATOM     14  O   UNL     1       6.734  -6.524   3.090  0.00  0.00    -0.268 OA
ATOM     15  H   UNL     1       3.772  -5.653   3.203  0.00  0.00    +0.178 HD
BRANCH  13  16
ATOM     16  C   UNL     1       5.526  -6.186   5.048  0.00  0.00    +0.075 A 
ATOM     17  C   UNL     1       6.471  -6.466   6.025  0.00  0.00    +0.021 A 
ATOM     18  C   UNL     1       6.037  -6.351   7.324  0.00  0.00    +0.008 A 
ATOM     19  C   UNL     1       4.753  -5.982   7.560  0.00  0.00    +0.046 A 
ATOM     20  S   UNL     1       4.096  -5.772   6.028  0.00  0.00    -0.092 S 
ENDBRANCH  13  16
ENDBRANCH   9  12
BRANCH   1  21
ATOM     21  S   UNL     1       0.063  -4.530  -0.023  0.00  0.00    +0.081 S 
ATOM     22  O   UNL     1      -0.476  -4.950   1.223  0.00  0.00    -0.149 OA
ATOM     23  O   UNL     1      -0.490  -4.937  -1.267  0.00  0.00    -0.149 OA
BRANCH  21  28
ATOM     24  C   UNL     1      -0.018   1.503   0.010  0.00  0.00    +0.044 C 
ATOM     25  C   UNL     1       0.002  -0.004   0.002  0.00  0.00    -0.050 A 
ATOM     26  C   UNL     1       0.006  -0.689  -1.199  0.00  0.00    +0.005 A 
ATOM     27  C   UNL     1       0.025  -2.071  -1.206  0.00  0.00    +0.029 A 
ATOM     28  C   UNL     1       0.040  -2.768  -0.013  0.00  0.00    +0.109 A 
ATOM     29  C   UNL     1       0.037  -2.084   1.188  0.00  0.00    +0.029 A 
ATOM     30  C   UNL     1       0.023  -0.702   1.195  0.00  0.00    +0.005 A 
ENDBRANCH  21  28
ENDBRANCH   1  21
TORSDOF 4
