REMARK  Name = ZINC14011487
REMARK  13 active torsions:
REMARK  status: ('A' for Active; 'I' for Inactive)
REMARK    1  A    between atoms: C_1  and  C_2
REMARK    2  A    between atoms: C_2  and  C_3
REMARK    3  A    between atoms: C_3  and  C_5
REMARK    4  A    between atoms: C_3  and  N_6
REMARK    5  A    between atoms: C_10  and  C_11
REMARK    6  A    between atoms: C_14  and  O_20
REMARK    7  A    between atoms: C_15  and  O_17
REMARK    8  A    between atoms: O_17  and  C_18
REMARK    9  A    between atoms: C_18  and  C_19
REMARK   10  A    between atoms: O_20  and  C_21
REMARK   11  A    between atoms: C_21  and  C_22
REMARK   12  A    between atoms: C_22  and  O_24
REMARK   13  A    between atoms: O_24  and  C_25
REMARK                            x       y       z     vdW  Elec       q    Type
REMARK                         _______ _______ _______ _____ _____    ______ ____
ROOT
ATOM      1  C   UNL     1       1.287   1.909   0.239  0.00  0.00    -0.020 A 
ATOM      2  C   UNL     1       1.433   3.261   0.574  0.00  0.00    +0.012 A 
ATOM      3  C   UNL     1       0.318   4.035   0.812  0.00  0.00    +0.050 A 
ATOM      4  C   UNL     1      -0.951   3.478   0.721  0.00  0.00    +0.163 A 
ATOM      5  C   UNL     1      -1.104   2.134   0.383  0.00  0.00    +0.162 A 
ATOM      6  C   UNL     1       0.007   1.349   0.147  0.00  0.00    +0.057 A 
ENDROOT
BRANCH   1  11
ATOM      7  N   UNL     1       4.810   3.135  -1.990  0.00  0.00    -0.226 N 
ATOM      8  C   UNL     1       3.649   2.886  -1.408  0.00  0.00    +0.260 C 
ATOM      9  O   UNL     1       2.728   3.681  -1.453  0.00  0.00    -0.269 OA
ATOM     10  C   UNL     1       3.527   1.598  -0.697  0.00  0.00    +0.080 C 
ATOM     11  C   UNL     1       2.473   1.082  -0.015  0.00  0.00    +0.028 C 
ATOM     12  S   UNL     1       5.148   0.901  -0.987  0.00  0.00    -0.026 S 
ATOM     13  C   UNL     1       5.826   2.249  -1.943  0.00  0.00    +0.286 C 
ATOM     14  O   UNL     1       6.935   2.344  -2.433  0.00  0.00    -0.262 OA
BRANCH   7  15
ATOM     15  C   UNL     1       4.995   4.399  -2.707  0.00  0.00    +0.082 C 
ATOM     16  C   UNL     1       6.151   5.178  -2.076  0.00  0.00    +0.028 C 
BRANCH  15  18
ATOM     17  C   UNL     1       4.110   3.442  -4.838  0.00  0.00    +0.006 C 
ATOM     18  C   UNL     1       5.316   4.110  -4.175  0.00  0.00    +0.019 C 
ENDBRANCH  15  18
ENDBRANCH   7  15
ENDBRANCH   1  11
BRANCH   5  19
ATOM     19  O   UNL     1      -2.349   1.595   0.289  0.00  0.00    -0.489 OA
BRANCH  19  20
ATOM     20  C   UNL     1      -2.433   0.211  -0.057  0.00  0.00    +0.226 C 
ATOM     21  C   UNL     1      -3.902  -0.213  -0.115  0.00  0.00    +0.048 C 
ENDBRANCH  19  20
ENDBRANCH   5  19
BRANCH   4  22
ATOM     22  O   UNL     1      -2.046   4.246   0.958  0.00  0.00    -0.477 OA
BRANCH  22  23
ATOM     23  C   UNL     1      -1.817   5.616   1.294  0.00  0.00    +0.349 C 
BRANCH  23  24
ATOM     24  C   UNL     1      -3.138   6.306   1.519  0.00  0.00    +0.345 C 
ATOM     25  O   UNL     1      -4.169   5.688   1.404  0.00  0.00    -0.247 OA
BRANCH  24  26
ATOM     26  O   UNL     1      -3.168   7.607   1.849  0.00  0.00    -0.466 OA
ATOM     27  C   UNL     1      -4.476   8.205   2.050  0.00  0.00    +0.280 C 
ENDBRANCH  24  26
ENDBRANCH  23  24
ENDBRANCH  22  23
ENDBRANCH   4  22
TORSDOF 9
