REMARK  Name = ZINC58444582
REMARK  6 active torsions:
REMARK  status: ('A' for Active; 'I' for Inactive)
REMARK    1  A    between atoms: C_4  and  S_9
REMARK    2  A    between atoms: C_5  and  C_7
REMARK    3  A    between atoms: S_9  and  C_10
REMARK    4  A    between atoms: C_15  and  C_16
REMARK    5  A    between atoms: N_18  and  N_19
REMARK    6  A    between atoms: C_20  and  C_22
REMARK                            x       y       z     vdW  Elec       q    Type
REMARK                         _______ _______ _______ _____ _____    ______ ____
ROOT
ATOM      1  C   UNL     1       6.964  -1.214  -0.386  0.00  0.00    +0.261 C 
ATOM      2  O   UNL     1       6.151  -2.113  -0.280  0.00  0.00    -0.269 OA
ATOM      3  N   UNL     1       8.272  -1.503  -0.535  0.00  0.00    -0.230 N 
ATOM      4  H   UNL     1       8.920  -0.786  -0.620  0.00  0.00    +0.173 HD
ENDROOT
BRANCH   1  10
ATOM      5  C   UNL     1       5.156   0.496  -0.196  0.00  0.00    +0.025 A 
ATOM      6  C   UNL     1       4.750   1.825  -0.159  0.00  0.00    +0.016 A 
ATOM      7  C   UNL     1       5.681   2.836  -0.280  0.00  0.00    +0.001 A 
ATOM      8  C   UNL     1       7.025   2.537  -0.440  0.00  0.00    +0.001 A 
ATOM      9  C   UNL     1       7.447   1.226  -0.479  0.00  0.00    +0.014 A 
ATOM     10  C   UNL     1       6.518   0.191  -0.351  0.00  0.00    +0.052 A 
BRANCH   5  11
ATOM     11  S   UNL     1       3.970  -0.797  -0.042  0.00  0.00    -0.087 S 
BRANCH  11  15
ATOM     12  C   UNL     1       0.083   1.374   0.843  0.00  0.00    +0.001 A 
ATOM     13  C   UNL     1       0.324   0.860  -0.421  0.00  0.00    +0.001 A 
ATOM     14  C   UNL     1       1.505   0.200  -0.693  0.00  0.00    +0.016 A 
ATOM     15  C   UNL     1       2.462   0.046   0.302  0.00  0.00    +0.030 A 
ATOM     16  C   UNL     1       2.220   0.566   1.584  0.00  0.00    +0.065 A 
ATOM     17  C   UNL     1       1.020   1.232   1.843  0.00  0.00    +0.020 A 
BRANCH  16  18
ATOM     18  C   UNL     1       3.198   0.414   2.619  0.00  0.00    +0.100 C 
ATOM     19  N   UNL     1       3.974   0.294   3.440  0.00  0.00    -0.191 NA
ENDBRANCH  16  18
ENDBRANCH  11  15
ENDBRANCH   5  11
ENDBRANCH   1  10
BRANCH   3  20
ATOM     20  N   UNL     1       8.695  -2.838  -0.568  0.00  0.00    -0.230 N 
ATOM     21  C   UNL     1      10.003  -3.126  -0.717  0.00  0.00    +0.260 C 
ATOM     22  O   UNL     1      10.816  -2.228  -0.823  0.00  0.00    -0.269 OA
ATOM     23  H   UNL     1       8.047  -3.554  -0.483  0.00  0.00    +0.173 HD
BRANCH  21  24
ATOM     24  C   UNL     1      10.449  -4.533  -0.752  0.00  0.00    +0.042 A 
ATOM     25  C   UNL     1       9.517  -5.567  -0.635  0.00  0.00    +0.017 A 
ATOM     26  C   UNL     1       9.936  -6.878  -0.667  0.00  0.00    +0.050 A 
ATOM     27  C   UNL     1      11.286  -7.179  -0.815  0.00  0.00    +0.162 A 
ATOM     28  C   UNL     1      12.220  -6.153  -0.933  0.00  0.00    +0.163 A 
ATOM     29  C   UNL     1      11.805  -4.834  -0.906  0.00  0.00    +0.062 A 
ATOM     30  O   UNL     1      13.544  -6.431  -1.086  0.00  0.00    -0.485 OA
ATOM     31  C   UNL     1      13.967  -7.755  -0.742  0.00  0.00    +0.270 C 
ATOM     32  C   UNL     1      12.980  -8.752  -1.365  0.00  0.00    +0.270 C 
ATOM     33  O   UNL     1      11.677  -8.481  -0.839  0.00  0.00    -0.485 OA
ENDBRANCH  21  24
ENDBRANCH   3  20
TORSDOF 6
