REMARK  Name = ZINC43396430
REMARK  6 active torsions:
REMARK  status: ('A' for Active; 'I' for Inactive)
REMARK    1  A    between atoms: C_1  and  C_2
REMARK    2  A    between atoms: C_5  and  C_18
REMARK    3  A    between atoms: C_6  and  N_8
REMARK    4  A    between atoms: N_8  and  C_9
REMARK    5  A    between atoms: C_15  and  C_17
REMARK    6  A    between atoms: C_18  and  N_20
REMARK                            x       y       z     vdW  Elec       q    Type
REMARK                         _______ _______ _______ _____ _____    ______ ____
ROOT
ATOM      1  C   UNL     1      -0.011   1.503   0.001  0.00  0.00    +0.065 C 
ATOM      2  C   UNL     1       0.005  -0.004  -0.003  0.00  0.00    +0.040 A 
ATOM      3  C   UNL     1       0.004  -0.680  -1.210  0.00  0.00    +0.024 A 
ATOM      4  C   UNL     1       0.020  -2.064  -1.215  0.00  0.00    +0.015 A 
ATOM      5  C   UNL     1       0.036  -2.734   0.014  0.00  0.00    +0.043 A 
ATOM      6  C   UNL     1       0.036  -1.976   1.198  0.00  0.00    +0.129 A 
ATOM      7  N   UNL     1       0.026  -0.653   1.145  0.00  0.00    -0.237 NA
ENDROOT
BRANCH   6   8
ATOM      8  N   UNL     1       0.051  -2.616   2.424  0.00  0.00    -0.325 N 
ATOM      9  H   UNL     1       0.137  -3.581   2.467  0.00  0.00    +0.148 HD
BRANCH   8  10
ATOM     10  C   UNL     1      -0.063  -1.835   3.659  0.00  0.00    +0.075 C 
ATOM     11  C   UNL     1      -1.540  -1.588   3.971  0.00  0.00    +0.022 C 
ATOM     12  C   UNL     1      -2.256  -2.929   4.147  0.00  0.00    +0.002 C 
ATOM     13  C   UNL     1      -1.613  -3.702   5.301  0.00  0.00    +0.000 C 
ATOM     14  C   UNL     1      -0.136  -3.950   4.988  0.00  0.00    +0.005 C 
ATOM     15  C   UNL     1       0.580  -2.609   4.812  0.00  0.00    +0.006 C 
ATOM     16  C   UNL     1       2.057  -2.856   4.500  0.00  0.00    +0.009 C 
ENDBRANCH   8  10
ENDBRANCH   6   8
BRANCH   5  17
ATOM     17  C   UNL     1       0.052  -4.205   0.065  0.00  0.00    +0.080 C 
ATOM     18  S   UNL     1       1.538  -5.049  -0.043  0.00  0.00    -0.035 S 
BRANCH  17  19
ATOM     19  N   UNL     1      -1.102  -4.888   0.198  0.00  0.00    -0.352 N 
ATOM     20  H   UNL     1      -1.944  -4.410   0.259  0.00  0.00    +0.143 HD
ATOM     21  H   UNL     1      -1.091  -5.857   0.232  0.00  0.00    +0.143 HD
ENDBRANCH  17  19
ENDBRANCH   5  17
TORSDOF 4
