REMARK  Name = ZINC04577439
REMARK  5 active torsions:
REMARK  status: ('A' for Active; 'I' for Inactive)
REMARK    1  A    between atoms: C_1  and  C_2
REMARK    2  A    between atoms: C_2  and  C_4
REMARK    3  A    between atoms: C_2  and  N_14
REMARK    4  A    between atoms: N_17  and  C_18
REMARK    5  A    between atoms: C_18  and  C_21
REMARK                            x       y       z     vdW  Elec       q    Type
REMARK                         _______ _______ _______ _____ _____    ______ ____
ROOT
ATOM      1  N   UNL     1      -1.264  -0.351   0.198  0.00  0.00    -0.296 N 
ATOM      2  C   UNL     1      -1.993  -0.533   1.317  0.00  0.00    +0.301 C 
ATOM      3  O   UNL     1      -1.541  -0.204   2.397  0.00  0.00    -0.253 OA
ATOM      4  N   UNL     1      -3.223  -1.078   1.240  0.00  0.00    -0.290 N 
ATOM      5  H   UNL     1      -1.625  -0.614  -0.663  0.00  0.00    +0.151 HD
ATOM      6  H   UNL     1      -3.615  -1.269   0.373  0.00  0.00    +0.151 HD
ENDROOT
BRANCH   4   7
ATOM      7  C   UNL     1      -3.968  -1.382   2.464  0.00  0.00    +0.061 C 
ATOM      8  C   UNL     1      -5.422  -0.912   2.541  0.00  0.00    +0.033 C 
ATOM      9  C   UNL     1      -4.346  -0.209   3.371  0.00  0.00    +0.033 C 
BRANCH   7  10
ATOM     10  C   UNL     1      -3.623  -2.691   3.127  0.00  0.00    -0.024 A 
ATOM     11  C   UNL     1      -4.221  -3.038   4.324  0.00  0.00    +0.006 A 
ATOM     12  C   UNL     1      -3.904  -4.238   4.932  0.00  0.00    +0.000 A 
ATOM     13  C   UNL     1      -2.991  -5.092   4.343  0.00  0.00    +0.000 A 
ATOM     14  C   UNL     1      -2.394  -4.745   3.145  0.00  0.00    +0.000 A 
ATOM     15  C   UNL     1      -2.713  -3.547   2.535  0.00  0.00    +0.006 A 
ENDBRANCH   7  10
ENDBRANCH   4   7
BRANCH   1  17
ATOM     16  C   UNL     1      -0.045   1.767   0.277  0.00  0.00    +0.028 C 
ATOM     17  C   UNL     1       0.072   0.241   0.282  0.00  0.00    +0.078 C 
BRANCH  17  18
ATOM     18  C   UNL     1       0.907  -0.210  -0.918  0.00  0.00    -0.010 C 
ATOM     19  C   UNL     1       1.024  -1.736  -0.913  0.00  0.00    +0.012 C 
ATOM     20  C   UNL     1       1.859  -2.187  -2.113  0.00  0.00    -0.010 C 
ATOM     21  C   UNL     1       3.255  -1.568  -2.025  0.00  0.00    +0.007 C 
ATOM     22  C   UNL     1       3.138  -0.043  -2.030  0.00  0.00    -0.010 C 
ATOM     23  C   UNL     1       2.304   0.409  -0.830  0.00  0.00    +0.012 C 
ATOM     24  C   UNL     1       2.459   0.413  -3.324  0.00  0.00    +0.007 C 
ATOM     25  C   UNL     1       1.063  -0.206  -3.412  0.00  0.00    -0.010 C 
ATOM     26  C   UNL     1       1.180  -1.732  -3.406  0.00  0.00    +0.007 C 
ATOM     27  C   UNL     1       0.228   0.245  -2.211  0.00  0.00    +0.012 C 
ENDBRANCH  17  18
ENDBRANCH   1  17
TORSDOF 4
