REMARK  Name = ZINC12653448
REMARK  8 active torsions:
REMARK  status: ('A' for Active; 'I' for Inactive)
REMARK    1  A    between atoms: C_1  and  C_2
REMARK    2  A    between atoms: C_2  and  C_3
REMARK    3  A    between atoms: C_2  and  N_65
REMARK    4  A    between atoms: C_4  and  C_5
REMARK    5  A    between atoms: C_4  and  N_65
REMARK    6  A    between atoms: C_5  and  O_28
REMARK    7  A    between atoms: C_10  and  C_27
REMARK    8  A    between atoms: C_21  and  C_26
REMARK                            x       y       z     vdW  Elec       q    Type
REMARK                         _______ _______ _______ _____ _____    ______ ____
ROOT
ATOM      1  C   UNL     1      -1.427   6.611  -1.871  0.00  0.00    +0.057 C 
ATOM      2  C   UNL     1      -2.322   6.372  -3.102  0.00  0.00    +0.034 C 
ATOM      3  C   UNL     1      -1.471   5.599  -4.127  0.00  0.00    +0.007 C 
ATOM      4  C   UNL     1      -0.375   4.888  -3.289  0.00  0.00    +0.001 C 
ATOM      5  C   UNL     1      -0.119   5.863  -2.136  0.00  0.00    -0.002 C 
ATOM      6  C   UNL     1       0.487   5.228  -0.909  0.00  0.00    +0.010 C 
ATOM      7  C   UNL     1      -0.200   3.927  -0.499  0.00  0.00    +0.005 C 
ATOM      8  C   UNL     1      -0.155   2.949  -1.670  0.00  0.00    -0.001 C 
ATOM      9  C   UNL     1      -0.905   3.530  -2.860  0.00  0.00    -0.004 C 
ATOM     10  C   UNL     1      -2.404   3.558  -2.570  0.00  0.00    +0.004 C 
ATOM     11  C   UNL     1      -2.877   2.106  -2.423  0.00  0.00    +0.004 C 
ATOM     12  C   UNL     1      -2.191   1.468  -1.218  0.00  0.00    -0.005 C 
ATOM     13  C   UNL     1      -0.681   1.573  -1.281  0.00  0.00    -0.026 C 
ATOM     14  C   UNL     1      -0.013   1.095   0.008  0.00  0.00    +0.007 C 
ATOM     15  C   UNL     1      -0.678   1.575   1.285  0.00  0.00    +0.001 C 
ATOM     16  C   UNL     1      -2.182   1.300   1.261  0.00  0.00    +0.000 C 
ATOM     17  C   UNL     1      -2.781   2.046   0.066  0.00  0.00    +0.004 C 
ATOM     18  C   UNL     1      -0.205   0.584  -2.382  0.00  0.00    +0.012 C 
ATOM     19  C   UNL     1       0.903   6.908  -2.641  0.00  0.00    +0.014 C 
ENDROOT
BRANCH   1  20
ATOM     20  O   UNL     1      -2.067   6.142  -0.687  0.00  0.00    -0.390 OA
ATOM     21  H   UNL     1      -2.899   6.591  -0.485  0.00  0.00    +0.210 HD
ENDBRANCH   1  20
BRANCH   1  22
ATOM     22  C   UNL     1      -1.141   8.114  -1.733  0.00  0.00    -0.047 C 
BRANCH  22  23
ATOM     23  N   UNL     1      -2.408   8.826  -1.478  0.00  0.00    +0.382 N 
ATOM     24  H   UNL     1      -3.051   8.664  -2.262  0.00  0.00    -0.085 HD
ATOM     25  H   UNL     1      -2.828   8.470  -0.612  0.00  0.00    -0.085 HD
BRANCH  23  27
ATOM     26  C   UNL     1      -2.150  10.923  -2.727  0.00  0.00    -0.014 C 
ATOM     27  C   UNL     1      -2.163  10.274  -1.341  0.00  0.00    -0.078 C 
ATOM     28  C   UNL     1      -3.279  10.894  -0.498  0.00  0.00    -0.014 C 
ENDBRANCH  23  27
ENDBRANCH  22  23
ENDBRANCH   1  22
TORSDOF 4
