REMARK  Name = ZINC08573007
REMARK  4 active torsions:
REMARK  status: ('A' for Active; 'I' for Inactive)
REMARK    1  A    between atoms: C_1  and  O_2
REMARK    2  A    between atoms: O_2  and  C_3
REMARK    3  A    between atoms: C_6  and  C_9
REMARK    4  A    between atoms: C_9  and  C_10
REMARK                            x       y       z     vdW  Elec       q    Type
REMARK                         _______ _______ _______ _____ _____    ______ ____
ROOT
ATOM      1  C   UNL     1       1.246  -0.672  -0.012  0.00  0.00    +0.086 A 
ATOM      2  C   UNL     1       0.002  -0.004   0.002  0.00  0.00    +0.259 A 
ATOM      3  O   UNL     1      -1.042  -0.639   0.032  0.00  0.00    -0.267 OA
ATOM      4  N   UNL     1      -0.016   1.331   0.010  0.00  0.00    -0.303 N 
ATOM      5  C   UNL     1       1.098   2.056   0.003  0.00  0.00    +0.152 A 
ATOM      6  N   UNL     1       2.309   1.453   0.041  0.00  0.00    -0.289 N 
ATOM      7  C   UNL     1       2.378   0.073  -0.002  0.00  0.00    +0.262 A 
ATOM      8  O   UNL     1       3.583  -0.538  -0.031  0.00  0.00    -0.267 OA
ATOM      9  C   UNL     1       3.596   2.135   0.136  0.00  0.00    +0.128 C 
ATOM     10  C   UNL     1       3.566   3.562  -0.384  0.00  0.00    +0.033 C 
ATOM     11  C   UNL     1       2.538   4.356   0.434  0.00  0.00    +0.079 C 
ATOM     12  S   UNL     1       0.891   3.808  -0.056  0.00  0.00    -0.089 S 
ATOM     13  H   UNL     1      -0.976   1.868   0.022  0.00  0.00    +0.171 HD
ENDROOT
BRANCH   1  14
ATOM     14  C   UNL     1       1.312  -2.177  -0.053  0.00  0.00    +0.081 C 
BRANCH  14  18
ATOM     15  C   UNL     1       1.343  -3.491  -4.120  0.00  0.00    +0.120 A 
ATOM     16  C   UNL     1       2.537  -3.224  -3.467  0.00  0.00    +0.046 A 
ATOM     17  C   UNL     1       2.525  -2.799  -2.152  0.00  0.00    +0.007 A 
ATOM     18  C   UNL     1       1.323  -2.640  -1.487  0.00  0.00    -0.042 A 
ATOM     19  C   UNL     1       0.131  -2.911  -2.134  0.00  0.00    +0.007 A 
ATOM     20  C   UNL     1       0.138  -3.331  -3.450  0.00  0.00    +0.046 A 
BRANCH  15  22
ATOM     21  C   UNL     1       0.085  -4.164  -6.022  0.00  0.00    +0.277 C 
ATOM     22  O   UNL     1       1.352  -3.908  -5.413  0.00  0.00    -0.495 OA
ENDBRANCH  15  22
ENDBRANCH  14  18
ENDBRANCH   1  14
TORSDOF 3
