REMARK  Name = ZINC32537361
REMARK  8 active torsions:
REMARK  status: ('A' for Active; 'I' for Inactive)
REMARK    1  A    between atoms: C_1  and  C_2
REMARK    2  A    between atoms: C_6  and  N_9
REMARK    3  A    between atoms: C_7  and  C_8
REMARK    4  A    between atoms: N_9  and  S_10
REMARK    5  A    between atoms: S_10  and  C_13
REMARK    6  A    between atoms: C_15  and  C_28
REMARK    7  A    between atoms: C_16  and  N_20
REMARK    8  A    between atoms: C_18  and  C_19
REMARK                            x       y       z     vdW  Elec       q    Type
REMARK                         _______ _______ _______ _____ _____    ______ ____
ROOT
ATOM      1  C   UNL     1      -1.275   2.909  -1.516  0.00  0.00    +0.112 A 
ATOM      2  C   UNL     1      -2.227   2.807  -2.514  0.00  0.00    +0.034 A 
ATOM      3  C   UNL     1      -2.153   3.623  -3.626  0.00  0.00    -0.026 A 
ATOM      4  C   UNL     1      -1.121   4.545  -3.742  0.00  0.00    +0.054 A 
ATOM      5  C   UNL     1      -0.167   4.645  -2.738  0.00  0.00    +0.030 A 
ATOM      6  C   UNL     1      -0.250   3.830  -1.625  0.00  0.00    -0.022 A 
ATOM      7  C   UNL     1       0.782   3.942  -0.532  0.00  0.00    +0.046 C 
ATOM      8  C   UNL     1      -3.191   3.511  -4.713  0.00  0.00    +0.046 C 
ENDROOT
BRANCH   4   9
ATOM      9  N   UNL     1      -1.044   5.372  -4.865  0.00  0.00    -0.207 N 
ATOM     10  C   UNL     1      -0.203   5.010  -6.016  0.00  0.00    +0.131 C 
ATOM     11  C   UNL     1       0.802   6.121  -6.287  0.00  0.00    +0.022 C 
ATOM     12  C   UNL     1       0.091   7.407  -6.702  0.00  0.00    +0.026 C 
ATOM     13  C   UNL     1      -0.647   8.002  -5.497  0.00  0.00    +0.189 C 
ATOM     14  S   UNL     1      -1.895   6.800  -4.940  0.00  0.00    +0.045 S 
ATOM     15  O   UNL     1      -2.872   6.595  -5.952  0.00  0.00    -0.155 OA
ATOM     16  O   UNL     1      -2.281   7.071  -3.600  0.00  0.00    -0.155 OA
ENDBRANCH   4   9
BRANCH   1  17
ATOM     17  S   UNL     1      -1.372   1.867  -0.098  0.00  0.00    +0.073 S 
ATOM     18  O   UNL     1      -0.083   1.296   0.076  0.00  0.00    -0.150 OA
ATOM     19  O   UNL     1      -2.541   1.075  -0.257  0.00  0.00    -0.150 OA
BRANCH  17  20
ATOM     20  N   UNL     1      -1.638   2.845   1.211  0.00  0.00    -0.216 N 
ATOM     21  H   UNL     1      -0.915   2.862   2.041  0.00  0.00    +0.174 HD
BRANCH  20  27
ATOM     22  C   UNL     1      -3.782   7.066   2.529  0.00  0.00    +0.044 C 
ATOM     23  C   UNL     1      -3.847   5.700   1.896  0.00  0.00    -0.046 A 
ATOM     24  C   UNL     1      -5.039   5.241   1.365  0.00  0.00    +0.004 A 
ATOM     25  C   UNL     1      -5.104   3.988   0.784  0.00  0.00    +0.002 A 
ATOM     26  C   UNL     1      -3.977   3.191   0.731  0.00  0.00    +0.025 A 
ATOM     27  C   UNL     1      -2.779   3.649   1.263  0.00  0.00    +0.051 A 
ATOM     28  C   UNL     1      -2.719   4.906   1.851  0.00  0.00    -0.025 A 
ATOM     29  C   UNL     1      -1.422   5.405   2.435  0.00  0.00    +0.046 C 
ENDBRANCH  20  27
ENDBRANCH  17  20
ENDBRANCH   1  17
TORSDOF 4
