REMARK  Name = ZINC21722370
REMARK  2 active torsions:
REMARK  status: ('A' for Active; 'I' for Inactive)
REMARK    1  A    between atoms: C_1  and  N_2
REMARK    2  A    between atoms: C_15  and  C_17
REMARK                            x       y       z     vdW  Elec       q    Type
REMARK                         _______ _______ _______ _____ _____    ______ ____
ROOT
ATOM      1  C   UNL     1       1.198  -2.127  -0.021  0.00  0.00    +0.129 C 
ATOM      2  N   UNL     1       1.178  -0.662  -0.013  0.00  0.00    -0.302 N 
ATOM      3  C   UNL     1       0.002  -0.004   0.002  0.00  0.00    +0.307 C 
ATOM      4  O   UNL     1      -1.043  -0.626   0.009  0.00  0.00    -0.252 OA
ATOM      5  N   UNL     1      -0.016   1.344   0.009  0.00  0.00    -0.242 N 
ATOM      6  C   UNL     1       1.189   2.048   0.002  0.00  0.00    +0.060 A 
ATOM      7  C   UNL     1       2.077   1.976   1.062  0.00  0.00    +0.025 A 
ATOM      8  C   UNL     1       3.238   2.729   1.030  0.00  0.00    +0.002 A 
ATOM      9  C   UNL     1       3.510   3.550  -0.049  0.00  0.00    +0.002 A 
ATOM     10  C   UNL     1       2.633   3.611  -1.119  0.00  0.00    +0.025 A 
ATOM     11  C   UNL     1       1.483   2.841  -1.097  0.00  0.00    +0.053 A 
ATOM     12  N   UNL     1       0.619   2.766  -2.183  0.00  0.00    -0.316 N 
ATOM     13  C   UNL     1      -0.678   3.165  -2.174  0.00  0.00    +0.017 C 
ATOM     14  C   UNL     1      -1.565   2.861  -1.211  0.00  0.00    +0.038 C 
ATOM     15  C   UNL     1      -1.285   2.039   0.019  0.00  0.00    +0.155 C 
ATOM     16  C   UNL     1      -2.897   3.333  -1.296  0.00  0.00    +0.163 C 
ATOM     17  O   UNL     1      -3.685   3.023  -0.423  0.00  0.00    -0.292 OA
ATOM     18  C   UNL     1      -3.371   4.200  -2.423  0.00  0.00    +0.080 C 
ATOM     19  C   UNL     1      -2.177   4.997  -2.962  0.00  0.00    +0.014 C 
ATOM     20  C   UNL     1      -1.098   3.997  -3.373  0.00  0.00    +0.051 C 
ATOM     21  H   UNL     1       2.123  -0.099  -0.019  0.00  0.00    +0.150 HD
ATOM     22  H   UNL     1       0.974   2.358  -3.141  0.00  0.00    +0.152 HD
ENDROOT
BRANCH  15  23
ATOM     23  C   UNL     1      -1.319   2.954   1.217  0.00  0.00    +0.015 A 
ATOM     24  C   UNL     1      -2.349   3.224   2.055  0.00  0.00    +0.013 A 
ATOM     25  C   UNL     1      -2.148   4.103   3.103  0.00  0.00    +0.008 A 
ATOM     26  C   UNL     1      -0.930   4.677   3.254  0.00  0.00    +0.045 A 
ATOM     27  S   UNL     1      -0.016   3.967   1.895  0.00  0.00    -0.099 S 
ENDBRANCH  15  23
TORSDOF 1
