REMARK  Name = ZINC30904037
REMARK  3 active torsions:
REMARK  status: ('A' for Active; 'I' for Inactive)
REMARK    1  A    between atoms: C_4  and  C_7
REMARK    2  A    between atoms: C_7  and  N_8
REMARK    3  A    between atoms: C_12  and  N_16
REMARK                            x       y       z     vdW  Elec       q    Type
REMARK                         _______ _______ _______ _____ _____    ______ ____
ROOT
ATOM      1  N   UNL     1       3.396  -2.010   4.433  0.00  0.00    -0.285 NA
ATOM      2  C   UNL     1       2.850  -3.363   4.611  0.00  0.00    +0.090 C 
ATOM      3  C   UNL     1       2.068  -3.429   5.930  0.00  0.00    +0.053 C 
ATOM      4  C   UNL     1       1.131  -2.248   5.975  0.00  0.00    -0.017 A 
ATOM      5  C   UNL     1      -0.015  -2.020   6.828  0.00  0.00    +0.005 A 
ATOM      6  C   UNL     1      -0.608  -2.775   7.844  0.00  0.00    +0.030 A 
ATOM      7  C   UNL     1      -1.714  -2.235   8.455  0.00  0.00    +0.042 A 
ATOM      8  C   UNL     1      -2.226  -1.000   8.090  0.00  0.00    +0.022 A 
ATOM      9  C   UNL     1      -1.659  -0.232   7.088  0.00  0.00    +0.027 A 
ATOM     10  C   UNL     1      -0.536  -0.755   6.450  0.00  0.00    +0.047 A 
ATOM     11  N   UNL     1       0.252  -0.274   5.443  0.00  0.00    -0.357 N 
ATOM     12  H   UNL     1       0.125   0.576   4.993  0.00  0.00    +0.166 HD
ATOM     13  C   UNL     1       1.246  -1.172   5.164  0.00  0.00    +0.034 A 
ATOM     14  C   UNL     1       2.334  -1.038   4.125  0.00  0.00    +0.138 C 
ATOM     15 CL   UNL     1      -2.493  -3.126   9.724  0.00  0.00    -0.084 Cl
ENDROOT
BRANCH   1  20
ATOM     16  N   UNL     1       4.152  -0.952   1.338  0.00  0.00    -0.236 N 
ATOM     17  C   UNL     1       4.915  -0.089   2.019  0.00  0.00    +0.224 C 
ATOM     18  O   UNL     1       5.323   0.972   1.597  0.00  0.00    -0.275 OA
ATOM     19  C   UNL     1       5.185  -0.645   3.400  0.00  0.00    +0.124 C 
ATOM     20  C   UNL     1       4.439  -1.995   3.398  0.00  0.00    +0.153 C 
ATOM     21  C   UNL     1       3.820  -2.056   2.019  0.00  0.00    +0.240 C 
ATOM     22  O   UNL     1       3.135  -2.963   1.597  0.00  0.00    -0.273 OA
BRANCH  16  23
ATOM     23  C   UNL     1       3.711  -0.707  -0.038  0.00  0.00    +0.151 C 
BRANCH  23  27
ATOM     24  C   UNL     1      -0.017   1.378   0.010  0.00  0.00    +0.000 A 
ATOM     25  C   UNL     1       1.171   2.086   0.002  0.00  0.00    +0.000 A 
ATOM     26  C   UNL     1       2.377   1.411  -0.013  0.00  0.00    +0.005 A 
ATOM     27  C   UNL     1       2.396   0.029  -0.020  0.00  0.00    -0.030 A 
ATOM     28  C   UNL     1       1.208  -0.679  -0.012  0.00  0.00    +0.005 A 
ATOM     29  C   UNL     1       0.002  -0.004   0.002  0.00  0.00    +0.000 A 
ENDBRANCH  23  27
ENDBRANCH  16  23
ENDBRANCH   1  20
TORSDOF 3
