REMARK  Name = ZINC38854630
REMARK  10 active torsions:
REMARK  status: ('A' for Active; 'I' for Inactive)
REMARK    1  A    between atoms: C_1  and  C_2
REMARK    2  A    between atoms: C_2  and  C_3
REMARK    3  A    between atoms: C_2  and  C_4
REMARK    4  A    between atoms: C_2  and  C_5
REMARK    5  A    between atoms: N_11  and  S_34
REMARK    6  A    between atoms: C_13  and  C_16
REMARK    7  A    between atoms: N_18  and  C_19
REMARK    8  A    between atoms: C_24  and  C_25
REMARK    9  A    between atoms: N_27  and  C_28
REMARK   10  A    between atoms: S_34  and  C_37
REMARK                            x       y       z     vdW  Elec       q    Type
REMARK                         _______ _______ _______ _____ _____    ______ ____
ROOT
ATOM      1  C   UNL     1       4.657  -2.271  -5.677  0.00  0.00    +0.260 C 
ATOM      2  O   UNL     1       3.978  -2.230  -6.681  0.00  0.00    -0.271 OA
ATOM      3  N   UNL     1       5.891  -2.811  -5.720  0.00  0.00    -0.282 N 
ATOM      4  H   UNL     1       6.402  -2.921  -4.902  0.00  0.00    +0.155 HD
ENDROOT
BRANCH   1  13
ATOM      5  C   UNL     1       0.999   0.917  -1.551  0.00  0.00    -0.040 A 
ATOM      6  C   UNL     1       0.219   0.247  -2.476  0.00  0.00    +0.008 A 
ATOM      7  C   UNL     1       0.811  -0.494  -3.482  0.00  0.00    +0.048 A 
ATOM      8  C   UNL     1       2.193  -0.569  -3.567  0.00  0.00    +0.144 A 
ATOM      9  C   UNL     1       2.977   0.104  -2.633  0.00  0.00    +0.093 A 
ATOM     10  C   UNL     1       2.378   0.851  -1.631  0.00  0.00    +0.032 A 
ATOM     11  N   UNL     1       4.376   0.025  -2.710  0.00  0.00    -0.200 N 
ATOM     12  C   UNL     1       4.964  -0.508  -3.952  0.00  0.00    +0.185 C 
ATOM     13  C   UNL     1       4.122  -1.718  -4.382  0.00  0.00    +0.278 C 
ATOM     14  O   UNL     1       2.768  -1.296  -4.561  0.00  0.00    -0.476 OA
BRANCH   5  16
ATOM     15  C   UNL     1       0.779   3.187  -0.577  0.00  0.00    +0.015 C 
ATOM     16  C   UNL     1       0.345   1.724  -0.459  0.00  0.00    -0.013 C 
ATOM     17  C   UNL     1       0.769   1.175   0.904  0.00  0.00    +0.015 C 
ATOM     18  C   UNL     1      -1.176   1.631  -0.597  0.00  0.00    +0.015 C 
ENDBRANCH   5  16
BRANCH  11  19
ATOM     19  S   UNL     1       5.333   0.512  -1.450  0.00  0.00    +0.043 S 
ATOM     20  O   UNL     1       4.587   0.193  -0.283  0.00  0.00    -0.155 OA
ATOM     21  O   UNL     1       6.593  -0.099  -1.694  0.00  0.00    -0.155 OA
ATOM     22  C   UNL     1       5.465   2.312  -1.634  0.00  0.00    +0.218 C 
ENDBRANCH  11  19
ENDBRANCH   1  13
BRANCH   3  23
ATOM     23  C   UNL     1       6.434  -3.212  -6.938  0.00  0.00    +0.046 A 
ATOM     24  C   UNL     1       6.042  -2.590  -8.116  0.00  0.00    +0.024 A 
ATOM     25  C   UNL     1       6.580  -2.989  -9.322  0.00  0.00    +0.002 A 
ATOM     26  C   UNL     1       7.515  -4.011  -9.369  0.00  0.00    +0.001 A 
ATOM     27  C   UNL     1       7.917  -4.641  -8.210  0.00  0.00    +0.015 A 
ATOM     28  C   UNL     1       7.384  -4.244  -6.981  0.00  0.00    +0.058 A 
BRANCH  28  29
ATOM     29  C   UNL     1       7.814  -4.909  -5.737  0.00  0.00    +0.246 C 
ATOM     30  O   UNL     1       7.379  -4.533  -4.665  0.00  0.00    -0.270 OA
ATOM     31  N   UNL     1       8.690  -5.932  -5.787  0.00  0.00    -0.308 N 
ATOM     32  H   UNL     1       9.037  -6.231  -6.642  0.00  0.00    +0.149 HD
BRANCH  31  33
ATOM     33  C   UNL     1       9.117  -6.592  -4.551  0.00  0.00    +0.073 C 
ATOM     34  C   UNL     1      10.284  -5.817  -3.936  0.00  0.00    +0.022 C 
ATOM     35  C   UNL     1      10.730  -6.506  -2.645  0.00  0.00    +0.002 C 
ATOM     36  C   UNL     1      11.177  -7.936  -2.959  0.00  0.00    +0.000 C 
ATOM     37  C   UNL     1      10.010  -8.711  -3.574  0.00  0.00    +0.002 C 
ATOM     38  C   UNL     1       9.564  -8.021  -4.865  0.00  0.00    +0.022 C 
ENDBRANCH  31  33
ENDBRANCH  28  29
ENDBRANCH   3  23
TORSDOF 6
