REMARK  Name = ZINC38652689
REMARK  10 active torsions:
REMARK  status: ('A' for Active; 'I' for Inactive)
REMARK    1  A    between atoms: C_1  and  O_2
REMARK    2  A    between atoms: O_2  and  C_3
REMARK    3  A    between atoms: C_6  and  O_9
REMARK    4  A    between atoms: O_9  and  C_10
REMARK    5  A    between atoms: C_10  and  C_11
REMARK    6  A    between atoms: C_11  and  O_13
REMARK    7  A    between atoms: O_13  and  C_14
REMARK    8  A    between atoms: C_21  and  N_34
REMARK    9  A    between atoms: C_22  and  C_32
REMARK   10  A    between atoms: C_23  and  C_25
REMARK                            x       y       z     vdW  Elec       q    Type
REMARK                         _______ _______ _______ _____ _____    ______ ____
ROOT
ATOM      1  C   UNL     1      -7.731  -6.354   0.087  0.00  0.00    +0.135 A 
ATOM      2  C   UNL     1      -8.832  -5.511   0.054  0.00  0.00    +0.047 A 
ATOM      3  C   UNL     1     -10.107  -6.039   0.099  0.00  0.00    +0.012 A 
ATOM      4  C   UNL     1     -10.293  -7.408   0.176  0.00  0.00    +0.008 A 
ATOM      5  C   UNL     1      -9.196  -8.255   0.209  0.00  0.00    +0.138 A 
ATOM      6  C   UNL     1      -7.913  -7.725   0.158  0.00  0.00    +0.093 A 
ATOM      7  O   UNL     1      -9.357  -9.599   0.284  0.00  0.00    -0.441 OA
ATOM      8  C   UNL     1     -10.534 -10.153  -0.054  0.00  0.00    +0.199 C 
ATOM      9  C   UNL     1     -11.678  -9.431  -0.101  0.00  0.00    +0.098 C 
ATOM     10  C   UNL     1     -11.691  -7.964   0.224  0.00  0.00    +0.098 C 
ENDROOT
BRANCH  10  11
ATOM     11  C   UNL     1     -12.261  -7.764   1.605  0.00  0.00    -0.034 A 
ATOM     12  C   UNL     1     -11.632  -8.327   2.700  0.00  0.00    +0.007 A 
ATOM     13  C   UNL     1     -12.153  -8.144   3.966  0.00  0.00    +0.038 A 
ATOM     14  C   UNL     1     -13.305  -7.396   4.139  0.00  0.00    +0.123 A 
ATOM     15  C   UNL     1     -13.934  -6.833   3.042  0.00  0.00    +0.038 A 
ATOM     16  C   UNL     1     -13.408  -7.013   1.777  0.00  0.00    +0.007 A 
ATOM     17  F   UNL     1     -13.815  -7.217   5.377  0.00  0.00    -0.205 F 
ENDBRANCH  10  11
BRANCH   8  18
ATOM     18  N   UNL     1     -10.576 -11.490  -0.360  0.00  0.00    -0.328 N 
ATOM     19  H   UNL     1      -9.765 -12.021  -0.331  0.00  0.00    +0.145 HD
ATOM     20  H   UNL     1     -11.418 -11.905  -0.606  0.00  0.00    +0.145 HD
ENDBRANCH   8  18
BRANCH   9  21
ATOM     21  C   UNL     1     -12.901 -10.079  -0.470  0.00  0.00    +0.101 C 
ATOM     22  N   UNL     1     -13.871 -10.593  -0.762  0.00  0.00    -0.191 NA
ENDBRANCH   9  21
BRANCH   1  23
ATOM     23  O   UNL     1      -6.475  -5.836   0.043  0.00  0.00    -0.423 OA
BRANCH  23  24
ATOM     24  C   UNL     1      -5.979  -5.290   1.166  0.00  0.00    +0.350 C 
ATOM     25  O   UNL     1      -6.676  -5.190   2.148  0.00  0.00    -0.247 OA
BRANCH  24  26
ATOM     26  C   UNL     1      -4.554  -4.803   1.200  0.00  0.00    +0.349 C 
BRANCH  26  27
ATOM     27  O   UNL     1      -4.264  -4.268   2.494  0.00  0.00    -0.481 OA
BRANCH  27  31
ATOM     28  C   UNL     1      -0.457  -2.794   3.104  0.00  0.00    +0.120 A 
ATOM     29  C   UNL     1      -1.389  -2.755   4.131  0.00  0.00    +0.049 A 
ATOM     30  C   UNL     1      -2.663  -3.248   3.926  0.00  0.00    +0.049 A 
ATOM     31  C   UNL     1      -3.010  -3.782   2.694  0.00  0.00    +0.122 A 
ATOM     32  C   UNL     1      -2.079  -3.820   1.667  0.00  0.00    +0.049 A 
ATOM     33  C   UNL     1      -0.807  -3.322   1.870  0.00  0.00    +0.049 A 
BRANCH  28  35
ATOM     34  C   UNL     1       1.088  -1.779   4.600  0.00  0.00    +0.277 C 
ATOM     35  O   UNL     1       0.797  -2.308   3.305  0.00  0.00    -0.495 OA
ENDBRANCH  28  35
ENDBRANCH  27  31
ENDBRANCH  26  27
ENDBRANCH  24  26
ENDBRANCH  23  24
ENDBRANCH   1  23
TORSDOF 9
