REMARK  Name = ZINC46538946
REMARK  7 active torsions:
REMARK  status: ('A' for Active; 'I' for Inactive)
REMARK    1  A    between atoms: C_1  and  C_2
REMARK    2  A    between atoms: C_2  and  N_3
REMARK    3  A    between atoms: N_14  and  N_15
REMARK    4  A    between atoms: C_16  and  C_18
REMARK    5  A    between atoms: C_20  and  C_31
REMARK    6  A    between atoms: N_21  and  C_24
REMARK    7  A    between atoms: C_22  and  C_23
REMARK                            x       y       z     vdW  Elec       q    Type
REMARK                         _______ _______ _______ _____ _____    ______ ____
ROOT
ATOM      1  N   UNL     1      -1.983  -0.705  -3.569  0.00  0.00    -0.230 N 
ATOM      2  C   UNL     1      -1.327  -0.453  -4.719  0.00  0.00    +0.262 C 
ATOM      3  O   UNL     1      -0.186  -0.033  -4.689  0.00  0.00    -0.269 OA
ATOM      4  H   UNL     1      -2.893  -1.040  -3.593  0.00  0.00    +0.173 HD
ENDROOT
BRANCH   1  16
ATOM      5  N   UNL     1      -1.372  -0.511   0.012  0.00  0.00    -0.280 N 
ATOM      6  C   UNL     1      -1.993  -0.744   1.192  0.00  0.00    +0.263 A 
ATOM      7  O   UNL     1      -1.430  -0.541   2.252  0.00  0.00    -0.267 OA
ATOM      8  C   UNL     1      -3.370  -1.252   1.147  0.00  0.00    +0.065 A 
ATOM      9  C   UNL     1      -4.095  -1.523   2.307  0.00  0.00    +0.015 A 
ATOM     10  C   UNL     1      -5.375  -1.994   2.207  0.00  0.00    +0.001 A 
ATOM     11  C   UNL     1      -5.959  -2.204   0.964  0.00  0.00    +0.002 A 
ATOM     12  C   UNL     1      -5.271  -1.947  -0.188  0.00  0.00    +0.028 A 
ATOM     13  C   UNL     1      -3.961  -1.465  -0.119  0.00  0.00    +0.080 A 
ATOM     14  N   UNL     1      -3.244  -1.196  -1.235  0.00  0.00    -0.214 NA
ATOM     15  C   UNL     1      -2.018  -0.739  -1.168  0.00  0.00    +0.216 A 
ATOM     16  N   UNL     1      -1.351  -0.483  -2.339  0.00  0.00    -0.234 N 
ATOM     17  H   UNL     1      -0.441  -0.148  -2.315  0.00  0.00    +0.173 HD
BRANCH   5  19
ATOM     18  C   UNL     1      -0.019   1.526   0.010  0.00  0.00    +0.027 C 
ATOM     19  C   UNL     1       0.002  -0.004   0.002  0.00  0.00    +0.125 C 
ENDBRANCH   5  19
ENDBRANCH   1  16
BRANCH   2  20
ATOM     20  C   UNL     1      -1.992  -0.687  -6.012  0.00  0.00    +0.059 A 
ATOM     21  C   UNL     1      -3.357  -1.181  -6.224  0.00  0.00    +0.036 A 
ATOM     22  C   UNL     1      -3.537  -1.238  -7.556  0.00  0.00    +0.022 A 
ATOM     23  N   UNL     1      -2.392  -0.818  -8.174  0.00  0.00    -0.317 N 
ATOM     24  C   UNL     1      -1.463  -0.481  -7.257  0.00  0.00    +0.033 A 
ATOM     25  C   UNL     1      -0.077   0.031  -7.552  0.00  0.00    +0.064 C 
ATOM     26  C   UNL     1      -4.794  -1.691  -8.252  0.00  0.00    +0.064 C 
BRANCH  23  27
ATOM     27  C   UNL     1      -2.212  -0.744  -9.563  0.00  0.00    +0.047 A 
ATOM     28  C   UNL     1      -1.282  -1.564 -10.188  0.00  0.00    +0.029 A 
ATOM     29  C   UNL     1      -1.106  -1.489 -11.556  0.00  0.00    +0.040 A 
ATOM     30  C   UNL     1      -1.856  -0.597 -12.304  0.00  0.00    +0.124 A 
ATOM     31  C   UNL     1      -2.784   0.222 -11.682  0.00  0.00    +0.040 A 
ATOM     32  C   UNL     1      -2.967   0.146 -10.315  0.00  0.00    +0.029 A 
ATOM     33  F   UNL     1      -1.682  -0.524 -13.642  0.00  0.00    -0.205 F 
ENDBRANCH  23  27
ENDBRANCH   2  20
TORSDOF 4
