REMARK  Name = ZINC36308341
REMARK  13 active torsions:
REMARK  status: ('A' for Active; 'I' for Inactive)
REMARK    1  A    between atoms: C_1  and  C_2
REMARK    2  A    between atoms: C_3  and  C_20
REMARK    3  A    between atoms: C_4  and  O_13
REMARK    4  A    between atoms: N_5  and  C_7
REMARK    5  A    between atoms: O_13  and  C_14
REMARK    6  A    between atoms: C_20  and  N_21
REMARK    7  A    between atoms: N_21  and  C_22
REMARK    8  A    between atoms: N_21  and  C_28
REMARK    9  A    between atoms: C_22  and  C_23
REMARK   10  A    between atoms: C_28  and  C_29
REMARK   11  A    between atoms: C_29  and  C_31
REMARK   12  A    between atoms: C_29  and  O_38
REMARK   13  A    between atoms: C_31  and  C_32
REMARK                            x       y       z     vdW  Elec       q    Type
REMARK                         _______ _______ _______ _____ _____    ______ ____
ROOT
ATOM      1  C   UNL     1      -0.044   0.168  -2.086  0.00  0.00    -0.035 C 
ENDROOT
BRANCH   1   4
ATOM      2  C   UNL     1      -0.208   1.975   0.509  0.00  0.00    +0.068 C 
ATOM      3  C   UNL     1       0.144   0.510   0.474  0.00  0.00    +0.065 A 
ATOM      4  C   UNL     1       0.216  -0.286  -0.673  0.00  0.00    +0.021 A 
ATOM      5  C   UNL     1       0.561  -1.544  -0.287  0.00  0.00    +0.225 A 
ATOM      6  N   UNL     1       0.701  -1.532   1.065  0.00  0.00    -0.200 N 
ATOM      7  N   UNL     1       0.439  -0.231   1.512  0.00  0.00    -0.168 NA
BRANCH   6   8
ATOM      8  C   UNL     1       1.051  -2.626   1.869  0.00  0.00    +0.069 A 
ATOM      9  C   UNL     1       0.464  -3.865   1.651  0.00  0.00    +0.028 A 
ATOM     10  C   UNL     1       0.811  -4.941   2.445  0.00  0.00    +0.002 A 
ATOM     11  C   UNL     1       1.742  -4.785   3.455  0.00  0.00    +0.000 A 
ATOM     12  C   UNL     1       2.329  -3.553   3.674  0.00  0.00    +0.002 A 
ATOM     13  C   UNL     1       1.991  -2.474   2.880  0.00  0.00    +0.028 A 
ENDBRANCH   6   8
BRANCH   5  14
ATOM     14  O   UNL     1       0.735  -2.615  -1.103  0.00  0.00    -0.438 OA
BRANCH  14  15
ATOM     15  C   UNL     1      -0.360  -3.351  -1.431  0.00  0.00    +0.130 A 
ATOM     16  C   UNL     1      -1.622  -2.936  -1.030  0.00  0.00    +0.046 A 
ATOM     17  C   UNL     1      -2.732  -3.686  -1.364  0.00  0.00    +0.004 A 
ATOM     18  C   UNL     1      -2.587  -4.850  -2.096  0.00  0.00    +0.000 A 
ATOM     19  C   UNL     1      -1.331  -5.266  -2.497  0.00  0.00    +0.004 A 
ATOM     20  C   UNL     1      -0.217  -4.516  -2.171  0.00  0.00    +0.046 A 
ENDBRANCH  14  15
ENDBRANCH   5  14
ENDBRANCH   1   4
BRANCH   1  21
ATOM     21  N   UNL     1       1.211   0.641  -2.687  0.00  0.00    +0.389 N 
ATOM     22  H   UNL     1       1.598   1.379  -2.119  0.00  0.00    -0.081 HD
BRANCH  21  23
ATOM     23  C   UNL     1       2.167  -0.472  -2.763  0.00  0.00    -0.003 C 
BRANCH  23  24
ATOM     24  C   UNL     1       3.482   0.032  -3.298  0.00  0.00    +0.089 A 
ATOM     25  C   UNL     1       4.530   0.436  -2.557  0.00  0.00    +0.042 A 
ATOM     26  C   UNL     1       5.546   0.823  -3.461  0.00  0.00    +0.041 A 
ATOM     27  C   UNL     1       5.058   0.633  -4.700  0.00  0.00    +0.195 A 
ATOM     28  O   UNL     1       3.810   0.148  -4.595  0.00  0.00    -0.470 OA
ENDBRANCH  23  24
ENDBRANCH  21  23
BRANCH  21  29
ATOM     29  C   UNL     1       0.945   1.150  -4.039  0.00  0.00    -0.046 C 
BRANCH  29  30
ATOM     30  C   UNL     1       0.097   2.421  -3.947  0.00  0.00    +0.102 C 
BRANCH  30  31
ATOM     31  O   UNL     1      -1.216   2.086  -3.495  0.00  0.00    -0.393 OA
ATOM     32  H   UNL     1      -1.686   1.470  -4.074  0.00  0.00    +0.210 HD
ENDBRANCH  30  31
BRANCH  30  33
ATOM     33  C   UNL     1       0.010   3.077  -5.327  0.00  0.00    +0.064 C 
BRANCH  33  34
ATOM     34  C   UNL     1      -0.720   4.390  -5.213  0.00  0.00    -0.045 A 
ATOM     35  C   UNL     1      -2.094   4.431  -5.357  0.00  0.00    +0.004 A 
ATOM     36  C   UNL     1      -2.764   5.636  -5.253  0.00  0.00    +0.000 A 
ATOM     37  C   UNL     1      -2.059   6.800  -5.005  0.00  0.00    +0.000 A 
ATOM     38  C   UNL     1      -0.685   6.758  -4.861  0.00  0.00    +0.000 A 
ATOM     39  C   UNL     1      -0.016   5.553  -4.961  0.00  0.00    +0.004 A 
ENDBRANCH  33  34
ENDBRANCH  30  33
ENDBRANCH  29  30
ENDBRANCH  21  29
ENDBRANCH   1  21
TORSDOF 12
