REMARK  Name = ZINC25002594
REMARK  9 active torsions:
REMARK  status: ('A' for Active; 'I' for Inactive)
REMARK    1  A    between atoms: C_1  and  C_2
REMARK    2  A    between atoms: C_4  and  N_7
REMARK    3  A    between atoms: C_8  and  C_10
REMARK    4  A    between atoms: C_10  and  C_12
REMARK    5  A    between atoms: C_10  and  S_13
REMARK    6  A    between atoms: S_13  and  C_14
REMARK    7  A    between atoms: C_17  and  C_26
REMARK    8  A    between atoms: N_18  and  C_19
REMARK    9  A    between atoms: C_19  and  C_20
REMARK                            x       y       z     vdW  Elec       q    Type
REMARK                         _______ _______ _______ _____ _____    ______ ____
ROOT
ATOM      1  C   UNL     1      -0.004   1.324  -0.032  0.00  0.00    +0.193 A 
ATOM      2  N   UNL     1      -0.009   0.013   0.034  0.00  0.00    -0.122 NA
ATOM      3  N   UNL     1       1.195  -0.434   0.050  0.00  0.00    -0.128 NA
ATOM      4  C   UNL     1       2.046   0.565  -0.006  0.00  0.00    +0.167 A 
ATOM      5  N   UNL     1       1.305   1.723  -0.060  0.00  0.00    -0.300 N 
ENDROOT
BRANCH   4   6
ATOM      6  C   UNL     1       3.519   0.465  -0.009  0.00  0.00    +0.044 A 
ATOM      7  C   UNL     1       4.375   1.112  -0.842  0.00  0.00    +0.095 A 
ATOM      8  N   UNL     1       5.660   0.766  -0.540  0.00  0.00    -0.360 N 
ATOM      9  H   UNL     1       6.494   1.196  -1.115  0.00  0.00    +0.165 HD
ATOM     10  C   UNL     1       5.680  -0.126   0.510  0.00  0.00    +0.047 A 
ATOM     11  C   UNL     1       4.347  -0.352   0.894  0.00  0.00    +0.010 A 
ATOM     12  C   UNL     1       4.063  -1.218   1.949  0.00  0.00    +0.011 A 
ATOM     13  C   UNL     1       5.093  -1.847   2.612  0.00  0.00    +0.001 A 
ATOM     14  C   UNL     1       6.410  -1.621   2.235  0.00  0.00    +0.002 A 
ATOM     15  C   UNL     1       6.706  -0.775   1.190  0.00  0.00    +0.026 A 
ENDBRANCH   4   6
BRANCH   1  16
ATOM     16  S   UNL     1      -1.417   2.374  -0.084  0.00  0.00    -0.074 S 
BRANCH  16  17
ATOM     17  C   UNL     1      -2.733   1.133  -0.018  0.00  0.00    +0.137 C 
ATOM     18  C   UNL     1      -2.683   0.408   1.328  0.00  0.00    +0.029 C 
BRANCH  17  20
ATOM     19  N   UNL     1      -5.147   1.096  -0.558  0.00  0.00    -0.253 N 
ATOM     20  C   UNL     1      -4.071   1.810  -0.175  0.00  0.00    +0.233 C 
ATOM     21  O   UNL     1      -4.178   2.998   0.044  0.00  0.00    -0.274 OA
ATOM     22  H   UNL     1      -5.049   0.018  -0.757  0.00  0.00    +0.158 HD
BRANCH  19  26
ATOM     23  C   UNL     1      -9.945   2.119  -1.407  0.00  0.00    +0.069 C 
ATOM     24  C   UNL     1      -8.479   2.197  -1.068  0.00  0.00    +0.082 A 
ATOM     25  C   UNL     1      -7.553   1.135  -1.081  0.00  0.00    +0.092 A 
ATOM     26  C   UNL     1      -6.378   1.719  -0.703  0.00  0.00    +0.224 A 
ATOM     27  O   UNL     1      -6.654   3.016  -0.492  0.00  0.00    -0.339 OA
ATOM     28  N   UNL     1      -7.819   3.261  -0.704  0.00  0.00    -0.081 NA
ENDBRANCH  19  26
ENDBRANCH  17  20
ENDBRANCH  16  17
ENDBRANCH   1  16
BRANCH   5  29
ATOM     29  C   UNL     1       1.811   3.096  -0.133  0.00  0.00    +0.157 C 
BRANCH  29  30
ATOM     30  C   UNL     1       2.120   3.601   1.278  0.00  0.00    +0.138 C 
ATOM     31  C   UNL     1       2.708   5.033   1.219  0.00  0.00    +0.035 C 
ATOM     32  C   UNL     1       2.337   5.562   2.631  0.00  0.00    +0.031 C 
ATOM     33  C   UNL     1       0.983   4.870   2.895  0.00  0.00    +0.160 C 
ATOM     34  O   UNL     1       0.908   3.724   2.039  0.00  0.00    -0.375 OA
ENDBRANCH  29  30
ENDBRANCH   5  29
TORSDOF 7
