REMARK  Name = ZINC24783428
REMARK  8 active torsions:
REMARK  status: ('A' for Active; 'I' for Inactive)
REMARK    1  A    between atoms: C_1  and  C_2
REMARK    2  A    between atoms: C_4  and  N_8
REMARK    3  A    between atoms: N_5  and  C_7
REMARK    4  A    between atoms: C_9  and  C_11
REMARK    5  A    between atoms: C_11  and  S_12
REMARK    6  A    between atoms: S_12  and  C_13
REMARK    7  A    between atoms: N_26  and  C_27
REMARK    8  A    between atoms: C_27  and  C_28
REMARK                            x       y       z     vdW  Elec       q    Type
REMARK                         _______ _______ _______ _____ _____    ______ ____
ROOT
ATOM      1  C   UNL     1       2.624  -1.288   3.640  0.00  0.00    +0.198 A 
ATOM      2  N   UNL     1       3.344  -0.911   2.612  0.00  0.00    -0.120 NA
ATOM      3  N   UNL     1       2.469  -0.548   1.581  0.00  0.00    -0.109 NA
ATOM      4  C   UNL     1       1.238  -0.720   2.009  0.00  0.00    +0.240 A 
ATOM      5  N   UNL     1       1.304  -1.177   3.297  0.00  0.00    -0.256 N 
ATOM      6  C   UNL     1       0.140  -1.447   4.013  0.00  0.00    +0.064 A 
ATOM      7  C   UNL     1       0.196  -1.916   5.317  0.00  0.00    +0.027 A 
ATOM      8  C   UNL     1      -0.973  -2.176   6.004  0.00  0.00    +0.002 A 
ATOM      9  C   UNL     1      -2.205  -1.971   5.403  0.00  0.00    +0.001 A 
ATOM     10  C   UNL     1      -2.280  -1.505   4.107  0.00  0.00    +0.015 A 
ATOM     11  C   UNL     1      -1.107  -1.239   3.403  0.00  0.00    +0.064 A 
ATOM     12  C   UNL     1      -1.143  -0.740   2.016  0.00  0.00    +0.263 A 
ATOM     13  O   UNL     1      -2.205  -0.548   1.455  0.00  0.00    -0.267 OA
ATOM     14  N   UNL     1       0.022  -0.500   1.381  0.00  0.00    -0.272 N 
ENDROOT
BRANCH   1  15
ATOM     15  S   UNL     1       3.248  -1.840   5.193  0.00  0.00    -0.076 S 
BRANCH  15  16
ATOM     16  C   UNL     1       5.049  -1.753   4.999  0.00  0.00    +0.173 C 
BRANCH  16  18
ATOM     17  N   UNL     1       7.059  -2.224   6.362  0.00  0.00    -0.270 N 
ATOM     18  C   UNL     1       5.714  -2.205   6.274  0.00  0.00    +0.229 C 
ATOM     19  O   UNL     1       5.040  -2.551   7.220  0.00  0.00    -0.275 OA
ATOM     20  H   UNL     1       7.671  -1.910   5.503  0.00  0.00    +0.156 HD
BRANCH  17  24
ATOM     21  C   UNL     1       7.774  -3.890  11.012  0.00  0.00    +0.067 C 
ATOM     22  C   UNL     1       8.025  -3.385   9.614  0.00  0.00    +0.062 A 
ATOM     23  C   UNL     1       7.044  -3.056   8.675  0.00  0.00    +0.068 A 
ATOM     24  C   UNL     1       7.675  -2.642   7.541  0.00  0.00    +0.123 A 
ATOM     25  N   UNL     1       9.007  -2.716   7.765  0.00  0.00    -0.253 N 
ATOM     26  N   UNL     1       9.199  -3.179   9.073  0.00  0.00    -0.175 NA
ATOM     27  C   UNL     1      10.062  -2.369   6.810  0.00  0.00    +0.174 C 
ENDBRANCH  17  24
ENDBRANCH  16  18
ENDBRANCH  15  16
ENDBRANCH   1  15
BRANCH  14  28
ATOM     28  C   UNL     1       0.002  -0.004   0.002  0.00  0.00    +0.163 C 
BRANCH  28  29
ATOM     29  C   UNL     1      -0.018   1.503   0.010  0.00  0.00    -0.028 A 
ATOM     30  C   UNL     1      -1.225   2.178   0.020  0.00  0.00    +0.005 A 
ATOM     31  C   UNL     1      -1.244   3.560   0.032  0.00  0.00    +0.000 A 
ATOM     32  C   UNL     1      -0.056   4.267   0.025  0.00  0.00    +0.000 A 
ATOM     33  C   UNL     1       1.151   3.592   0.010  0.00  0.00    +0.000 A 
ATOM     34  C   UNL     1       1.169   2.210   0.003  0.00  0.00    +0.005 A 
ENDBRANCH  28  29
ENDBRANCH  14  28
TORSDOF 6
