REMARK  Name = ZINC09695464
REMARK  15 active torsions:
REMARK  status: ('A' for Active; 'I' for Inactive)
REMARK    1  A    between atoms: C_1  and  C_2
REMARK    2  A    between atoms: C_3  and  C_33
REMARK    3  A    between atoms: N_11  and  C_14
REMARK    4  A    between atoms: C_14  and  C_15
REMARK    5  A    between atoms: C_15  and  O_17
REMARK    6  A    between atoms: O_17  and  C_18
REMARK    7  A    between atoms: C_18  and  C_19
REMARK    8  A    between atoms: C_25  and  C_29
REMARK    9  A    between atoms: C_26  and  N_28
REMARK   10  A    between atoms: C_29  and  O_31
REMARK   11  A    between atoms: O_31  and  C_32
REMARK   12  A    between atoms: C_33  and  O_35
REMARK   13  A    between atoms: O_35  and  C_36
REMARK   14  A    between atoms: C_36  and  C_37
REMARK   15  A    between atoms: C_36  and  C_38
REMARK                            x       y       z     vdW  Elec       q    Type
REMARK                         _______ _______ _______ _____ _____    ______ ____
ROOT
ATOM      1  C   UNL     1       4.735  -0.777  -0.859  0.00  0.00    +0.087 C 
ATOM      2  C   UNL     1       4.058  -1.179  -2.144  0.00  0.00    +0.116 C 
ATOM      3  C   UNL     1       2.721  -1.109  -2.221  0.00  0.00    +0.098 C 
ATOM      4  C   UNL     1       2.002  -1.507  -3.477  0.00  0.00    +0.145 C 
ATOM      5  C   UNL     1       1.490  -0.288  -4.201  0.00  0.00    -0.002 A 
ATOM      6  C   UNL     1       2.114   0.808  -4.755  0.00  0.00    +0.007 A 
ATOM      7  C   UNL     1       1.362   1.793  -5.370  0.00  0.00    +0.000 A 
ATOM      8  C   UNL     1      -0.015   1.673  -5.426  0.00  0.00    +0.002 A 
ATOM      9  C   UNL     1      -0.643   0.578  -4.871  0.00  0.00    +0.024 A 
ATOM     10  C   UNL     1       0.107  -0.419  -4.250  0.00  0.00    +0.042 A 
ATOM     11  N   UNL     1      -0.288  -1.603  -3.626  0.00  0.00    -0.259 N 
ATOM     12  C   UNL     1       0.759  -2.298  -3.146  0.00  0.00    +0.240 C 
ATOM     13  O   UNL     1       0.713  -3.358  -2.559  0.00  0.00    -0.274 OA
ATOM     14  C   UNL     1       2.907  -2.302  -4.372  0.00  0.00    +0.117 C 
ATOM     15  C   UNL     1       4.251  -2.302  -4.166  0.00  0.00    +0.195 C 
ATOM     16  O   UNL     1       4.812  -1.594  -3.172  0.00  0.00    -0.446 OA
ENDROOT
BRANCH  15  17
ATOM     17  N   UNL     1       5.053  -3.043  -4.993  0.00  0.00    -0.329 N 
ATOM     18  H   UNL     1       6.004  -3.110  -4.813  0.00  0.00    +0.145 HD
ATOM     19  H   UNL     1       4.670  -3.499  -5.758  0.00  0.00    +0.145 HD
ENDBRANCH  15  17
BRANCH  14  20
ATOM     20  C   UNL     1       2.362  -3.052  -5.425  0.00  0.00    +0.341 C 
ATOM     21  O   UNL     1       1.973  -2.493  -6.435  0.00  0.00    -0.245 OA
BRANCH  20  22
ATOM     22  O   UNL     1       2.269  -4.396  -5.319  0.00  0.00    -0.465 OA
ATOM     23  C   UNL     1       1.808  -5.107  -6.470  0.00  0.00    +0.280 C 
ENDBRANCH  20  22
ENDBRANCH  14  20
BRANCH   3  24
ATOM     24  C   UNL     1       1.978  -0.660  -1.101  0.00  0.00    +0.340 C 
ATOM     25  O   UNL     1       2.541  -0.446  -0.044  0.00  0.00    -0.245 OA
BRANCH  24  26
ATOM     26  O   UNL     1       0.647  -0.469  -1.208  0.00  0.00    -0.459 OA
BRANCH  26  27
ATOM     27  C   UNL     1      -0.039  -0.015  -0.039  0.00  0.00    +0.171 C 
ATOM     28  C   UNL     1      -0.057   1.514  -0.020  0.00  0.00    +0.052 C 
ATOM     29  C   UNL     1      -1.476  -0.542  -0.054  0.00  0.00    +0.052 C 
ENDBRANCH  26  27
ENDBRANCH  24  26
ENDBRANCH   3  24
BRANCH  11  30
ATOM     30  C   UNL     1      -1.681  -2.038  -3.506  0.00  0.00    +0.234 C 
BRANCH  30  31
ATOM     31  C   UNL     1      -2.014  -2.973  -4.640  0.00  0.00    +0.325 C 
ATOM     32  O   UNL     1      -1.151  -3.319  -5.412  0.00  0.00    -0.249 OA
BRANCH  31  33
ATOM     33  O   UNL     1      -3.270  -3.422  -4.793  0.00  0.00    -0.459 OA
BRANCH  33  34
ATOM     34  C   UNL     1      -3.518  -4.320  -5.907  0.00  0.00    +0.267 C 
BRANCH  34  35
ATOM     35  C   UNL     1      -4.972  -4.716  -5.919  0.00  0.00    -0.010 A 
ATOM     36  C   UNL     1      -5.388  -5.839  -5.229  0.00  0.00    +0.007 A 
ATOM     37  C   UNL     1      -6.722  -6.200  -5.236  0.00  0.00    +0.000 A 
ATOM     38  C   UNL     1      -7.639  -5.444  -5.942  0.00  0.00    +0.000 A 
ATOM     39  C   UNL     1      -7.222  -4.323  -6.636  0.00  0.00    +0.000 A 
ATOM     40  C   UNL     1      -5.889  -3.960  -6.625  0.00  0.00    +0.007 A 
ENDBRANCH  34  35
ENDBRANCH  33  34
ENDBRANCH  31  33
ENDBRANCH  30  31
ENDBRANCH  11  30
TORSDOF 11
