REMARK  Name = ZINC12498218
REMARK  14 active torsions:
REMARK  status: ('A' for Active; 'I' for Inactive)
REMARK    1  A    between atoms: C_1  and  C_2
REMARK    2  A    between atoms: C_2  and  C_3
REMARK    3  A    between atoms: C_3  and  C_4
REMARK    4  A    between atoms: C_4  and  C_34
REMARK    5  A    between atoms: C_9  and  C_11
REMARK    6  A    between atoms: C_14  and  N_17
REMARK    7  A    between atoms: N_17  and  C_18
REMARK    8  A    between atoms: N_17  and  C_19
REMARK    9  A    between atoms: N_22  and  C_25
REMARK   10  A    between atoms: C_29  and  C_31
REMARK   11  A    between atoms: C_31  and  C_33
REMARK   12  A    between atoms: C_34  and  O_36
REMARK   13  A    between atoms: O_36  and  C_37
REMARK   14  A    between atoms: C_37  and  C_38
REMARK                            x       y       z     vdW  Elec       q    Type
REMARK                         _______ _______ _______ _____ _____    ______ ____
ROOT
ATOM      1  C   UNL     1       2.612   0.274  -1.006  0.00  0.00    +0.044 C 
ATOM      2  C   UNL     1       1.450  -0.544  -1.566  0.00  0.00    +0.086 C 
ATOM      3  C   UNL     1       0.376  -0.158  -0.469  0.00  0.00    +0.077 C 
ATOM      4  C   UNL     1       0.495   1.314  -0.456  0.00  0.00    -0.027 C 
ATOM      5  C   UNL     1      -0.627  -1.173  -0.694  0.00  0.00    +0.229 C 
ATOM      6  O   UNL     1      -1.830  -1.057  -0.608  0.00  0.00    -0.275 OA
ATOM      7  N   UNL     1       0.086  -2.299  -1.026  0.00  0.00    -0.210 N 
ATOM      8  C   UNL     1       1.393  -2.027  -1.321  0.00  0.00    +0.229 C 
ATOM      9  O   UNL     1       2.312  -2.816  -1.374  0.00  0.00    -0.275 OA
ATOM     10  N   UNL     1       1.981   1.496  -0.441  0.00  0.00    +0.395 N 
ATOM     11  H   UNL     1       2.235   2.311  -1.011  0.00  0.00    -0.083 HD
ATOM     12  H   UNL     1       2.303   1.638   0.523  0.00  0.00    -0.083 HD
ENDROOT
BRANCH   4  13
ATOM     13  C   UNL     1      -0.137   1.893   0.783  0.00  0.00    -0.060 A 
ATOM     14  C   UNL     1       0.550   1.874   1.983  0.00  0.00    +0.004 A 
ATOM     15  C   UNL     1      -0.025   2.409   3.119  0.00  0.00    +0.023 A 
ATOM     16  C   UNL     1      -1.299   2.958   3.058  0.00  0.00    +0.029 A 
ATOM     17  C   UNL     1      -1.989   2.971   1.852  0.00  0.00    +0.023 A 
ATOM     18  C   UNL     1      -1.406   2.439   0.719  0.00  0.00    +0.004 A 
BRANCH  16  19
ATOM     19  N   UNL     1      -1.885   3.496   4.205  0.00  0.00    -0.336 N 
ATOM     20  C   UNL     1      -3.274   3.961   4.170  0.00  0.00    +0.129 C 
ATOM     21  C   UNL     1      -1.112   3.595   5.446  0.00  0.00    +0.129 C 
ENDBRANCH  16  19
ENDBRANCH   4  13
BRANCH   7  22
ATOM     22  C   UNL     1      -0.466  -3.587  -1.058  0.00  0.00    +0.045 A 
ATOM     23  C   UNL     1       0.326  -4.674  -1.411  0.00  0.00    +0.024 A 
ATOM     24  C   UNL     1      -0.211  -5.948  -1.440  0.00  0.00    +0.003 A 
ATOM     25  C   UNL     1      -1.540  -6.149  -1.129  0.00  0.00    +0.011 A 
ATOM     26  C   UNL     1      -2.348  -5.062  -0.778  0.00  0.00    +0.019 A 
ATOM     27  C   UNL     1      -1.802  -3.776  -0.744  0.00  0.00    +0.035 A 
BRANCH  26  28
ATOM     28  C   UNL     1      -3.766  -5.272  -0.447  0.00  0.00    +0.160 C 
ATOM     29  O   UNL     1      -4.464  -4.328  -0.143  0.00  0.00    -0.292 OA
ATOM     30  C   UNL     1      -4.351  -6.660  -0.484  0.00  0.00    +0.091 C 
ENDBRANCH  26  28
ENDBRANCH   7  22
BRANCH   1  31
ATOM     31  C   UNL     1       3.323  -0.500   0.074  0.00  0.00    +0.297 C 
ATOM     32  O   UNL     1       4.281  -1.183  -0.203  0.00  0.00    -0.252 OA
BRANCH  31  33
ATOM     33  O   UNL     1       2.892  -0.432   1.343  0.00  0.00    -0.466 OA
BRANCH  33  34
ATOM     34  C   UNL     1       3.625  -1.204   2.331  0.00  0.00    +0.228 C 
ATOM     35  C   UNL     1       2.991  -1.002   3.709  0.00  0.00    +0.048 C 
ENDBRANCH  33  34
ENDBRANCH  31  33
ENDBRANCH   1  31
BRANCH   1  36
ATOM     36  C   UNL     1       3.589   0.642  -2.124  0.00  0.00    -0.001 C 
BRANCH  36  38
ATOM     37  C   UNL     1       5.721   1.828  -2.662  0.00  0.00    +0.004 C 
ATOM     38  C   UNL     1       4.744   1.460  -1.543  0.00  0.00    -0.004 C 
ENDBRANCH  36  38
ENDBRANCH   1  36
TORSDOF 9
