REMARK  Name = ZINC06322089
REMARK  7 active torsions:
REMARK  status: ('A' for Active; 'I' for Inactive)
REMARK    1  A    between atoms: C_1  and  C_2
REMARK    2  A    between atoms: C_5  and  C_34
REMARK    3  A    between atoms: C_9  and  C_14
REMARK    4  A    between atoms: C_14  and  C_16
REMARK    5  A    between atoms: C_14  and  N_66
REMARK    6  A    between atoms: N_20  and  C_21
REMARK    7  A    between atoms: C_30  and  C_33
REMARK                            x       y       z     vdW  Elec       q    Type
REMARK                         _______ _______ _______ _____ _____    ______ ____
ROOT
ATOM      1  C   UNL     1       0.490   4.912   3.494  0.00  0.00    +0.039 C 
ENDROOT
BRANCH   1  10
ATOM      2  C   UNL     1       4.814   2.011   3.562  0.00  0.00    +0.044 C 
ATOM      3  C   UNL     1       4.330   2.127   4.984  0.00  0.00    -0.041 A 
ATOM      4  C   UNL     1       5.019   1.518   5.995  0.00  0.00    +0.004 A 
ATOM      5  C   UNL     1       4.582   1.619   7.308  0.00  0.00    +0.005 A 
ATOM      6  C   UNL     1       3.445   2.334   7.619  0.00  0.00    -0.026 A 
ATOM      7  C   UNL     1       2.727   2.962   6.606  0.00  0.00    +0.052 A 
ATOM      8  C   UNL     1       3.174   2.857   5.275  0.00  0.00    +0.002 A 
ATOM      9  C   UNL     1       2.411   3.522   4.217  0.00  0.00    +0.018 A 
ATOM     10  C   UNL     1       1.298   4.216   4.559  0.00  0.00    +0.011 A 
ATOM     11  C   UNL     1       0.896   4.295   5.909  0.00  0.00    +0.251 A 
ATOM     12  O   UNL     1      -0.105   4.928   6.196  0.00  0.00    -0.268 OA
ATOM     13  N   UNL     1       1.587   3.684   6.888  0.00  0.00    -0.322 N 
ATOM     14  H   UNL     1       1.281   3.755   7.806  0.00  0.00    +0.169 HD
ATOM     15  C   UNL     1       2.982   2.435   9.049  0.00  0.00    +0.046 C 
ENDBRANCH   1  10
BRANCH   1  22
ATOM     16  C   UNL     1      -0.421   7.049   2.812  0.00  0.00    -0.077 C 
ATOM     17  C   UNL     1      -0.694   8.480   3.279  0.00  0.00    -0.018 C 
ATOM     18  C   UNL     1       0.637   9.185   3.553  0.00  0.00    -0.001 C 
ATOM     19  C   UNL     1       1.421   8.389   4.600  0.00  0.00    -0.031 C 
ATOM     20  C   UNL     1       1.633   6.960   4.095  0.00  0.00    -0.074 C 
ATOM     21  C   UNL     1       2.778   9.054   4.837  0.00  0.00    +0.005 C 
ATOM     22  N   UNL     1       0.314   6.329   3.873  0.00  0.00    +0.389 N 
ATOM     23  H   UNL     1      -0.228   6.376   4.744  0.00  0.00    -0.080 HD
ENDBRANCH   1  22
BRANCH   1  24
ATOM     24  C   UNL     1      -0.866   4.264   3.388  0.00  0.00    +0.143 A 
ATOM     25  N   UNL     1      -1.886   4.447   4.191  0.00  0.00    -0.115 NA
ATOM     26  N   UNL     1      -2.861   3.718   3.770  0.00  0.00    -0.023 NA
ATOM     27  N   UNL     1      -2.491   3.079   2.715  0.00  0.00    -0.044 NA
ATOM     28  N   UNL     1      -1.266   3.385   2.451  0.00  0.00    -0.227 N 
BRANCH  28  29
ATOM     29  C   UNL     1      -0.463   2.875   1.337  0.00  0.00    +0.111 C 
ATOM     30  C   UNL     1      -0.346   1.353   1.447  0.00  0.00    +0.027 C 
ATOM     31  C   UNL     1       0.493   0.821   0.283  0.00  0.00    +0.002 C 
ATOM     32  C   UNL     1      -0.181   1.187  -1.041  0.00  0.00    +0.000 C 
ATOM     33  C   UNL     1      -0.298   2.708  -1.151  0.00  0.00    +0.002 C 
ATOM     34  C   UNL     1      -1.137   3.240   0.013  0.00  0.00    +0.027 C 
ENDBRANCH  28  29
ENDBRANCH   1  24
TORSDOF 4
