REMARK  Name = ZINC36745404
REMARK  5 active torsions:
REMARK  status: ('A' for Active; 'I' for Inactive)
REMARK    1  A    between atoms: C_8  and  N_13
REMARK    2  A    between atoms: N_13  and  C_14
REMARK    3  A    between atoms: C_14  and  C_15
REMARK    4  A    between atoms: C_15  and  S_16
REMARK    5  A    between atoms: S_16  and  N_19
REMARK                            x       y       z     vdW  Elec       q    Type
REMARK                         _______ _______ _______ _____ _____    ______ ____
ROOT
ATOM      1  C   UNL     1      -0.017   1.379   0.010  0.00  0.00    +0.017 A 
ATOM      2  C   UNL     1       1.164   2.093   0.002  0.00  0.00    +0.025 A 
ATOM      3  C   UNL     1       2.386   1.423  -0.013  0.00  0.00    +0.039 A 
ATOM      4  C   UNL     1       2.392   0.034  -0.021  0.00  0.00    +0.001 A 
ATOM      5  C   UNL     1       1.213  -0.676  -0.012  0.00  0.00    +0.022 A 
ATOM      6  C   UNL     1       0.002  -0.004   0.002  0.00  0.00    +0.018 A 
ATOM      7 BR   UNL     1      -1.621  -0.975   0.012  0.00  0.00    -0.050 Br
ATOM      8  C   UNL     1       3.844  -0.385  -0.038  0.00  0.00    +0.173 C 
ATOM      9  C   UNL     1       4.605   0.924  -0.038  0.00  0.00    +0.239 C 
ATOM     10  O   UNL     1       5.810   1.057  -0.049  0.00  0.00    -0.273 OA
ATOM     11  N   UNL     1       3.694   1.911  -0.024  0.00  0.00    -0.284 N 
ATOM     12  H   UNL     1       3.919   2.855  -0.022  0.00  0.00    +0.155 HD
ENDROOT
BRANCH   8  13
ATOM     13  N   UNL     1       4.143  -1.157  -1.251  0.00  0.00    -0.300 NA
ATOM     14  H   UNL     1       3.334  -1.678  -1.556  0.00  0.00    +0.123 HD
BRANCH  13  15
ATOM     15  C   UNL     1       5.293  -2.047  -1.038  0.00  0.00    +0.106 C 
BRANCH  15  16
ATOM     16  C   UNL     1       5.573  -2.833  -2.320  0.00  0.00    +0.200 C 
BRANCH  16  17
ATOM     17  S   UNL     1       6.992  -3.932  -2.058  0.00  0.00    +0.028 S 
ATOM     18  O   UNL     1       8.179  -3.168  -1.894  0.00  0.00    -0.158 OA
ATOM     19  O   UNL     1       6.655  -4.955  -1.131  0.00  0.00    -0.158 OA
BRANCH  17  20
ATOM     20  N   UNL     1       7.193  -4.720  -3.501  0.00  0.00    -0.208 NA
ATOM     21  H   UNL     1       8.077  -5.010  -3.776  0.00  0.00    +0.144 HD
ATOM     22  H   UNL     1       6.427  -4.890  -4.071  0.00  0.00    +0.144 HD
ENDBRANCH  17  20
ENDBRANCH  16  17
ENDBRANCH  15  16
ENDBRANCH  13  15
ENDBRANCH   8  13
TORSDOF 5
