REMARK  Name = ZINC25783337
REMARK  6 active torsions:
REMARK  status: ('A' for Active; 'I' for Inactive)
REMARK    1  A    between atoms: C_1  and  C_2
REMARK    2  A    between atoms: C_2  and  C_24
REMARK    3  A    between atoms: N_3  and  N_4
REMARK    4  A    between atoms: C_5  and  C_7
REMARK    5  A    between atoms: C_8  and  C_18
REMARK    6  A    between atoms: C_18  and  N_19
REMARK                            x       y       z     vdW  Elec       q    Type
REMARK                         _______ _______ _______ _____ _____    ______ ____
ROOT
ATOM      1  C   UNL     1      -0.942   6.077   0.822  0.00  0.00    +0.154 A 
ATOM      2  C   UNL     1       0.411   6.289   0.879  0.00  0.00    +0.079 A 
ATOM      3  N   UNL     1       0.966   5.106   1.146  0.00  0.00    -0.135 NA
ATOM      4  N   UNL     1       0.045   4.216   1.256  0.00  0.00    -0.058 NA
ATOM      5  N   UNL     1      -1.117   4.739   1.075  0.00  0.00    -0.183 N 
ATOM      6  C   UNL     1      -2.340   4.063   1.122  0.00  0.00    +0.241 A 
ATOM      7  C   UNL     1      -2.514   2.616   1.280  0.00  0.00    +0.206 A 
ATOM      8  N   UNL     1      -3.793   2.355   1.285  0.00  0.00    -0.032 NA
ATOM      9  O   UNL     1      -4.486   3.581   1.129  0.00  0.00    -0.239 OA
ATOM     10  N   UNL     1      -3.518   4.611   1.029  0.00  0.00    -0.027 NA
ATOM     11  N   UNL     1      -1.493   1.682   1.409  0.00  0.00    -0.337 N 
ATOM     12  H   UNL     1      -1.734   0.615   1.522  0.00  0.00    +0.144 HD
ATOM     13  H   UNL     1      -0.443   2.010   1.396  0.00  0.00    +0.144 HD
ENDROOT
BRANCH   1  15
ATOM     14  N   UNL     1      -2.494   7.200  -0.693  0.00  0.00    -0.201 N 
ATOM     15  C   UNL     1      -1.988   7.075   0.550  0.00  0.00    +0.284 C 
ATOM     16  O   UNL     1      -2.397   7.788   1.448  0.00  0.00    -0.267 OA
ATOM     17  H   UNL     1      -2.182   6.505  -1.486  0.00  0.00    +0.178 HD
BRANCH  14  20
ATOM     18  C   UNL     1      -3.709   7.202  -3.167  0.00  0.00    +0.068 C 
ATOM     19  C   UNL     1      -3.978   8.277  -2.146  0.00  0.00    +0.064 C 
ATOM     20  N   UNL     1      -3.416   8.216  -0.975  0.00  0.00    -0.184 NA
BRANCH  19  21
ATOM     21  C   UNL     1      -4.875   9.395  -2.474  0.00  0.00    +0.005 A 
ATOM     22  C   UNL     1      -5.575   9.415  -3.674  0.00  0.00    +0.010 A 
ATOM     23  C   UNL     1      -6.422  10.471  -3.981  0.00  0.00    +0.001 A 
ATOM     24  C   UNL     1      -6.599  11.519  -3.130  0.00  0.00    +0.008 A 
ATOM     25  C   UNL     1      -5.925  11.565  -1.899  0.00  0.00    -0.017 A 
ATOM     26  C   UNL     1      -5.055  10.506  -1.541  0.00  0.00    -0.009 A 
ATOM     27  C   UNL     1      -4.376  10.551  -0.317  0.00  0.00    +0.009 A 
ATOM     28  C   UNL     1      -4.568  11.609   0.521  0.00  0.00    +0.001 A 
ATOM     29  C   UNL     1      -5.426  12.650   0.174  0.00  0.00    +0.001 A 
ATOM     30  C   UNL     1      -6.098  12.641  -1.010  0.00  0.00    +0.008 A 
ENDBRANCH  19  21
ENDBRANCH  14  20
ENDBRANCH   1  15
BRANCH   2  31
ATOM     31  C   UNL     1       1.129   7.598   0.673  0.00  0.00    -0.018 C 
BRANCH  31  32
ATOM     32  N   UNL     1       1.589   7.691  -0.719  0.00  0.00    +0.383 N 
ATOM     33  C   UNL     1       0.451   7.559  -1.665  0.00  0.00    -0.078 C 
ATOM     34  C   UNL     1       0.999   8.190  -2.969  0.00  0.00    -0.020 C 
ATOM     35  C   UNL     1       1.849   9.373  -2.450  0.00  0.00    -0.020 C 
ATOM     36  C   UNL     1       2.188   9.015  -0.992  0.00  0.00    -0.078 C 
ATOM     37  H   UNL     1       2.323   6.882  -0.847  0.00  0.00    -0.081 HD
ENDBRANCH  31  32
ENDBRANCH   2  31
TORSDOF 5
