REMARK  Name = ZINC24716819
REMARK  7 active torsions:
REMARK  status: ('A' for Active; 'I' for Inactive)
REMARK    1  A    between atoms: C_1  and  N_2
REMARK    2  A    between atoms: N_2  and  C_3
REMARK    3  A    between atoms: N_2  and  S_4
REMARK    4  A    between atoms: S_4  and  C_7
REMARK    5  A    between atoms: C_17  and  C_19
REMARK    6  A    between atoms: C_19  and  N_20
REMARK    7  A    between atoms: C_29  and  C_31
REMARK                            x       y       z     vdW  Elec       q    Type
REMARK                         _______ _______ _______ _____ _____    ______ ____
ROOT
ATOM      1  C   UNL     1       2.994  -4.403  -1.964  0.00  0.00    +0.106 A 
ATOM      2  C   UNL     1       3.261  -3.104  -2.353  0.00  0.00    +0.030 A 
ATOM      3  C   UNL     1       4.492  -2.785  -2.889  0.00  0.00    +0.026 A 
ATOM      4  C   UNL     1       5.459  -3.772  -3.047  0.00  0.00    +0.039 A 
ATOM      5  C   UNL     1       5.190  -5.075  -2.659  0.00  0.00    -0.024 A 
ATOM      6  C   UNL     1       3.953  -5.385  -2.118  0.00  0.00    +0.034 A 
ATOM      7  C   UNL     1       6.215  -6.168  -2.809  0.00  0.00    +0.038 C 
ATOM      8  C   UNL     1       7.267  -5.777  -3.846  0.00  0.00    +0.024 C 
ATOM      9  C   UNL     1       7.811  -4.385  -3.501  0.00  0.00    +0.114 C 
ATOM     10  N   UNL     1       6.699  -3.430  -3.603  0.00  0.00    -0.273 N 
ATOM     11  C   UNL     1       6.869  -2.245  -4.223  0.00  0.00    +0.203 C 
ATOM     12  O   UNL     1       5.921  -1.507  -4.391  0.00  0.00    -0.277 OA
ENDROOT
BRANCH   1  13
ATOM     13  S   UNL     1       1.423  -4.810  -1.276  0.00  0.00    +0.060 S 
ATOM     14  O   UNL     1       1.228  -6.199  -1.502  0.00  0.00    -0.153 OA
ATOM     15  O   UNL     1       0.509  -3.826  -1.741  0.00  0.00    -0.153 OA
BRANCH  13  17
ATOM     16  C   UNL     1       1.226  -3.312   0.968  0.00  0.00    +0.131 C 
ATOM     17  N   UNL     1       1.540  -4.609   0.364  0.00  0.00    -0.183 NA
ATOM     18  C   UNL     1       1.958  -5.729   1.211  0.00  0.00    +0.131 C 
ENDBRANCH  13  17
ENDBRANCH   1  13
BRANCH  11  19
ATOM     19  C   UNL     1       8.236  -1.837  -4.707  0.00  0.00    +0.021 C 
BRANCH  19  20
ATOM     20  N   UNL     1       8.140  -0.559  -5.426  0.00  0.00    +0.396 N 
ATOM     21  C   UNL     1       7.504  -0.739  -6.734  0.00  0.00    -0.041 C 
ATOM     22  C   UNL     1       7.499   0.558  -7.501  0.00  0.00    -0.061 A 
ATOM     23  C   UNL     1       6.635   0.684  -8.579  0.00  0.00    +0.002 A 
ATOM     24  C   UNL     1       6.603   1.852  -9.314  0.00  0.00    +0.000 A 
ATOM     25  C   UNL     1       7.436   2.902  -8.976  0.00  0.00    +0.000 A 
ATOM     26  C   UNL     1       8.295   2.778  -7.902  0.00  0.00    +0.004 A 
ATOM     27  C   UNL     1       8.327   1.606  -7.162  0.00  0.00    -0.047 A 
ATOM     28  C   UNL     1       9.278   1.518  -5.995  0.00  0.00    +0.029 C 
ATOM     29  C   UNL     1       9.467   0.057  -5.585  0.00  0.00    +0.024 C 
ATOM     30  H   UNL     1       7.511   0.114  -4.826  0.00  0.00    -0.080 HD
BRANCH  29  31
ATOM     31  C   UNL     1      10.216  -0.009  -4.279  0.00  0.00    +0.197 C 
ATOM     32  O   UNL     1       9.611   0.045  -3.230  0.00  0.00    -0.278 OA
ATOM     33  N   UNL     1      11.559  -0.128  -4.278  0.00  0.00    -0.331 N 
ATOM     34  H   UNL     1      12.106  -0.176  -3.325  0.00  0.00    +0.145 HD
ATOM     35  H   UNL     1      12.108  -0.176  -5.230  0.00  0.00    +0.145 HD
ENDBRANCH  29  31
ENDBRANCH  19  20
ENDBRANCH  11  19
TORSDOF 5
