REMARK  Name = ZINC43252950
REMARK  8 active torsions:
REMARK  status: ('A' for Active; 'I' for Inactive)
REMARK    1  A    between atoms: C_1  and  C_2
REMARK    2  A    between atoms: C_2  and  C_3
REMARK    3  A    between atoms: C_3  and  C_5
REMARK    4  A    between atoms: C_3  and  N_21
REMARK    5  A    between atoms: C_5  and  C_7
REMARK    6  A    between atoms: C_5  and  N_13
REMARK    7  A    between atoms: C_17  and  C_19
REMARK    8  A    between atoms: C_17  and  C_20
REMARK                            x       y       z     vdW  Elec       q    Type
REMARK                         _______ _______ _______ _____ _____    ______ ____
ROOT
ATOM      1  C   UNL     1       0.788  -2.098  -1.168  0.00  0.00    +0.079 C 
ENDROOT
BRANCH   1   2
ATOM      2  N   UNL     1       1.369  -2.610  -2.417  0.00  0.00    -0.292 NA
ATOM      3  C   UNL     1       0.673  -2.057  -3.587  0.00  0.00    +0.113 C 
ATOM      4  C   UNL     1       1.347  -2.568  -4.863  0.00  0.00    +0.176 C 
ATOM      5  O   UNL     1       1.343  -3.998  -4.858  0.00  0.00    -0.371 OA
ATOM      6  C   UNL     1       2.013  -4.571  -3.732  0.00  0.00    +0.077 C 
ATOM      7  C   UNL     1       1.346  -4.080  -2.444  0.00  0.00    +0.119 C 
ATOM      8  C   UNL     1       3.483  -4.145  -3.740  0.00  0.00    +0.042 C 
ATOM      9  C   UNL     1       1.922  -6.096  -3.804  0.00  0.00    +0.042 C 
ENDBRANCH   1   2
BRANCH   1  10
ATOM     10  C   UNL     1       1.548  -2.658   0.006  0.00  0.00    +0.007 A 
ATOM     11  C   UNL     1       1.074  -3.105   1.195  0.00  0.00    +0.014 A 
ATOM     12  C   UNL     1       1.966  -3.582   2.137  0.00  0.00    +0.028 A 
ATOM     13  C   UNL     1       3.291  -3.587   1.843  0.00  0.00    +0.078 A 
ATOM     14  S   UNL     1       3.305  -2.912   0.190  0.00  0.00    -0.080 S 
ATOM     15 CL   UNL     1       4.625  -4.120   2.818  0.00  0.00    -0.076 Cl
ENDBRANCH   1  10
BRANCH   1  16
ATOM     16  C   UNL     1       0.878  -0.571  -1.153  0.00  0.00    -0.053 C 
BRANCH  16  17
ATOM     17  N   UNL     1       0.407  -0.065   0.144  0.00  0.00    +0.381 N 
ATOM     18  H   UNL     1       0.359   0.942   0.115  0.00  0.00    -0.090 HD
ATOM     19  H   UNL     1      -0.509  -0.441   0.338  0.00  0.00    -0.090 HD
ATOM     20  H   UNL     1       1.048  -0.351   0.869  0.00  0.00    -0.090 HD
ENDBRANCH  16  17
BRANCH  16  22
ATOM     21  C   UNL     1       2.404   1.381  -1.478  0.00  0.00    +0.002 C 
ATOM     22  C   UNL     1       2.331  -0.143  -1.369  0.00  0.00    -0.018 C 
ENDBRANCH  16  22
ENDBRANCH   1  16
TORSDOF 5
