REMARK  Name = ZINC00627606
REMARK  8 active torsions:
REMARK  status: ('A' for Active; 'I' for Inactive)
REMARK    1  A    between atoms: C_1  and  C_2
REMARK    2  A    between atoms: C_5  and  S_8
REMARK    3  A    between atoms: S_8  and  N_11
REMARK    4  A    between atoms: N_11  and  C_12
REMARK    5  A    between atoms: C_12  and  C_14
REMARK    6  A    between atoms: C_12  and  C_15
REMARK    7  A    between atoms: C_15  and  O_17
REMARK    8  A    between atoms: O_17  and  C_18
REMARK                            x       y       z     vdW  Elec       q    Type
REMARK                         _______ _______ _______ _____ _____    ______ ____
ROOT
ATOM      1  C   UNL     1       4.714   5.207   0.086  0.00  0.00    +0.331 C 
ATOM      2  O   UNL     1       4.636   4.001   0.080  0.00  0.00    -0.249 OA
ENDROOT
BRANCH   1   3
ATOM      3  C   UNL     1       6.060   5.875   0.197  0.00  0.00    +0.182 C 
ATOM      4  C   UNL     1       6.300   6.747  -1.037  0.00  0.00    +0.037 C 
BRANCH   3   5
ATOM      5  N   UNL     1       7.106   4.853   0.284  0.00  0.00    -0.176 NA
ATOM      6  H   UNL     1       7.014   4.021  -0.207  0.00  0.00    +0.149 HD
BRANCH   5   7
ATOM      7  S   UNL     1       8.446   5.117   1.220  0.00  0.00    +0.059 S 
ATOM      8  O   UNL     1       9.249   3.949   1.120  0.00  0.00    -0.153 OA
ATOM      9  O   UNL     1       8.933   6.407   0.877  0.00  0.00    -0.153 OA
BRANCH   7  14
ATOM     10  C   UNL     1       6.585   5.444   6.950  0.00  0.00    +0.044 C 
ATOM     11  C   UNL     1       7.050   5.362   5.519  0.00  0.00    -0.050 A 
ATOM     12  C   UNL     1       7.415   4.143   4.979  0.00  0.00    +0.005 A 
ATOM     13  C   UNL     1       7.841   4.068   3.667  0.00  0.00    +0.029 A 
ATOM     14  C   UNL     1       7.903   5.212   2.893  0.00  0.00    +0.105 A 
ATOM     15  C   UNL     1       7.543   6.432   3.435  0.00  0.00    +0.029 A 
ATOM     16  C   UNL     1       7.112   6.507   4.746  0.00  0.00    +0.005 A 
ENDBRANCH   7  14
ENDBRANCH   5   7
ENDBRANCH   3   5
ENDBRANCH   1   3
BRANCH   1  17
ATOM     17  O   UNL     1       3.600   5.952  -0.006  0.00  0.00    -0.423 OA
BRANCH  17  18
ATOM     18  C   UNL     1       2.413   5.292   0.013  0.00  0.00    +0.153 A 
ATOM     19  C   UNL     1       1.763   5.014  -1.178  0.00  0.00    +0.094 A 
ATOM     20  C   UNL     1       0.551   4.340  -1.159  0.00  0.00    +0.143 A 
ATOM     21  C   UNL     1      -0.003   3.947   0.073  0.00  0.00    +0.023 A 
ATOM     22  C   UNL     1       0.666   4.237   1.266  0.00  0.00    +0.035 A 
ATOM     23  C   UNL     1       1.859   4.901   1.231  0.00  0.00    +0.084 A 
ATOM     24 CL   UNL     1       2.691   5.261   2.712  0.00  0.00    -0.080 Cl
ATOM     25  C   UNL     1      -1.284   3.234   0.080  0.00  0.00    -0.027 A 
ATOM     26  C   UNL     1      -1.891   2.987  -1.107  0.00  0.00    +0.041 A 
ATOM     27  C   UNL     1      -1.274   3.409  -2.306  0.00  0.00    +0.341 A 
ATOM     28  O   UNL     1      -1.825   3.179  -3.368  0.00  0.00    -0.245 OA
ATOM     29  O   UNL     1      -0.101   4.059  -2.308  0.00  0.00    -0.422 OA
ATOM     30  C   UNL     1      -3.191   2.244  -0.878  0.00  0.00    +0.043 C 
ATOM     31  C   UNL     1      -3.094   1.695   0.562  0.00  0.00    +0.010 C 
ATOM     32  C   UNL     1      -2.114   2.691   1.220  0.00  0.00    +0.036 C 
ENDBRANCH  17  18
ENDBRANCH   1  17
TORSDOF 6
