REMARK  Name = ZINC37067092
REMARK  7 active torsions:
REMARK  status: ('A' for Active; 'I' for Inactive)
REMARK    1  A    between atoms: C_3  and  N_13
REMARK    2  A    between atoms: C_5  and  O_8
REMARK    3  A    between atoms: C_6  and  N_7
REMARK    4  A    between atoms: O_8  and  C_9
REMARK    5  A    between atoms: C_9  and  C_10
REMARK    6  A    between atoms: N_13  and  C_14
REMARK    7  A    between atoms: C_14  and  C_15
REMARK                            x       y       z     vdW  Elec       q    Type
REMARK                         _______ _______ _______ _____ _____    ______ ____
ROOT
ATOM      1  C   UNL     1      -0.017   1.386   0.010  0.00  0.00    +0.031 A 
ATOM      2  C   UNL     1       1.192   2.064   0.002  0.00  0.00    +0.045 A 
ATOM      3  C   UNL     1       2.377   1.340  -0.013  0.00  0.00    +0.123 A 
ATOM      4  N   UNL     1       2.362   0.015  -0.021  0.00  0.00    -0.197 NA
ATOM      5  C   UNL     1       1.228  -0.666  -0.014  0.00  0.00    +0.238 A 
ATOM      6  C   UNL     1       0.002  -0.004   0.002  0.00  0.00    +0.087 A 
ENDROOT
BRANCH   6   7
ATOM      7  N   UNL     1      -1.198  -0.731   0.010  0.00  0.00    -0.354 N 
ATOM      8  H   UNL     1      -2.048  -0.264   0.021  0.00  0.00    +0.142 HD
ATOM      9  H   UNL     1      -1.178  -1.701   0.005  0.00  0.00    +0.142 HD
ENDBRANCH   6   7
BRANCH   3  10
ATOM     10  N   UNL     1       3.596   2.014  -0.021  0.00  0.00    -0.326 N 
ATOM     11  H   UNL     1       4.427   1.514  -0.032  0.00  0.00    +0.148 HD
BRANCH  10  12
ATOM     12  C   UNL     1       3.622   3.479  -0.014  0.00  0.00    +0.134 C 
BRANCH  12  13
ATOM     13  C   UNL     1       5.074   3.962  -0.025  0.00  0.00    +0.135 C 
ATOM     14  C   UNL     1       5.114   5.500   0.105  0.00  0.00    +0.035 C 
ATOM     15  C   UNL     1       6.265   5.883  -0.866  0.00  0.00    +0.031 C 
ATOM     16  C   UNL     1       6.089   4.808  -1.968  0.00  0.00    +0.160 C 
ATOM     17  O   UNL     1       5.692   3.615  -1.269  0.00  0.00    -0.375 OA
ENDBRANCH  12  13
ENDBRANCH  10  12
ENDBRANCH   3  10
BRANCH   5  18
ATOM     18  O   UNL     1       1.259  -2.023  -0.022  0.00  0.00    -0.475 OA
BRANCH  18  19
ATOM     19  C   UNL     1       2.546  -2.643  -0.038  0.00  0.00    +0.234 C 
BRANCH  19  20
ATOM     20  C   UNL     1       2.381  -4.164  -0.045  0.00  0.00    +0.027 C 
ATOM     21  C   UNL     1       2.915  -4.939   1.161  0.00  0.00    +0.007 C 
ATOM     22  C   UNL     1       3.647  -5.012  -0.180  0.00  0.00    +0.007 C 
ENDBRANCH  19  20
ENDBRANCH  18  19
ENDBRANCH   5  18
TORSDOF 7
