REMARK  Name = ZINC04967187
REMARK  7 active torsions:
REMARK  status: ('A' for Active; 'I' for Inactive)
REMARK    1  A    between atoms: C_1  and  C_2
REMARK    2  A    between atoms: C_2  and  N_3
REMARK    3  A    between atoms: N_3  and  C_4
REMARK    4  A    between atoms: C_10  and  C_12
REMARK    5  A    between atoms: C_12  and  S_13
REMARK    6  A    between atoms: S_13  and  C_14
REMARK    7  A    between atoms: C_19  and  C_22
REMARK                            x       y       z     vdW  Elec       q    Type
REMARK                         _______ _______ _______ _____ _____    ______ ____
ROOT
ATOM      1  C   UNL     1      -0.002   0.505  -2.598  0.00  0.00    +0.197 A 
ATOM      2  N   UNL     1       1.212   0.021  -2.531  0.00  0.00    -0.121 NA
ATOM      3  N   UNL     1       1.603  -0.355  -3.698  0.00  0.00    -0.121 NA
ATOM      4  C   UNL     1       0.668  -0.123  -4.566  0.00  0.00    +0.201 A 
ATOM      5  N   UNL     1      -0.411   0.438  -3.920  0.00  0.00    -0.264 N 
ATOM      6  C   UNL     1      -1.512   0.754  -4.697  0.00  0.00    +0.065 A 
ATOM      7  C   UNL     1      -1.497   0.512  -6.022  0.00  0.00    +0.075 A 
ATOM      8  S   UNL     1       0.124  -0.200  -6.254  0.00  0.00    -0.055 S 
ENDROOT
BRANCH   6   9
ATOM      9  C   UNL     1      -2.706   1.360  -4.071  0.00  0.00    -0.001 A 
ATOM     10  C   UNL     1      -3.123   0.943  -2.806  0.00  0.00    +0.010 A 
ATOM     11  C   UNL     1      -4.234   1.517  -2.225  0.00  0.00    +0.001 A 
ATOM     12  C   UNL     1      -4.944   2.495  -2.899  0.00  0.00    +0.000 A 
ATOM     13  C   UNL     1      -4.540   2.909  -4.156  0.00  0.00    +0.001 A 
ATOM     14  C   UNL     1      -3.426   2.348  -4.746  0.00  0.00    +0.010 A 
ENDBRANCH   6   9
BRANCH   1  15
ATOM     15  S   UNL     1      -0.944   1.136  -1.250  0.00  0.00    -0.076 S 
BRANCH  15  16
ATOM     16  C   UNL     1       0.152   0.938   0.182  0.00  0.00    +0.173 C 
BRANCH  16  18
ATOM     17  N   UNL     1       0.086   1.399   2.611  0.00  0.00    -0.271 N 
ATOM     18  C   UNL     1      -0.542   1.446   1.420  0.00  0.00    +0.230 C 
ATOM     19  O   UNL     1      -1.665   1.897   1.343  0.00  0.00    -0.274 OA
BRANCH  17  20
ATOM     20  C   UNL     1      -0.595   1.772   3.776  0.00  0.00    +0.036 A 
ATOM     21  C   UNL     1      -0.963   3.097   3.973  0.00  0.00    +0.023 A 
ATOM     22  C   UNL     1      -1.639   3.461   5.120  0.00  0.00    +0.002 A 
ATOM     23  C   UNL     1      -1.941   2.510   6.078  0.00  0.00    +0.000 A 
ATOM     24  C   UNL     1      -1.570   1.191   5.888  0.00  0.00    +0.002 A 
ATOM     25  C   UNL     1      -0.898   0.820   4.740  0.00  0.00    +0.023 A 
ENDBRANCH  17  20
BRANCH  17  27
ATOM     26  C   UNL     1       2.407   2.167   2.535  0.00  0.00    +0.025 C 
ATOM     27  C   UNL     1       1.481   0.958   2.688  0.00  0.00    +0.110 C 
ENDBRANCH  17  27
ENDBRANCH  16  18
ENDBRANCH  15  16
ENDBRANCH   1  15
TORSDOF 6
