REMARK  Name = ZINC04865631
REMARK  5 active torsions:
REMARK  status: ('A' for Active; 'I' for Inactive)
REMARK    1  A    between atoms: C_1  and  C_2
REMARK    2  A    between atoms: C_2  and  C_23
REMARK    3  A    between atoms: C_7  and  C_11
REMARK    4  A    between atoms: N_13  and  C_14
REMARK    5  A    between atoms: C_17  and  N_20
REMARK                            x       y       z     vdW  Elec       q    Type
REMARK                         _______ _______ _______ _____ _____    ______ ____
ROOT
ATOM      1  C   UNL     1      -0.637   4.304  -1.485  0.00  0.00    +0.227 C 
ATOM      2  O   UNL     1      -1.224   4.149  -2.535  0.00  0.00    -0.275 OA
ATOM      3  N   UNL     1      -0.310   5.545  -1.073  0.00  0.00    -0.285 N 
ATOM      4  H   UNL     1       0.102   5.675  -0.204  0.00  0.00    +0.155 HD
ENDROOT
BRANCH   1  10
ATOM      5  C   UNL     1      -2.171   0.950   1.433  0.00  0.00    +0.016 C 
ATOM      6  C   UNL     1      -0.792   1.565   1.189  0.00  0.00    -0.010 C 
ATOM      7  C   UNL     1      -0.095   0.872  -0.022  0.00  0.00    +0.000 C 
ATOM      8  C   UNL     1       1.369   1.407   0.018  0.00  0.00    +0.006 C 
ATOM      9  C   UNL     1       1.249   2.894  -0.387  0.00  0.00    +0.021 C 
ATOM     10  C   UNL     1      -0.274   3.110  -0.641  0.00  0.00    +0.069 C 
ATOM     11  C   UNL     1      -0.675   1.707  -1.219  0.00  0.00    +0.025 C 
ATOM     12  C   UNL     1      -0.909   3.060   0.756  0.00  0.00    -0.056 C 
ATOM     13  C   UNL     1      -1.434   4.056   1.426  0.00  0.00    +0.009 C 
ATOM     14  C   UNL     1       0.076   1.442   2.443  0.00  0.00    +0.016 C 
ENDBRANCH   1  10
BRANCH   3  15
ATOM     15  C   UNL     1      -0.563   6.646  -1.899  0.00  0.00    +0.034 A 
ATOM     16  C   UNL     1       0.315   7.721  -1.913  0.00  0.00    +0.025 A 
ATOM     17  C   UNL     1       0.065   8.804  -2.734  0.00  0.00    +0.034 A 
ATOM     18  C   UNL     1      -1.065   8.823  -3.531  0.00  0.00    +0.126 A 
ATOM     19  C   UNL     1      -1.944   7.756  -3.514  0.00  0.00    +0.034 A 
ATOM     20  C   UNL     1      -1.697   6.668  -2.701  0.00  0.00    +0.025 A 
BRANCH  18  21
ATOM     21  N   UNL     1      -1.333   9.987  -4.404  0.00  0.00    +0.056 N 
ATOM     22  O   UNL     1      -2.327  10.005  -5.107  0.00  0.00    -0.126 OA
ATOM     23  O   UNL     1      -0.559  10.928  -4.420  0.00  0.00    -0.126 OA
ENDBRANCH  18  21
ENDBRANCH   3  15
TORSDOF 3
