REMARK  Name = ZINC03840522
REMARK  8 active torsions:
REMARK  status: ('A' for Active; 'I' for Inactive)
REMARK    1  A    between atoms: C_1  and  C_2
REMARK    2  A    between atoms: N_9  and  C_10
REMARK    3  A    between atoms: C_17  and  C_36
REMARK    4  A    between atoms: C_20  and  O_35
REMARK    5  A    between atoms: C_22  and  C_26
REMARK    6  A    between atoms: C_26  and  C_28
REMARK    7  A    between atoms: C_26  and  C_29
REMARK    8  A    between atoms: N_31  and  C_32
REMARK                            x       y       z     vdW  Elec       q    Type
REMARK                         _______ _______ _______ _____ _____    ______ ____
ROOT
ATOM      1  C   UNL     1      -8.118  -0.162   0.512  0.00  0.00    +0.014 C 
ATOM      2  C   UNL     1      -8.157   1.077  -0.384  0.00  0.00    +0.042 C 
ATOM      3  C   UNL     1      -6.767   1.341  -0.942  0.00  0.00    +0.057 A 
ATOM      4  C   UNL     1      -6.292   2.611  -1.016  0.00  0.00    +0.015 A 
ATOM      5  S   UNL     1      -4.680   2.384  -1.719  0.00  0.00    -0.057 S 
ATOM      6  C   UNL     1      -4.755   0.654  -1.870  0.00  0.00    +0.163 A 
ATOM      7  N   UNL     1      -5.951   0.386  -1.386  0.00  0.00    -0.229 NA
ATOM      8  N   UNL     1      -3.800  -0.220  -2.366  0.00  0.00    -0.294 N 
ATOM      9  C   UNL     1      -6.975   3.863  -0.594  0.00  0.00    +0.051 C 
ATOM     10  C   UNL     1      -8.474   3.571  -0.385  0.00  0.00    -0.022 C 
ATOM     11  C   UNL     1      -8.620   2.288   0.436  0.00  0.00    +0.033 C 
ATOM     12  C   UNL     1     -10.092   2.060   0.798  0.00  0.00    +0.123 C 
ATOM     13  C   UNL     1     -10.639   3.254   1.578  0.00  0.00    +0.029 C 
ATOM     14  C   UNL     1     -10.536   4.505   0.701  0.00  0.00    +0.007 C 
ATOM     15  C   UNL     1      -9.065   4.760   0.380  0.00  0.00    +0.008 C 
ATOM     16  C   UNL     1      -9.168   3.407  -1.738  0.00  0.00    +0.012 C 
ATOM     17  H   UNL     1      -4.010  -1.162  -2.467  0.00  0.00    +0.154 HD
ENDROOT
BRANCH   8  18
ATOM     18  C   UNL     1      -2.534   0.255  -2.720  0.00  0.00    +0.033 A 
ATOM     19  C   UNL     1      -1.845  -0.321  -3.780  0.00  0.00    +0.023 A 
ATOM     20  C   UNL     1      -0.598   0.155  -4.131  0.00  0.00    +0.002 A 
ATOM     21  C   UNL     1      -0.032   1.201  -3.426  0.00  0.00    +0.000 A 
ATOM     22  C   UNL     1      -0.712   1.774  -2.367  0.00  0.00    +0.002 A 
ATOM     23  C   UNL     1      -1.960   1.302  -2.010  0.00  0.00    +0.023 A 
ENDBRANCH   8  18
BRANCH  13  24
ATOM     24  C   UNL     1      -9.818   3.453   2.854  0.00  0.00    +0.077 C 
ATOM     25  C   UNL     1      -9.854   2.171   3.689  0.00  0.00    +0.017 C 
BRANCH  24  26
ATOM     26  C   UNL     1     -10.400   4.590   3.654  0.00  0.00    +0.216 C 
ATOM     27  O   UNL     1     -11.375   5.182   3.244  0.00  0.00    -0.276 OA
ATOM     28  N   UNL     1      -9.836   4.948   4.825  0.00  0.00    -0.312 N 
ATOM     29  H   UNL     1      -9.056   4.473   5.152  0.00  0.00    +0.149 HD
BRANCH  28  30
ATOM     30  C   UNL     1     -10.402   6.053   5.602  0.00  0.00    +0.073 C 
ATOM     31  C   UNL     1      -9.425   7.064   6.207  0.00  0.00    +0.024 C 
ATOM     32  C   UNL     1     -10.145   6.059   7.111  0.00  0.00    +0.024 C 
ENDBRANCH  28  30
ENDBRANCH  24  26
ENDBRANCH  13  24
BRANCH  12  33
ATOM     33  O   UNL     1     -10.205   0.881   1.598  0.00  0.00    -0.391 OA
ATOM     34  H   UNL     1     -11.111   0.673   1.866  0.00  0.00    +0.210 HD
ENDBRANCH  12  33
TORSDOF 5
