REMARK  Name = ZINC12867671
REMARK  14 active torsions:
REMARK  status: ('A' for Active; 'I' for Inactive)
REMARK    1  A    between atoms: C_1  and  C_2
REMARK    2  A    between atoms: C_4  and  C_32
REMARK    3  A    between atoms: C_9  and  C_30
REMARK    4  A    between atoms: N_11  and  C_12
REMARK    5  A    between atoms: C_12  and  C_13
REMARK    6  A    between atoms: C_13  and  C_14
REMARK    7  A    between atoms: C_14  and  N_15
REMARK    8  A    between atoms: C_16  and  C_18
REMARK    9  A    between atoms: C_20  and  O_28
REMARK   10  A    between atoms: C_21  and  O_26
REMARK   11  A    between atoms: C_22  and  O_24
REMARK   12  A    between atoms: O_24  and  C_25
REMARK   13  A    between atoms: O_26  and  C_27
REMARK   14  A    between atoms: O_28  and  C_29
REMARK                            x       y       z     vdW  Elec       q    Type
REMARK                         _______ _______ _______ _____ _____    ______ ____
ROOT
ATOM      1  C   UNL     1       1.281  -0.719  -0.014  0.00  0.00    +0.104 C 
ENDROOT
BRANCH   1  12
ATOM      2  C   UNL     1       1.269   7.662   0.033  0.00  0.00    +0.044 C 
ATOM      3  C   UNL     1       1.214   6.156   0.025  0.00  0.00    -0.050 A 
ATOM      4  C   UNL     1       2.399   5.424   0.010  0.00  0.00    +0.008 A 
ATOM      5  C   UNL     1       2.384   4.062   0.002  0.00  0.00    -0.026 A 
ATOM      6  C   UNL     1       1.157   3.377   0.009  0.00  0.00    +0.051 A 
ATOM      7  C   UNL     1      -0.048   4.123   0.025  0.00  0.00    +0.000 A 
ATOM      8  C   UNL     1       0.005   5.528   0.033  0.00  0.00    +0.013 A 
ATOM      9  C   UNL     1      -1.279   3.444   0.032  0.00  0.00    +0.032 A 
ATOM     10  C   UNL     1      -1.260   2.055   0.019  0.00  0.00    +0.090 A 
ATOM     11  C   UNL     1      -0.017   1.379   0.010  0.00  0.00    +0.114 A 
ATOM     12  N   UNL     1       0.002  -0.004   0.002  0.00  0.00    -0.329 N 
ATOM     13  C   UNL     1       3.679   3.292  -0.015  0.00  0.00    +0.046 C 
ATOM     14  H   UNL     1      -0.831  -0.500   0.007  0.00  0.00    +0.147 HD
ATOM     15  N   UNL     1       1.189   1.998   0.001  0.00  0.00    -0.342 N 
ATOM     16  H   UNL     1       2.072   1.474  -0.010  0.00  0.00    +0.167 HD
BRANCH  10  17
ATOM     17  C   UNL     1      -2.485   1.315   0.021  0.00  0.00    +0.103 C 
ATOM     18  N   UNL     1      -3.458   0.728   0.022  0.00  0.00    -0.191 NA
ENDBRANCH  10  17
ENDBRANCH   1  12
BRANCH   1  19
ATOM     19  C   UNL     1       1.021  -2.227  -0.020  0.00  0.00    +0.037 C 
BRANCH  19  20
ATOM     20  C   UNL     1       2.357  -2.974  -0.036  0.00  0.00    +0.106 C 
BRANCH  20  21
ATOM     21  N   UNL     1       2.108  -4.418  -0.042  0.00  0.00    -0.311 N 
ATOM     22  C   UNL     1       3.145  -5.280  -0.056  0.00  0.00    +0.244 C 
ATOM     23  O   UNL     1       4.285  -4.859  -0.065  0.00  0.00    -0.270 OA
ATOM     24  H   UNL     1       1.198  -4.754  -0.035  0.00  0.00    +0.149 HD
BRANCH  22  25
ATOM     25  C   UNL     1       2.895  -6.734  -0.062  0.00  0.00    +0.044 A 
ATOM     26  C   UNL     1       1.585  -7.219  -0.046  0.00  0.00    +0.062 A 
ATOM     27  C   UNL     1       1.353  -8.582  -0.056  0.00  0.00    +0.166 A 
ATOM     28  C   UNL     1       2.424  -9.471  -0.070  0.00  0.00    +0.204 A 
ATOM     29  C   UNL     1       3.731  -8.991  -0.081  0.00  0.00    +0.166 A 
ATOM     30  C   UNL     1       3.968  -7.629  -0.077  0.00  0.00    +0.062 A 
BRANCH  29  31
ATOM     31  O   UNL     1       4.775  -9.862  -0.096  0.00  0.00    -0.491 OA
ATOM     32  C   UNL     1       6.089  -9.300  -0.106  0.00  0.00    +0.277 C 
ENDBRANCH  29  31
BRANCH  28  33
ATOM     33  O   UNL     1       2.194 -10.810  -0.075  0.00  0.00    -0.488 OA
ATOM     34  C   UNL     1       2.097 -11.456   1.197  0.00  0.00    +0.277 C 
ENDBRANCH  28  33
BRANCH  27  35
ATOM     35  O   UNL     1       0.078  -9.055  -0.046  0.00  0.00    -0.491 OA
ATOM     36  C   UNL     1      -0.973  -8.086  -0.032  0.00  0.00    +0.277 C 
ENDBRANCH  27  35
ENDBRANCH  22  25
ENDBRANCH  20  21
ENDBRANCH  19  20
ENDBRANCH   1  19
TORSDOF 9
