REMARK  Name = ZINC18123205
REMARK  3 active torsions:
REMARK  status: ('A' for Active; 'I' for Inactive)
REMARK    1  A    between atoms: C_1  and  C_2
REMARK    2  A    between atoms: C_7  and  C_8
REMARK    3  A    between atoms: N_16  and  C_19
REMARK                            x       y       z     vdW  Elec       q    Type
REMARK                         _______ _______ _______ _____ _____    ______ ____
ROOT
ATOM      1  C   UNL     1       0.025   0.045   2.504  0.00  0.00    +0.163 C 
ATOM      2  C   UNL     1       1.446   0.408   2.898  0.00  0.00    +0.125 C 
ATOM      3  C   UNL     1       1.817  -0.943   3.630  0.00  0.00    +0.138 C 
ATOM      4  C   UNL     1       3.250  -0.820   3.736  0.00  0.00    +0.234 C 
ATOM      5  O   UNL     1       3.959  -1.211   4.638  0.00  0.00    -0.274 OA
ATOM      6  N   UNL     1       3.636  -0.163   2.593  0.00  0.00    -0.210 N 
ATOM      7  C   UNL     1       2.570   0.402   1.912  0.00  0.00    +0.233 C 
ATOM      8  O   UNL     1       2.546   0.813   0.772  0.00  0.00    -0.274 OA
ATOM      9  C   UNL     1       0.628  -1.138   4.469  0.00  0.00    +0.206 C 
ATOM     10  O   UNL     1      -0.476  -0.809   3.570  0.00  0.00    -0.348 OA
ATOM     11  C   UNL     1       0.449  -2.543   4.979  0.00  0.00    +0.204 C 
ATOM     12  O   UNL     1       0.439  -3.556   4.312  0.00  0.00    -0.288 OA
ATOM     13  C   UNL     1       0.289  -2.457   6.443  0.00  0.00    +0.031 A 
ATOM     14  C   UNL     1       0.093  -3.456   7.399  0.00  0.00    +0.012 A 
ATOM     15  C   UNL     1      -0.030  -3.123   8.734  0.00  0.00    +0.001 A 
ATOM     16  C   UNL     1       0.038  -1.801   9.136  0.00  0.00    +0.001 A 
ATOM     17  C   UNL     1       0.231  -0.797   8.207  0.00  0.00    +0.012 A 
ATOM     18  C   UNL     1       0.358  -1.111   6.852  0.00  0.00    +0.031 A 
ATOM     19  C   UNL     1       0.566  -0.242   5.678  0.00  0.00    +0.204 C 
ATOM     20  O   UNL     1       0.668   0.966   5.685  0.00  0.00    -0.288 OA
ENDROOT
BRANCH   1  27
ATOM     21  C   UNL     1      -0.018   1.503   0.010  0.00  0.00    +0.044 C 
ATOM     22  C   UNL     1       0.002  -0.004   0.002  0.00  0.00    -0.045 A 
ATOM     23  C   UNL     1       0.006  -0.689  -1.199  0.00  0.00    +0.004 A 
ATOM     24  C   UNL     1       0.025  -2.071  -1.207  0.00  0.00    +0.000 A 
ATOM     25  C   UNL     1       0.040  -2.768  -0.013  0.00  0.00    +0.000 A 
ATOM     26  C   UNL     1       0.037  -2.084   1.188  0.00  0.00    +0.006 A 
ATOM     27  C   UNL     1       0.023  -0.702   1.195  0.00  0.00    -0.015 A 
ENDBRANCH   1  27
BRANCH   6  28
ATOM     28  C   UNL     1       4.966  -0.074   2.159  0.00  0.00    +0.044 A 
ATOM     29  C   UNL     1       5.979  -0.674   2.895  0.00  0.00    +0.025 A 
ATOM     30  C   UNL     1       7.289  -0.584   2.466  0.00  0.00    +0.017 A 
ATOM     31  C   UNL     1       7.592   0.103   1.304  0.00  0.00    +0.018 A 
ATOM     32  C   UNL     1       6.584   0.702   0.569  0.00  0.00    +0.017 A 
ATOM     33  C   UNL     1       5.272   0.610   0.991  0.00  0.00    +0.025 A 
ATOM     34 BR   UNL     1       9.386   0.224   0.719  0.00  0.00    -0.050 Br
ENDBRANCH   6  28
TORSDOF 2
