REMARK  Name = ZINC20343872
REMARK  15 active torsions:
REMARK  status: ('A' for Active; 'I' for Inactive)
REMARK    1  A    between atoms: C_1  and  C_2
REMARK    2  A    between atoms: N_9  and  C_10
REMARK    3  A    between atoms: C_12  and  C_18
REMARK    4  A    between atoms: C_12  and  C_19
REMARK    5  A    between atoms: C_14  and  C_16
REMARK    6  A    between atoms: C_14  and  C_17
REMARK    7  A    between atoms: N_20  and  C_21
REMARK    8  A    between atoms: N_20  and  C_34
REMARK    9  A    between atoms: C_21  and  C_22
REMARK   10  A    between atoms: C_25  and  O_32
REMARK   11  A    between atoms: C_26  and  O_30
REMARK   12  A    between atoms: C_27  and  O_28
REMARK   13  A    between atoms: O_28  and  C_29
REMARK   14  A    between atoms: O_30  and  C_31
REMARK   15  A    between atoms: O_32  and  C_33
REMARK                            x       y       z     vdW  Elec       q    Type
REMARK                         _______ _______ _______ _____ _____    ______ ____
ROOT
ATOM      1  C   UNL     1       3.536   8.504   3.314  0.00  0.00    +0.053 C 
ATOM      2  C   UNL     1       3.772   7.060   2.953  0.00  0.00    +0.007 A 
ATOM      3  C   UNL     1       4.611   6.176   3.538  0.00  0.00    +0.058 A 
ATOM      4  C   UNL     1       4.640   4.887   3.013  0.00  0.00    +0.140 A 
ATOM      5  N   UNL     1       5.419   3.951   3.517  0.00  0.00    -0.283 NA
ATOM      6  N   UNL     1       3.816   4.638   1.937  0.00  0.00    -0.237 N 
ATOM      7  S   UNL     1       3.034   6.136   1.689  0.00  0.00    -0.008 S 
ATOM      8  C   UNL     1       3.657   3.462   1.235  0.00  0.00    +0.185 C 
ATOM      9  N   UNL     1       4.455   3.183   0.243  0.00  0.00    -0.355 N 
ATOM     10  N   UNL     1       2.656   2.585   1.580  0.00  0.00    -0.295 N 
ATOM     11  H   UNL     1       6.042   4.171   4.227  0.00  0.00    +0.188 HD
ATOM     12  H   UNL     1       4.280   2.284  -0.367  0.00  0.00    +0.163 HD
ENDROOT
BRANCH   9  13
ATOM     13  C   UNL     1       5.587   4.067  -0.060  0.00  0.00    +0.079 C 
ATOM     14  C   UNL     1       5.392   4.678  -1.447  0.00  0.00    +0.011 C 
ATOM     15  C   UNL     1       6.568   5.586  -1.799  0.00  0.00    -0.071 C 
ATOM     16  N   UNL     1       7.853   4.959  -1.575  0.00  0.00    +0.386 N 
ATOM     17  C   UNL     1       8.071   4.139  -0.401  0.00  0.00    -0.071 C 
ATOM     18  C   UNL     1       6.877   3.248  -0.067  0.00  0.00    +0.011 C 
ATOM     19  C   UNL     1       8.424   5.000   0.818  0.00  0.00    -0.010 C 
ATOM     20  C   UNL     1       9.279   3.216  -0.674  0.00  0.00    -0.010 C 
ATOM     21  C   UNL     1       6.450   6.902  -1.020  0.00  0.00    -0.010 C 
ATOM     22  C   UNL     1       6.455   5.932  -3.300  0.00  0.00    -0.010 C 
ATOM     23  H   UNL     1       8.083   4.284  -2.413  0.00  0.00    -0.084 HD
ATOM     24  H   UNL     1       8.632   5.733  -1.503  0.00  0.00    -0.084 HD
ENDBRANCH   9  13
BRANCH  10  25
ATOM     25  C   UNL     1       2.555   1.287   0.908  0.00  0.00    +0.077 C 
ATOM     26  C   UNL     1       3.813   0.443   1.197  0.00  0.00    +0.022 C 
ATOM     27  C   UNL     1       4.081  -0.306  -0.132  0.00  0.00    +0.002 C 
ATOM     28  C   UNL     1       3.727   0.757  -1.201  0.00  0.00    +0.002 C 
ATOM     29  C   UNL     1       2.500   1.487  -0.617  0.00  0.00    +0.022 C 
ENDBRANCH  10  25
BRANCH  10  30
ATOM     30  C   UNL     1       1.691   2.948   2.621  0.00  0.00    +0.147 C 
BRANCH  30  31
ATOM     31  C   UNL     1       0.580   3.764   2.013  0.00  0.00    +0.015 A 
ATOM     32  C   UNL     1       0.542   3.970   0.646  0.00  0.00    +0.012 A 
ATOM     33  C   UNL     1      -0.471   4.723   0.084  0.00  0.00    +0.050 A 
ATOM     34  C   UNL     1      -1.459   5.270   0.889  0.00  0.00    +0.165 A 
ATOM     35  C   UNL     1      -1.429   5.061   2.262  0.00  0.00    +0.204 A 
ATOM     36  C   UNL     1      -0.407   4.303   2.824  0.00  0.00    +0.170 A 
BRANCH  36  37
ATOM     37  O   UNL     1      -0.373   4.096   4.167  0.00  0.00    -0.491 OA
ATOM     38  C   UNL     1      -0.978   2.896   4.654  0.00  0.00    +0.277 C 
ENDBRANCH  36  37
BRANCH  35  39
ATOM     39  O   UNL     1      -2.396   5.597   3.056  0.00  0.00    -0.488 OA
ATOM     40  C   UNL     1      -2.155   6.905   3.578  0.00  0.00    +0.277 C 
ENDBRANCH  35  39
BRANCH  34  41
ATOM     41  O   UNL     1      -2.457   6.010   0.335  0.00  0.00    -0.491 OA
ATOM     42  C   UNL     1      -2.425   6.184  -1.083  0.00  0.00    +0.277 C 
ENDBRANCH  34  41
ENDBRANCH  30  31
ENDBRANCH  10  30
TORSDOF 7
