REMARK  Name = ZINC39583637
REMARK  6 active torsions:
REMARK  status: ('A' for Active; 'I' for Inactive)
REMARK    1  A    between atoms: C_1  and  C_2
REMARK    2  A    between atoms: C_5  and  C_8
REMARK    3  A    between atoms: C_12  and  S_22
REMARK    4  A    between atoms: N_14  and  C_15
REMARK    5  A    between atoms: S_22  and  C_23
REMARK    6  A    between atoms: C_23  and  C_24
REMARK                            x       y       z     vdW  Elec       q    Type
REMARK                         _______ _______ _______ _____ _____    ______ ____
ROOT
ATOM      1  C   UNL     1       0.081  -4.259  -0.030  0.00  0.00    +0.188 C 
ATOM      2  N   UNL     1       0.739  -4.780  -1.257  0.00  0.00    -0.230 NA
ATOM      3  N   UNL     1       1.162  -6.131  -0.856  0.00  0.00    -0.226 NA
ATOM      4  C   UNL     1       1.593  -5.980   0.553  0.00  0.00    +0.218 C 
ATOM      5  N   UNL     1       0.901  -4.787   1.079  0.00  0.00    -0.284 N 
ATOM      6  H   UNL     1       1.534  -4.213  -1.510  0.00  0.00    +0.143 HD
ATOM      7  H   UNL     1       0.398  -6.787  -0.931  0.00  0.00    +0.143 HD
ENDROOT
BRANCH   1  12
ATOM      8  C   UNL     1       0.135   1.520  -0.012  0.00  0.00    +0.044 C 
ATOM      9  C   UNL     1       0.121   0.013  -0.016  0.00  0.00    -0.050 A 
ATOM     10  C   UNL     1       1.312  -0.690  -0.018  0.00  0.00    +0.004 A 
ATOM     11  C   UNL     1       1.299  -2.072  -0.022  0.00  0.00    +0.007 A 
ATOM     12  C   UNL     1       0.095  -2.752  -0.024  0.00  0.00    -0.011 A 
ATOM     13  C   UNL     1      -1.095  -2.050  -0.022  0.00  0.00    +0.007 A 
ATOM     14  C   UNL     1      -1.083  -0.667  -0.013  0.00  0.00    +0.004 A 
ENDBRANCH   1  12
BRANCH   5  15
ATOM     15  C   UNL     1       1.003  -4.260   2.369  0.00  0.00    +0.033 A 
ATOM     16  C   UNL     1       0.183  -3.208   2.757  0.00  0.00    +0.024 A 
ATOM     17  C   UNL     1       0.285  -2.690   4.034  0.00  0.00    +0.022 A 
ATOM     18  C   UNL     1       1.203  -3.217   4.925  0.00  0.00    +0.041 A 
ATOM     19  C   UNL     1       2.021  -4.266   4.541  0.00  0.00    +0.022 A 
ATOM     20  C   UNL     1       1.919  -4.792   3.268  0.00  0.00    +0.024 A 
ATOM     21 CL   UNL     1       1.329  -2.562   6.528  0.00  0.00    -0.084 Cl
ENDBRANCH   5  15
BRANCH   4  22
ATOM     22  S   UNL     1       1.117  -7.445   1.510  0.00  0.00    -0.114 S 
BRANCH  22  23
ATOM     23  C   UNL     1      -0.685  -7.526   1.321  0.00  0.00    +0.146 C 
BRANCH  23  24
ATOM     24  C   UNL     1      -1.217  -8.716   2.079  0.00  0.00    +0.118 A 
ATOM     25  N   UNL     1      -1.598  -8.697   3.322  0.00  0.00    -0.232 NA
ATOM     26  C   UNL     1      -2.020  -9.935   3.689  0.00  0.00    +0.089 A 
ATOM     27  C   UNL     1      -2.523 -10.469   4.878  0.00  0.00    +0.030 A 
ATOM     28  C   UNL     1      -2.871 -11.789   4.938  0.00  0.00    +0.002 A 
ATOM     29  C   UNL     1      -2.731 -12.609   3.827  0.00  0.00    +0.002 A 
ATOM     30  C   UNL     1      -2.236 -12.104   2.643  0.00  0.00    +0.028 A 
ATOM     31  C   UNL     1      -1.878 -10.765   2.564  0.00  0.00    +0.066 A 
ATOM     32  N   UNL     1      -1.373  -9.963   1.560  0.00  0.00    -0.341 N 
ATOM     33  H   UNL     1      -1.166 -10.239   0.653  0.00  0.00    +0.167 HD
ENDBRANCH  23  24
ENDBRANCH  22  23
ENDBRANCH   4  22
TORSDOF 5
