REMARK  Name = ZINC11616418
REMARK  15 active torsions:
REMARK  status: ('A' for Active; 'I' for Inactive)
REMARK    1  A    between atoms: C_1  and  C_2
REMARK    2  A    between atoms: C_3  and  C_26
REMARK    3  A    between atoms: C_7  and  N_11
REMARK    4  A    between atoms: C_12  and  C_14
REMARK    5  A    between atoms: C_14  and  C_18
REMARK    6  A    between atoms: N_15  and  O_16
REMARK    7  A    between atoms: O_16  and  C_17
REMARK    8  A    between atoms: C_26  and  O_28
REMARK    9  A    between atoms: O_28  and  C_29
REMARK   10  A    between atoms: C_29  and  O_30
REMARK   11  A    between atoms: O_30  and  C_31
REMARK   12  A    between atoms: C_31  and  C_33
REMARK   13  A    between atoms: C_33  and  C_34
REMARK   14  A    between atoms: C_33  and  C_35
REMARK   15  A    between atoms: C_33  and  C_36
REMARK                            x       y       z     vdW  Elec       q    Type
REMARK                         _______ _______ _______ _____ _____    ______ ____
ROOT
ATOM      1  C   UNL     1      -0.397   2.725   5.944  0.00  0.00    +0.042 C 
ATOM      2  C   UNL     1       0.820   3.580   6.185  0.00  0.00    -0.034 C 
ATOM      3  C   UNL     1       1.084   4.486   5.256  0.00  0.00    +0.122 C 
ATOM      4  N   UNL     1       2.218   5.309   5.359  0.00  0.00    -0.249 N 
ATOM      5  C   UNL     1       3.045   5.548   6.570  0.00  0.00    +0.169 C 
ATOM      6  C   UNL     1       4.137   5.985   5.619  0.00  0.00    +0.191 C 
ATOM      7  C   UNL     1       3.026   6.042   4.606  0.00  0.00    +0.244 C 
ATOM      8  O   UNL     1       2.912   6.562   3.517  0.00  0.00    -0.273 OA
ATOM      9  S   UNL     1       3.290   3.914   7.348  0.00  0.00    -0.131 S 
ATOM     10  C   UNL     1       1.581   3.295   7.438  0.00  0.00    +0.103 C 
ENDROOT
BRANCH   6  11
ATOM     11  N   UNL     1       4.724   7.289   5.936  0.00  0.00    -0.296 N 
ATOM     12  C   UNL     1       5.929   7.626   5.436  0.00  0.00    +0.268 C 
ATOM     13  O   UNL     1       6.484   6.892   4.642  0.00  0.00    -0.268 OA
ATOM     14  H   UNL     1       4.244   7.911   6.506  0.00  0.00    +0.150 HD
BRANCH  12  15
ATOM     15  C   UNL     1       6.578   8.891   5.855  0.00  0.00    +0.190 C 
ATOM     16  N   UNL     1       7.686   9.274   5.285  0.00  0.00    -0.078 NA
BRANCH  15  17
ATOM     17  C   UNL     1       5.969   9.718   6.918  0.00  0.00    +0.107 A 
ATOM     18  C   UNL     1       6.495  10.942   7.232  0.00  0.00    +0.078 A 
ATOM     19  S   UNL     1       5.387  11.458   8.537  0.00  0.00    -0.060 S 
ATOM     20  C   UNL     1       4.345  10.007   8.535  0.00  0.00    +0.156 A 
ATOM     21  N   UNL     1       4.897   9.283   7.580  0.00  0.00    -0.223 NA
ATOM     22  N   UNL     1       3.244   9.719   9.324  0.00  0.00    -0.338 N 
ATOM     23  H   UNL     1       2.946  10.357   9.992  0.00  0.00    +0.144 HD
ATOM     24  H   UNL     1       2.770   8.881   9.210  0.00  0.00    +0.144 HD
ENDBRANCH  15  17
BRANCH  16  25
ATOM     25  O   UNL     1       8.326   8.432   4.344  0.00  0.00    -0.396 OA
ATOM     26  C   UNL     1       9.529   8.978   3.800  0.00  0.00    +0.313 C 
ENDBRANCH  16  25
ENDBRANCH  12  15
ENDBRANCH   6  11
BRANCH   3  27
ATOM     27  C   UNL     1       0.175   4.638   4.106  0.00  0.00    +0.356 C 
ATOM     28  O   UNL     1       0.409   4.056   3.065  0.00  0.00    -0.243 OA
BRANCH  27  29
ATOM     29  O   UNL     1      -0.917   5.421   4.209  0.00  0.00    -0.423 OA
BRANCH  29  30
ATOM     30  C   UNL     1      -1.768   5.524   3.036  0.00  0.00    +0.473 C 
BRANCH  30  31
ATOM     31  O   UNL     1      -2.539   4.303   2.890  0.00  0.00    -0.427 OA
BRANCH  31  32
ATOM     32  C   UNL     1      -3.570   4.128   3.732  0.00  0.00    +0.315 C 
ATOM     33  O   UNL     1      -3.819   4.968   4.564  0.00  0.00    -0.250 OA
BRANCH  32  34
ATOM     34  C   UNL     1      -4.416   2.884   3.639  0.00  0.00    +0.059 C 
ATOM     35  C   UNL     1      -5.514   2.934   4.704  0.00  0.00    +0.022 C 
ATOM     36  C   UNL     1      -3.539   1.652   3.869  0.00  0.00    +0.022 C 
ATOM     37  C   UNL     1      -5.055   2.804   2.252  0.00  0.00    +0.022 C 
ENDBRANCH  32  34
ENDBRANCH  31  32
ENDBRANCH  30  31
ENDBRANCH  29  30
ENDBRANCH  27  29
ENDBRANCH   3  27
TORSDOF 10
