REMARK  Name = ZINC57641577
REMARK  14 active torsions:
REMARK  status: ('A' for Active; 'I' for Inactive)
REMARK    1  A    between atoms: C_1  and  C_2
REMARK    2  A    between atoms: C_2  and  C_3
REMARK    3  A    between atoms: C_3  and  C_5
REMARK    4  A    between atoms: C_3  and  N_18
REMARK    5  A    between atoms: N_9  and  C_10
REMARK    6  A    between atoms: C_10  and  C_11
REMARK    7  A    between atoms: C_11  and  C_12
REMARK    8  A    between atoms: N_18  and  C_19
REMARK    9  A    between atoms: N_18  and  C_27
REMARK   10  A    between atoms: C_19  and  C_20
REMARK   11  A    between atoms: C_23  and  C_26
REMARK   12  A    between atoms: C_27  and  C_28
REMARK   13  A    between atoms: C_32  and  C_41
REMARK   14  A    between atoms: C_33  and  C_40
REMARK                            x       y       z     vdW  Elec       q    Type
REMARK                         _______ _______ _______ _____ _____    ______ ____
ROOT
ATOM      1  N   UNL     1       1.421  -0.202  -2.045  0.00  0.00    -0.284 NA
ENDROOT
BRANCH   1   2
ATOM      2  C   UNL     1       0.224  -0.955  -2.445  0.00  0.00    +0.127 C 
BRANCH   2   3
ATOM      3  C   UNL     1       0.138  -1.001  -3.948  0.00  0.00    +0.168 A 
ATOM      4  N   UNL     1       1.095  -1.343  -4.777  0.00  0.00    -0.112 NA
ATOM      5  N   UNL     1       0.633  -1.257  -5.976  0.00  0.00    -0.023 NA
ATOM      6  N   UNL     1      -0.594  -0.870  -5.935  0.00  0.00    -0.044 NA
ATOM      7  N   UNL     1      -0.938  -0.707  -4.702  0.00  0.00    -0.227 N 
BRANCH   7   8
ATOM      8  C   UNL     1      -2.251  -0.278  -4.213  0.00  0.00    +0.152 C 
BRANCH   8   9
ATOM      9  C   UNL     1      -2.396   1.234  -4.401  0.00  0.00    +0.058 C 
BRANCH   9  10
ATOM     10  C   UNL     1      -3.797   1.653  -4.037  0.00  0.00    -0.046 A 
ATOM     11  C   UNL     1      -4.819   1.522  -4.958  0.00  0.00    +0.004 A 
ATOM     12  C   UNL     1      -6.104   1.907  -4.623  0.00  0.00    +0.000 A 
ATOM     13  C   UNL     1      -6.367   2.421  -3.368  0.00  0.00    +0.000 A 
ATOM     14  C   UNL     1      -5.345   2.551  -2.446  0.00  0.00    +0.000 A 
ATOM     15  C   UNL     1      -4.061   2.163  -2.779  0.00  0.00    +0.004 A 
ENDBRANCH   9  10
ENDBRANCH   8   9
ENDBRANCH   7   8
ENDBRANCH   2   3
BRANCH   2  17
ATOM     16  C   UNL     1       0.309  -2.336  -0.365  0.00  0.00    +0.006 C 
ATOM     17  C   UNL     1       0.310  -2.380  -1.894  0.00  0.00    +0.023 C 
ENDBRANCH   2  17
ENDBRANCH   1   2
BRANCH   1  18
ATOM     18  C   UNL     1       2.593  -0.626  -2.823  0.00  0.00    +0.120 C 
BRANCH  18  19
ATOM     19  C   UNL     1       3.848  -0.142  -2.143  0.00  0.00    -0.033 A 
ATOM     20  C   UNL     1       4.375   1.095  -2.464  0.00  0.00    +0.005 A 
ATOM     21  C   UNL     1       5.526   1.538  -1.840  0.00  0.00    +0.003 A 
ATOM     22  C   UNL     1       6.150   0.745  -0.896  0.00  0.00    -0.050 A 
ATOM     23  C   UNL     1       5.623  -0.492  -0.574  0.00  0.00    +0.003 A 
ATOM     24  C   UNL     1       4.469  -0.934  -1.195  0.00  0.00    +0.005 A 
ATOM     25  C   UNL     1       7.406   1.228  -0.217  0.00  0.00    +0.044 C 
ENDBRANCH  18  19
ENDBRANCH   1  18
BRANCH   1  26
ATOM     26  C   UNL     1       1.199   1.245  -2.173  0.00  0.00    +0.126 C 
BRANCH  26  27
ATOM     27  C   UNL     1       0.586   1.773  -0.902  0.00  0.00    +0.031 A 
ATOM     28  C   UNL     1       1.378   2.312   0.057  0.00  0.00    +0.020 A 
ATOM     29  C   UNL     1       0.751   2.817   1.280  0.00  0.00    -0.001 A 
ATOM     30  C   UNL     1       1.516   3.384   2.305  0.00  0.00    +0.013 A 
ATOM     31  C   UNL     1       0.900   3.846   3.433  0.00  0.00    -0.047 A 
ATOM     32  C   UNL     1      -0.478   3.758   3.572  0.00  0.00    -0.046 A 
ATOM     33  C   UNL     1      -1.252   3.203   2.576  0.00  0.00    +0.030 A 
ATOM     34  C   UNL     1      -0.647   2.726   1.417  0.00  0.00    +0.049 A 
ATOM     35  N   UNL     1      -1.396   2.167   0.405  0.00  0.00    -0.322 N 
ATOM     36  H   UNL     1      -2.360   2.105   0.501  0.00  0.00    +0.169 HD
ATOM     37  C   UNL     1      -0.812   1.710  -0.717  0.00  0.00    +0.254 A 
ATOM     38  O   UNL     1      -1.506   1.227  -1.594  0.00  0.00    -0.268 OA
ATOM     39  C   UNL     1      -1.136   4.274   4.826  0.00  0.00    +0.044 C 
ATOM     40  C   UNL     1       1.725   4.457   4.537  0.00  0.00    +0.044 C 
ENDBRANCH  26  27
ENDBRANCH   1  26
TORSDOF 10
