REMARK  Name = ZINC05902767
REMARK  7 active torsions:
REMARK  status: ('A' for Active; 'I' for Inactive)
REMARK    1  A    between atoms: C_1  and  C_2
REMARK    2  A    between atoms: C_2  and  C_3
REMARK    3  A    between atoms: C_2  and  C_4
REMARK    4  A    between atoms: C_2  and  C_5
REMARK    5  A    between atoms: C_12  and  N_16
REMARK    6  A    between atoms: C_13  and  C_14
REMARK    7  A    between atoms: C_17  and  C_19
REMARK                            x       y       z     vdW  Elec       q    Type
REMARK                         _______ _______ _______ _____ _____    ______ ____
ROOT
ATOM      1  C   UNL     1       5.486   4.202  -0.407  0.00  0.00    -0.000 C 
ATOM      2  C   UNL     1       5.863   2.970   0.420  0.00  0.00    +0.009 C 
ATOM      3  C   UNL     1       5.037   1.765  -0.036  0.00  0.00    +0.037 C 
ATOM      4  C   UNL     1       3.563   2.148  -0.020  0.00  0.00    -0.018 A 
ATOM      5  C   UNL     1       3.180   3.444  -0.010  0.00  0.00    -0.004 A 
ATOM      6  S   UNL     1       1.411   3.393  -0.001  0.00  0.00    -0.077 S 
ATOM      7  C   UNL     1       1.180   1.675  -0.000  0.00  0.00    +0.090 A 
ATOM      8  C   UNL     1       2.477   1.183  -0.015  0.00  0.00    +0.084 A 
ATOM      9  C   UNL     1       4.070   4.648  -0.013  0.00  0.00    +0.047 C 
ENDROOT
BRANCH   1  11
ATOM     10  C   UNL     1       7.889   4.880  -0.501  0.00  0.00    +0.011 C 
ATOM     11  C   UNL     1       6.477   5.333  -0.124  0.00  0.00    -0.035 C 
ATOM     12  C   UNL     1       6.098   6.563  -0.951  0.00  0.00    +0.011 C 
ATOM     13  C   UNL     1       6.436   5.686   1.364  0.00  0.00    +0.011 C 
ENDBRANCH   1  11
BRANCH   7  14
ATOM     14  N   UNL     1      -0.011   0.966   0.007  0.00  0.00    -0.275 N 
ATOM     15  C   UNL     1      -1.187   1.624   0.017  0.00  0.00    +0.251 C 
ATOM     16  O   UNL     1      -1.204   2.840   0.023  0.00  0.00    -0.270 OA
ATOM     17  H   UNL     1       0.002  -0.004   0.002  0.00  0.00    +0.156 HD
BRANCH  15  18
ATOM     18  C   UNL     1      -2.456   0.868   0.018  0.00  0.00    +0.072 A 
ATOM     19  C   UNL     1      -2.441  -0.528   0.011  0.00  0.00    +0.016 A 
ATOM     20  C   UNL     1      -3.629  -1.228   0.013  0.00  0.00    +0.001 A 
ATOM     21  C   UNL     1      -4.836  -0.550   0.023  0.00  0.00    +0.003 A 
ATOM     22  C   UNL     1      -4.862   0.832   0.031  0.00  0.00    +0.039 A 
ATOM     23  C   UNL     1      -3.678   1.547   0.034  0.00  0.00    +0.135 A 
ATOM     24  F   UNL     1      -3.703   2.898   0.047  0.00  0.00    -0.205 F 
ENDBRANCH  15  18
ENDBRANCH   7  14
BRANCH   8  25
ATOM     25  C   UNL     1       2.736  -0.226  -0.026  0.00  0.00    +0.102 C 
ATOM     26  N   UNL     1       2.941  -1.343  -0.034  0.00  0.00    -0.191 NA
ENDBRANCH   8  25
TORSDOF 4
