REMARK  Name = ZINC59416910
REMARK  9 active torsions:
REMARK  status: ('A' for Active; 'I' for Inactive)
REMARK    1  A    between atoms: C_1  and  C_2
REMARK    2  A    between atoms: C_2  and  C_3
REMARK    3  A    between atoms: C_3  and  C_4
REMARK    4  A    between atoms: C_4  and  N_5
REMARK    5  A    between atoms: N_5  and  C_6
REMARK    6  A    between atoms: C_6  and  C_7
REMARK    7  A    between atoms: N_9  and  C_10
REMARK    8  A    between atoms: C_13  and  O_18
REMARK    9  A    between atoms: O_18  and  C_19
REMARK                            x       y       z     vdW  Elec       q    Type
REMARK                         _______ _______ _______ _____ _____    ______ ____
ROOT
ATOM      1  C   UNL     1       1.061  -5.227  -3.941  0.00  0.00    +0.200 C 
ATOM      2  O   UNL     1       0.478  -5.040  -4.987  0.00  0.00    -0.278 OA
ATOM      3  N   UNL     1       2.291  -5.778  -3.943  0.00  0.00    -0.285 N 
ATOM      4  H   UNL     1       2.787  -5.861  -3.114  0.00  0.00    +0.155 HD
ENDROOT
BRANCH   3   5
ATOM      5  C   UNL     1       2.853  -6.232  -5.145  0.00  0.00    +0.063 A 
ATOM      6  C   UNL     1       3.637  -5.379  -5.911  0.00  0.00    +0.044 A 
ATOM      7  C   UNL     1       4.190  -5.827  -7.096  0.00  0.00    +0.064 A 
ATOM      8  C   UNL     1       3.963  -7.128  -7.520  0.00  0.00    +0.136 A 
ATOM      9  C   UNL     1       3.179  -7.981  -6.755  0.00  0.00    +0.075 A 
ATOM     10  C   UNL     1       2.630  -7.536  -5.567  0.00  0.00    +0.058 A 
ATOM     11 BR   UNL     1       1.570  -8.701  -4.520  0.00  0.00    -0.047 Br
ATOM     12 BR   UNL     1       2.870  -9.754  -7.335  0.00  0.00    -0.045 Br
ATOM     13 BR   UNL     1       3.946  -3.605  -5.335  0.00  0.00    -0.048 Br
BRANCH   8  14
ATOM     14  O   UNL     1       4.508  -7.568  -8.685  0.00  0.00    -0.494 OA
ATOM     15  C   UNL     1       5.303  -6.636  -9.422  0.00  0.00    +0.277 C 
ENDBRANCH   8  14
ENDBRANCH   3   5
BRANCH   1  16
ATOM     16  C   UNL     1       0.411  -4.842  -2.637  0.00  0.00    +0.015 C 
BRANCH  16  17
ATOM     17  N   UNL     1      -0.915  -4.268  -2.901  0.00  0.00    +0.385 N 
ATOM     18  H   UNL     1      -1.489  -4.949  -3.375  0.00  0.00    -0.085 HD
ATOM     19  H   UNL     1      -0.816  -3.448  -3.482  0.00  0.00    -0.085 HD
BRANCH  17  20
ATOM     20  C   UNL     1      -1.549  -3.893  -1.630  0.00  0.00    -0.082 C 
BRANCH  20  21
ATOM     21  C   UNL     1      -2.930  -3.294  -1.906  0.00  0.00    -0.019 C 
BRANCH  21  23
ATOM     22  C   UNL     1      -4.971  -2.305  -0.858  0.00  0.00    +0.004 C 
ATOM     23  C   UNL     1      -3.590  -2.904  -0.582  0.00  0.00    -0.005 C 
ENDBRANCH  21  23
ENDBRANCH  20  21
ENDBRANCH  17  20
ENDBRANCH  16  17
ENDBRANCH   1  16
TORSDOF 7
