REMARK  Name = ZINC61594963
REMARK  8 active torsions:
REMARK  status: ('A' for Active; 'I' for Inactive)
REMARK    1  A    between atoms: C_1  and  C_2
REMARK    2  A    between atoms: C_2  and  C_3
REMARK    3  A    between atoms: C_3  and  N_4
REMARK    4  A    between atoms: C_10  and  S_11
REMARK    5  A    between atoms: S_11  and  C_12
REMARK    6  A    between atoms: C_12  and  C_14
REMARK    7  A    between atoms: C_12  and  C_16
REMARK    8  A    between atoms: C_14  and  N_15
REMARK                            x       y       z     vdW  Elec       q    Type
REMARK                         _______ _______ _______ _____ _____    ______ ____
ROOT
ATOM      1  C   UNL     1       4.098  -3.693  -0.552  0.00  0.00    +0.073 C 
ENDROOT
BRANCH   1   2
ATOM      2  C   UNL     1       5.506  -3.414  -1.012  0.00  0.00    +0.002 A 
ATOM      3  C   UNL     1       6.679  -3.775  -0.438  0.00  0.00    +0.027 A 
ATOM      4  C   UNL     1       7.865  -3.405  -1.045  0.00  0.00    +0.025 A 
ATOM      5  C   UNL     1       7.819  -2.692  -2.197  0.00  0.00    +0.060 A 
ATOM      6  S   UNL     1       6.061  -2.530  -2.461  0.00  0.00    -0.099 S 
ATOM      7 BR   UNL     1       9.526  -3.885  -0.279  0.00  0.00    -0.050 Br
ENDBRANCH   1   2
BRANCH   1   8
ATOM      8  S   UNL     1       3.231  -2.124  -0.275  0.00  0.00    -0.079 S 
BRANCH   8  15
ATOM      9  N   UNL     1       0.752  -1.745   0.965  0.00  0.00    -0.271 N 
ATOM     10  C   UNL     1      -0.260  -2.482   1.466  0.00  0.00    +0.345 A 
ATOM     11  O   UNL     1      -1.282  -2.052   1.970  0.00  0.00    -0.245 OA
ATOM     12  N   UNL     1       0.065  -3.781   1.308  0.00  0.00    -0.226 N 
ATOM     13  H   UNL     1      -0.471  -4.544   1.575  0.00  0.00    +0.194 HD
ATOM     14  N   UNL     1       1.322  -3.827   0.688  0.00  0.00    -0.145 NA
ATOM     15  C   UNL     1       1.715  -2.603   0.485  0.00  0.00    +0.193 A 
BRANCH   9  16
ATOM     16  C   UNL     1       0.813  -0.282   0.932  0.00  0.00    +0.129 C 
BRANCH  16  18
ATOM     17  C   UNL     1       0.252   1.753  -0.404  0.00  0.00    +0.005 C 
ATOM     18  C   UNL     1       0.189   0.225  -0.370  0.00  0.00    +0.018 C 
ENDBRANCH  16  18
ENDBRANCH   9  16
ENDBRANCH   8  15
ENDBRANCH   1   8
BRANCH   1  19
ATOM     19  C   UNL     1       3.362  -4.501  -1.622  0.00  0.00    -0.066 C 
BRANCH  19  20
ATOM     20  N   UNL     1       3.985  -5.826  -1.750  0.00  0.00    +0.379 N 
ATOM     21  H   UNL     1       3.448  -6.388  -2.394  0.00  0.00    -0.090 HD
ATOM     22  H   UNL     1       4.926  -5.723  -2.098  0.00  0.00    -0.090 HD
ATOM     23  H   UNL     1       4.007  -6.276  -0.848  0.00  0.00    -0.090 HD
ENDBRANCH  19  20
ENDBRANCH   1  19
TORSDOF 7
