REMARK  Name = ZINC12702802
REMARK  11 active torsions:
REMARK  status: ('A' for Active; 'I' for Inactive)
REMARK    1  A    between atoms: C_1  and  C_2
REMARK    2  A    between atoms: C_5  and  C_8
REMARK    3  A    between atoms: N_11  and  C_13
REMARK    4  A    between atoms: C_13  and  C_14
REMARK    5  A    between atoms: N_16  and  C_17
REMARK    6  A    between atoms: N_16  and  C_23
REMARK    7  A    between atoms: C_17  and  C_18
REMARK    8  A    between atoms: C_23  and  C_25
REMARK    9  A    between atoms: C_23  and  C_32
REMARK   10  A    between atoms: C_28  and  O_31
REMARK   11  A    between atoms: N_34  and  C_35
REMARK                            x       y       z     vdW  Elec       q    Type
REMARK                         _______ _______ _______ _____ _____    ______ ____
ROOT
ATOM      1  C   UNL     1      -1.923  -3.328   2.180  0.00  0.00    +0.240 C 
ATOM      2  O   UNL     1      -0.859  -3.501   2.735  0.00  0.00    -0.273 OA
ATOM      3  N   UNL     1      -2.019  -2.446   1.165  0.00  0.00    -0.277 N 
ENDROOT
BRANCH   1   4
ATOM      4  C   UNL     1      -3.139  -4.098   2.625  0.00  0.00    +0.264 C 
BRANCH   4   8
ATOM      5  C   UNL     1      -2.138  -6.669   4.825  0.00  0.00    +0.205 A 
ATOM      6  N   UNL     1      -2.440  -5.684   5.683  0.00  0.00    -0.108 NA
ATOM      7  N   UNL     1      -2.826  -4.672   4.983  0.00  0.00    -0.045 NA
ATOM      8  N   UNL     1      -2.777  -4.984   3.735  0.00  0.00    -0.154 N 
ATOM      9  N   UNL     1      -2.365  -6.199   3.615  0.00  0.00    -0.130 NA
BRANCH   5  14
ATOM     10  C   UNL     1      -0.241 -11.940   6.168  0.00  0.00    +0.044 C 
ATOM     11  C   UNL     1      -0.737 -10.561   5.817  0.00  0.00    -0.050 A 
ATOM     12  C   UNL     1      -1.006  -9.648   6.821  0.00  0.00    +0.004 A 
ATOM     13  C   UNL     1      -1.461  -8.384   6.505  0.00  0.00    +0.012 A 
ATOM     14  C   UNL     1      -1.649  -8.028   5.171  0.00  0.00    +0.023 A 
ATOM     15  C   UNL     1      -1.381  -8.952   4.164  0.00  0.00    +0.012 A 
ATOM     16  C   UNL     1      -0.922 -10.212   4.491  0.00  0.00    +0.004 A 
ENDBRANCH   5  14
ENDBRANCH   4   8
ENDBRANCH   1   4
BRANCH   3  17
ATOM     17  C   UNL     1      -3.304  -2.237   0.495  0.00  0.00    +0.183 C 
BRANCH  17  18
ATOM     18  C   UNL     1      -3.529  -3.332  -0.515  0.00  0.00    +0.122 A 
ATOM     19  C   UNL     1      -4.261  -4.444  -0.320  0.00  0.00    +0.046 A 
ATOM     20  C   UNL     1      -4.201  -5.189  -1.520  0.00  0.00    +0.041 A 
ATOM     21  C   UNL     1      -3.436  -4.488  -2.376  0.00  0.00    +0.195 A 
ATOM     22  O   UNL     1      -3.036  -3.362  -1.764  0.00  0.00    -0.466 OA
ENDBRANCH  17  18
ENDBRANCH   3  17
BRANCH   3  23
ATOM     23  C   UNL     1      -0.836  -1.697   0.733  0.00  0.00    +0.193 C 
BRANCH  23  24
ATOM     24  C   UNL     1       0.280  -2.658   0.418  0.00  0.00    -0.018 A 
ATOM     25  C   UNL     1       0.015  -3.816  -0.290  0.00  0.00    +0.009 A 
ATOM     26  C   UNL     1       1.038  -4.696  -0.585  0.00  0.00    +0.046 A 
ATOM     27  C   UNL     1       2.330  -4.424  -0.160  0.00  0.00    +0.117 A 
ATOM     28  C   UNL     1       2.593  -3.264   0.555  0.00  0.00    +0.046 A 
ATOM     29  C   UNL     1       1.567  -2.384   0.842  0.00  0.00    +0.009 A 
BRANCH  27  30
ATOM     30  O   UNL     1       3.337  -5.292  -0.444  0.00  0.00    -0.507 OA
ATOM     31  H   UNL     1       3.470  -5.973   0.230  0.00  0.00    +0.292 HD
ENDBRANCH  27  30
ENDBRANCH  23  24
BRANCH  23  32
ATOM     32  C   UNL     1      -1.172  -0.896  -0.499  0.00  0.00    +0.238 C 
ATOM     33  O   UNL     1      -1.726  -1.430  -1.437  0.00  0.00    -0.273 OA
ATOM     34  N   UNL     1      -0.858   0.413  -0.558  0.00  0.00    -0.311 N 
ATOM     35  H   UNL     1      -0.416   0.840   0.192  0.00  0.00    +0.149 HD
BRANCH  34  36
ATOM     36  C   UNL     1      -1.185   1.192  -1.756  0.00  0.00    +0.073 C 
ATOM     37  C   UNL     1      -0.035   1.093  -2.780  0.00  0.00    +0.022 C 
ATOM     38  C   UNL     1       0.029   2.503  -3.416  0.00  0.00    +0.002 C 
ATOM     39  C   UNL     1      -0.255   3.435  -2.212  0.00  0.00    +0.002 C 
ATOM     40  C   UNL     1      -1.324   2.681  -1.394  0.00  0.00    +0.022 C 
ENDBRANCH  34  36
ENDBRANCH  23  32
ENDBRANCH   3  23
TORSDOF 10
