REMARK  Name = ZINC38865730
REMARK  4 active torsions:
REMARK  status: ('A' for Active; 'I' for Inactive)
REMARK    1  A    between atoms: C_1  and  C_2
REMARK    2  A    between atoms: C_4  and  N_17
REMARK    3  A    between atoms: C_9  and  C_12
REMARK    4  A    between atoms: C_18  and  C_20
REMARK                            x       y       z     vdW  Elec       q    Type
REMARK                         _______ _______ _______ _____ _____    ______ ____
ROOT
ATOM      1  C   UNL     1      -0.018   1.503   0.010  0.00  0.00    +0.067 C 
ATOM      2  C   UNL     1       0.002  -0.004   0.002  0.00  0.00    +0.062 A 
ATOM      3  C   UNL     1       0.008  -0.815  -1.137  0.00  0.00    +0.068 A 
ATOM      4  C   UNL     1       0.027  -2.112  -0.727  0.00  0.00    +0.131 A 
ATOM      5  N   UNL     1       0.034  -2.109   0.635  0.00  0.00    -0.194 N 
ATOM      6  N   UNL     1       0.023  -0.774   1.060  0.00  0.00    -0.168 NA
ATOM      7  C   UNL     1       0.052  -3.232   1.459  0.00  0.00    +0.196 A 
ATOM      8  N   UNL     1       0.053  -3.301   2.776  0.00  0.00    -0.218 NA
ATOM      9  C   UNL     1       0.072  -4.467   3.405  0.00  0.00    +0.115 A 
ATOM     10  C   UNL     1       0.090  -5.624   2.672  0.00  0.00    +0.080 A 
ATOM     11  S   UNL     1       0.072  -4.963   1.010  0.00  0.00    -0.056 S 
ENDROOT
BRANCH   9  12
ATOM     12  C   UNL     1       0.073  -4.519   4.882  0.00  0.00    +0.153 A 
ATOM     13  C   UNL     1       0.051  -3.447   5.718  0.00  0.00    +0.051 A 
ATOM     14  C   UNL     1       0.062  -3.957   7.033  0.00  0.00    +0.042 A 
ATOM     15  C   UNL     1       0.090  -5.300   6.935  0.00  0.00    +0.196 A 
ATOM     16  O   UNL     1       0.091  -5.637   5.634  0.00  0.00    -0.461 OA
ENDBRANCH   9  12
BRANCH   4  17
ATOM     17  N   UNL     1       0.038  -3.237  -1.550  0.00  0.00    -0.270 N 
ATOM     18  C   UNL     1       0.030  -3.093  -2.889  0.00  0.00    +0.224 C 
ATOM     19  O   UNL     1       0.013  -1.983  -3.380  0.00  0.00    -0.275 OA
ATOM     20  H   UNL     1       0.052  -4.125  -1.157  0.00  0.00    +0.156 HD
BRANCH  18  21
ATOM     21  C   UNL     1       0.042  -4.309  -3.779  0.00  0.00    +0.048 C 
ATOM     22  C   UNL     1      -1.195  -5.163  -3.491  0.00  0.00    +0.019 C 
ATOM     23  C   UNL     1      -1.183  -6.398  -4.394  0.00  0.00    -0.009 C 
ATOM     24  C   UNL     1      -1.196  -5.959  -5.860  0.00  0.00    +0.007 C 
ATOM     25  C   UNL     1       0.041  -5.105  -6.147  0.00  0.00    -0.009 C 
ATOM     26  C   UNL     1       0.029  -3.870  -5.244  0.00  0.00    +0.019 C 
ATOM     27  C   UNL     1       1.302  -5.926  -5.872  0.00  0.00    +0.007 C 
ATOM     28  C   UNL     1       1.315  -6.365  -4.406  0.00  0.00    -0.009 C 
ATOM     29  C   UNL     1       0.078  -7.219  -4.119  0.00  0.00    +0.007 C 
ATOM     30  C   UNL     1       1.303  -5.130  -3.503  0.00  0.00    +0.019 C 
ENDBRANCH  18  21
ENDBRANCH   4  17
TORSDOF 3
