REMARK  Name = ZINC06149274
REMARK  13 active torsions:
REMARK  status: ('A' for Active; 'I' for Inactive)
REMARK    1  A    between atoms: C_1  and  C_2
REMARK    2  A    between atoms: C_2  and  C_3
REMARK    3  A    between atoms: C_3  and  C_4
REMARK    4  A    between atoms: C_3  and  C_5
REMARK    5  A    between atoms: C_3  and  N_6
REMARK    6  A    between atoms: C_7  and  C_11
REMARK    7  A    between atoms: C_11  and  C_13
REMARK    8  A    between atoms: C_11  and  N_69
REMARK    9  A    between atoms: C_18  and  C_25
REMARK   10  A    between atoms: C_26  and  C_27
REMARK   11  A    between atoms: C_26  and  N_69
REMARK   12  A    between atoms: C_33  and  C_34
REMARK   13  A    between atoms: C_33  and  N_69
REMARK                            x       y       z     vdW  Elec       q    Type
REMARK                         _______ _______ _______ _____ _____    ______ ____
ROOT
ATOM      1  C   UNL     1      -4.267   0.713   0.612  0.00  0.00    +0.040 C 
ENDROOT
BRANCH   1   2
ATOM      2  C   UNL     1      -3.049   1.554   0.894  0.00  0.00    +0.011 A 
ATOM      3  C   UNL     1      -1.842   0.959   1.063  0.00  0.00    +0.017 A 
ATOM      4  C   UNL     1      -0.677   1.804   1.332  0.00  0.00    -0.001 A 
ATOM      5  C   UNL     1       0.593   1.248   1.520  0.00  0.00    +0.010 A 
ATOM      6  C   UNL     1       1.659   2.064   1.772  0.00  0.00    +0.004 A 
ATOM      7  C   UNL     1       1.492   3.440   1.850  0.00  0.00    -0.048 A 
ATOM      8  C   UNL     1       0.250   4.009   1.673  0.00  0.00    +0.029 A 
ATOM      9  C   UNL     1      -0.850   3.199   1.414  0.00  0.00    +0.049 A 
ATOM     10  N   UNL     1      -2.104   3.741   1.233  0.00  0.00    -0.322 N 
ATOM     11  H   UNL     1      -2.225   4.733   1.288  0.00  0.00    +0.169 HD
ATOM     12  C   UNL     1      -3.168   2.958   0.982  0.00  0.00    +0.251 A 
ATOM     13  O   UNL     1      -4.262   3.472   0.826  0.00  0.00    -0.268 OA
ATOM     14  C   UNL     1       2.683   4.320   2.131  0.00  0.00    +0.044 C 
ENDBRANCH   1   2
BRANCH   1  16
ATOM     15  N   UNL     1      -4.628   0.279  -1.875  0.00  0.00    -0.225 N 
ATOM     16  C   UNL     1      -4.785   1.028  -0.768  0.00  0.00    +0.143 A 
ATOM     17  N   UNL     1      -5.482   2.080  -1.121  0.00  0.00    -0.115 NA
ATOM     18  N   UNL     1      -5.732   1.987  -2.382  0.00  0.00    -0.023 NA
ATOM     19  N   UNL     1      -5.221   0.898  -2.840  0.00  0.00    -0.043 NA
BRANCH  15  20
ATOM     20  C   UNL     1      -3.918  -0.999  -1.968  0.00  0.00    +0.061 C 
ATOM     21  C   UNL     1      -2.474  -0.816  -1.498  0.00  0.00    +0.036 C 
ATOM     22  C   UNL     1      -4.615  -2.035  -1.083  0.00  0.00    +0.036 C 
BRANCH  20  24
ATOM     23  C   UNL     1      -3.183  -2.817  -3.517  0.00  0.00    +0.006 C 
ATOM     24  C   UNL     1      -3.925  -1.482  -3.420  0.00  0.00    +0.026 C 
ENDBRANCH  20  24
ENDBRANCH  15  20
ENDBRANCH   1  16
BRANCH   1  25
ATOM     25  N   UNL     1      -5.319   1.035   1.598  0.00  0.00    +0.397 N 
ATOM     26  H   UNL     1      -5.742   1.938   1.353  0.00  0.00    -0.079 HD
BRANCH  25  27
ATOM     27  C   UNL     1      -6.368  -0.006   1.577  0.00  0.00    -0.041 C 
BRANCH  27  28
ATOM     28  C   UNL     1      -7.387   0.360   0.530  0.00  0.00    -0.064 A 
ATOM     29  C   UNL     1      -8.381   1.275   0.822  0.00  0.00    +0.002 A 
ATOM     30  C   UNL     1      -9.313   1.615  -0.140  0.00  0.00    +0.000 A 
ATOM     31  C   UNL     1      -9.258   1.031  -1.392  0.00  0.00    +0.000 A 
ATOM     32  C   UNL     1      -8.268   0.111  -1.683  0.00  0.00    +0.000 A 
ATOM     33  C   UNL     1      -7.333  -0.224  -0.722  0.00  0.00    +0.002 A 
ENDBRANCH  27  28
ENDBRANCH  25  27
BRANCH  25  34
ATOM     34  C   UNL     1      -4.731   1.133   2.951  0.00  0.00    -0.001 C 
BRANCH  34  35
ATOM     35  C   UNL     1      -5.756   1.724   3.884  0.00  0.00    +0.089 A 
ATOM     36  C   UNL     1      -6.570   1.030   4.700  0.00  0.00    +0.042 A 
ATOM     37  C   UNL     1      -7.362   1.976   5.390  0.00  0.00    +0.041 A 
ATOM     38  C   UNL     1      -6.984   3.192   4.955  0.00  0.00    +0.195 A 
ATOM     39  O   UNL     1      -6.007   3.033   4.048  0.00  0.00    -0.470 OA
ENDBRANCH  34  35
ENDBRANCH  25  34
ENDBRANCH   1  25
TORSDOF 9
