REMARK  Name = ZINC56206904
REMARK  13 active torsions:
REMARK  status: ('A' for Active; 'I' for Inactive)
REMARK    1  A    between atoms: C_1  and  C_2
REMARK    2  A    between atoms: C_2  and  C_3
REMARK    3  A    between atoms: C_3  and  C_5
REMARK    4  A    between atoms: C_3  and  C_6
REMARK    5  A    between atoms: C_11  and  N_12
REMARK    6  A    between atoms: C_13  and  C_15
REMARK    7  A    between atoms: C_15  and  C_17
REMARK    8  A    between atoms: C_15  and  N_18
REMARK    9  A    between atoms: N_18  and  C_19
REMARK   10  A    between atoms: C_22  and  O_26
REMARK   11  A    between atoms: C_24  and  C_25
REMARK   12  A    between atoms: O_26  and  C_27
REMARK   13  A    between atoms: C_27  and  C_28
REMARK                            x       y       z     vdW  Elec       q    Type
REMARK                         _______ _______ _______ _____ _____    ______ ____
ROOT
ATOM      1  C   UNL     1       5.606  -1.353  -1.765  0.00  0.00    +0.154 C 
ATOM      2  C   UNL     1       5.763  -0.612  -0.436  0.00  0.00    +0.038 C 
ENDROOT
BRANCH   1   4
ATOM      3  N   UNL     1       3.176  -1.713  -1.481  0.00  0.00    -0.284 N 
ATOM      4  C   UNL     1       4.394  -2.245  -1.703  0.00  0.00    +0.237 C 
ATOM      5  O   UNL     1       4.514  -3.443  -1.853  0.00  0.00    -0.273 OA
ATOM      6  H   UNL     1       3.071  -0.751  -1.419  0.00  0.00    +0.155 HD
BRANCH   3  12
ATOM      7  C   UNL     1       0.961  -2.123  -0.611  0.00  0.00    -0.023 A 
ATOM      8  C   UNL     1      -0.140  -2.948  -0.479  0.00  0.00    +0.006 A 
ATOM      9  C   UNL     1      -0.142  -4.199  -1.068  0.00  0.00    +0.000 A 
ATOM     10  C   UNL     1       0.956  -4.628  -1.791  0.00  0.00    +0.002 A 
ATOM     11  C   UNL     1       2.059  -3.808  -1.927  0.00  0.00    +0.023 A 
ATOM     12  C   UNL     1       2.062  -2.549  -1.341  0.00  0.00    +0.037 A 
BRANCH   7  13
ATOM     13  C   UNL     1       0.962  -0.759   0.031  0.00  0.00    +0.017 C 
ATOM     14  C   UNL     1      -0.116   0.111  -0.617  0.00  0.00    +0.012 C 
BRANCH  13  16
ATOM     15  C   UNL     1       0.798   0.468   2.201  0.00  0.00    +0.004 C 
ATOM     16  C   UNL     1       0.674  -0.900   1.527  0.00  0.00    +0.004 C 
ENDBRANCH  13  16
ENDBRANCH   7  13
ENDBRANCH   3  12
ENDBRANCH   1   4
BRANCH   1  17
ATOM     17  N   UNL     1       6.799  -2.166  -2.015  0.00  0.00    -0.333 N 
ATOM     18  H   UNL     1       6.810  -3.101  -1.761  0.00  0.00    +0.147 HD
BRANCH  17  19
ATOM     19  C   UNL     1       7.923  -1.592  -2.621  0.00  0.00    +0.031 A 
ATOM     20  C   UNL     1       7.910  -0.250  -2.980  0.00  0.00    +0.027 A 
ATOM     21  C   UNL     1       9.019   0.315  -3.578  0.00  0.00    +0.047 A 
ATOM     22  C   UNL     1      10.146  -0.457  -3.819  0.00  0.00    +0.122 A 
ATOM     23  C   UNL     1      10.160  -1.796  -3.461  0.00  0.00    +0.050 A 
ATOM     24  C   UNL     1       9.053  -2.362  -2.858  0.00  0.00    -0.026 A 
ATOM     25  C   UNL     1       9.071  -3.816  -2.463  0.00  0.00    +0.046 C 
BRANCH  22  26
ATOM     26  O   UNL     1      11.238   0.101  -4.408  0.00  0.00    -0.483 OA
BRANCH  26  27
ATOM     27  C   UNL     1      11.154   1.486  -4.751  0.00  0.00    +0.324 C 
BRANCH  27  28
ATOM     28  C   UNL     1      12.447   1.925  -5.388  0.00  0.00    +0.248 C 
ATOM     29  O   UNL     1      13.352   1.130  -5.534  0.00  0.00    -0.272 OA
ATOM     30  N   UNL     1      12.599   3.200  -5.795  0.00  0.00    -0.327 N 
ATOM     31  H   UNL     1      11.875   3.836  -5.678  0.00  0.00    +0.145 HD
ATOM     32  H   UNL     1      13.431   3.483  -6.205  0.00  0.00    +0.145 HD
ENDBRANCH  27  28
ENDBRANCH  26  27
ENDBRANCH  22  26
ENDBRANCH  17  19
ENDBRANCH   1  17
TORSDOF 9
