REMARK  Name = ZINC63376122
REMARK  8 active torsions:
REMARK  status: ('A' for Active; 'I' for Inactive)
REMARK    1  A    between atoms: C_1  and  C_2
REMARK    2  A    between atoms: C_13  and  C_16
REMARK    3  A    between atoms: C_16  and  C_17
REMARK    4  A    between atoms: N_28  and  C_31
REMARK    5  A    between atoms: C_31  and  C_32
REMARK    6  A    between atoms: C_32  and  C_33
REMARK    7  A    between atoms: C_33  and  O_34
REMARK    8  A    between atoms: O_34  and  C_35
REMARK                            x       y       z     vdW  Elec       q    Type
REMARK                         _______ _______ _______ _____ _____    ______ ____
ROOT
ATOM      1  C   UNL     1      -0.018   1.503   0.010  0.00  0.00    +0.044 C 
ATOM      2  C   UNL     1       0.002  -0.004   0.002  0.00  0.00    -0.050 A 
ATOM      3  C   UNL     1       0.006  -0.691  -1.198  0.00  0.00    +0.005 A 
ATOM      4  C   UNL     1       0.024  -2.070  -1.212  0.00  0.00    +0.024 A 
ATOM      5  C   UNL     1       0.040  -2.783  -0.015  0.00  0.00    +0.039 A 
ATOM      6  C   UNL     1       0.036  -2.081   1.186  0.00  0.00    +0.004 A 
ATOM      7  C   UNL     1       0.023  -0.704   1.195  0.00  0.00    +0.011 A 
ATOM      8  C   UNL     1       0.057  -3.122   2.269  0.00  0.00    +0.136 C 
ATOM      9  C   UNL     1      -1.165  -3.000   3.188  0.00  0.00    +0.122 C 
ATOM     10  C   UNL     1      -0.630  -3.365   4.601  0.00  0.00    +0.107 C 
ATOM     11  C   UNL     1       0.859  -3.705   4.386  0.00  0.00    +0.072 C 
ATOM     12  N   UNL     1       1.236  -2.971   3.141  0.00  0.00    -0.295 NA
ATOM     13  C   UNL     1      -0.757  -2.069   5.368  0.00  0.00    +0.227 C 
ATOM     14  O   UNL     1      -0.434  -1.905   6.525  0.00  0.00    -0.275 OA
ATOM     15  N   UNL     1      -1.281  -1.130   4.571  0.00  0.00    -0.241 N 
ATOM     16  C   UNL     1      -1.562  -1.546   3.315  0.00  0.00    +0.228 C 
ATOM     17  O   UNL     1      -2.047  -0.873   2.431  0.00  0.00    -0.275 OA
ATOM     18  C   UNL     1       0.072  -4.440   1.545  0.00  0.00    +0.243 C 
ATOM     19  O   UNL     1       0.091  -5.543   2.049  0.00  0.00    -0.273 OA
ATOM     20  N   UNL     1       0.060  -4.157   0.228  0.00  0.00    -0.283 N 
ATOM     21  H   UNL     1       2.054  -3.383   2.717  0.00  0.00    +0.124 HD
ATOM     22  H   UNL     1       0.064  -4.831  -0.470  0.00  0.00    +0.155 HD
ENDROOT
BRANCH  11  23
ATOM     23  C   UNL     1       1.696  -3.198   5.562  0.00  0.00    +0.052 C 
BRANCH  23  24
ATOM     24  C   UNL     1       3.125  -3.646   5.392  0.00  0.00    -0.040 C 
ATOM     25  C   UNL     1       4.139  -2.940   4.840  0.00  0.00    -0.001 A 
ATOM     26  C   UNL     1       4.211  -1.595   4.256  0.00  0.00    +0.010 A 
ATOM     27  C   UNL     1       5.394  -1.153   3.772  0.00  0.00    +0.001 A 
ATOM     28  C   UNL     1       6.550  -1.945   3.815  0.00  0.00    +0.002 A 
ATOM     29  C   UNL     1       6.562  -3.190   4.337  0.00  0.00    +0.026 A 
ATOM     30  C   UNL     1       5.373  -3.756   4.874  0.00  0.00    +0.043 A 
ATOM     31  N   UNL     1       5.133  -4.921   5.425  0.00  0.00    -0.380 N 
ATOM     32  C   UNL     1       3.717  -4.973   5.809  0.00  0.00    +0.144 C 
ATOM     33  H   UNL     1       5.782  -5.628   5.560  0.00  0.00    +0.160 HD
ENDBRANCH  23  24
ENDBRANCH  11  23
BRANCH  15  34
ATOM     34  C   UNL     1      -1.536   0.240   5.023  0.00  0.00    +0.118 C 
BRANCH  34  35
ATOM     35  C   UNL     1      -0.300   1.102   4.762  0.00  0.00    +0.047 C 
BRANCH  35  36
ATOM     36  C   UNL     1      -0.567   2.533   5.234  0.00  0.00    +0.161 C 
BRANCH  36  37
ATOM     37  O   UNL     1       0.588   3.338   4.991  0.00  0.00    -0.383 OA
ATOM     38  C   UNL     1       0.443   4.700   5.397  0.00  0.00    +0.193 C 
ENDBRANCH  36  37
ENDBRANCH  35  36
ENDBRANCH  34  35
ENDBRANCH  15  34
TORSDOF 6
