REMARK  Name = ZINC23223780
REMARK  11 active torsions:
REMARK  status: ('A' for Active; 'I' for Inactive)
REMARK    1  A    between atoms: C_1  and  C_2
REMARK    2  A    between atoms: C_2  and  C_3
REMARK    3  A    between atoms: C_3  and  N_4
REMARK    4  A    between atoms: C_8  and  S_27
REMARK    5  A    between atoms: C_12  and  S_13
REMARK    6  A    between atoms: S_13  and  C_14
REMARK    7  A    between atoms: C_14  and  C_16
REMARK    8  A    between atoms: C_14  and  C_17
REMARK    9  A    between atoms: N_19  and  C_20
REMARK   10  A    between atoms: N_19  and  C_21
REMARK   11  A    between atoms: S_27  and  N_30
REMARK                            x       y       z     vdW  Elec       q    Type
REMARK                         _______ _______ _______ _____ _____    ______ ____
ROOT
ATOM      1  N   UNL     1      -1.413  -1.998   0.005  0.00  0.00    -0.319 N 
ATOM      2  C   UNL     1      -1.407  -2.814  -1.115  0.00  0.00    +0.070 A 
ATOM      3  C   UNL     1      -1.417  -2.572  -2.480  0.00  0.00    +0.030 A 
ATOM      4  C   UNL     1      -1.406  -3.631  -3.365  0.00  0.00    +0.030 A 
ATOM      5  C   UNL     1      -1.387  -4.937  -2.899  0.00  0.00    +0.107 A 
ATOM      6  C   UNL     1      -1.378  -5.195  -1.546  0.00  0.00    +0.058 A 
ATOM      7  C   UNL     1      -1.387  -4.135  -0.637  0.00  0.00    +0.092 A 
ATOM      8  N   UNL     1      -1.382  -4.069   0.720  0.00  0.00    -0.222 NA
ATOM      9  C   UNL     1      -1.391  -2.815   1.100  0.00  0.00    +0.171 A 
ENDROOT
BRANCH   5  10
ATOM     10  S   UNL     1      -1.375  -6.275  -4.045  0.00  0.00    +0.056 S 
ATOM     11  O   UNL     1      -1.907  -7.401  -3.361  0.00  0.00    -0.153 OA
ATOM     12  O   UNL     1      -1.938  -5.780  -5.252  0.00  0.00    -0.153 OA
BRANCH  10  13
ATOM     13  N   UNL     1       0.211  -6.626  -4.371  0.00  0.00    -0.204 NA
ATOM     14  H   UNL     1       0.918  -6.116  -3.945  0.00  0.00    +0.144 HD
ATOM     15  H   UNL     1       0.432  -7.341  -4.987  0.00  0.00    +0.144 HD
ENDBRANCH  10  13
ENDBRANCH   5  10
BRANCH   1  16
ATOM     16  C   UNL     1      -1.433  -0.534   0.013  0.00  0.00    +0.124 C 
BRANCH  16  18
ATOM     17  C   UNL     1      -0.019   1.526   0.010  0.00  0.00    +0.005 C 
ATOM     18  C   UNL     1       0.002  -0.004   0.002  0.00  0.00    +0.018 C 
ENDBRANCH  16  18
ENDBRANCH   1  16
BRANCH   9  19
ATOM     19  S   UNL     1      -1.382  -2.264   2.774  0.00  0.00    -0.075 S 
BRANCH  19  20
ATOM     20  C   UNL     1      -1.352  -3.798   3.741  0.00  0.00    +0.137 C 
ATOM     21  C   UNL     1      -2.651  -4.572   3.510  0.00  0.00    +0.029 C 
BRANCH  20  22
ATOM     22  C   UNL     1      -1.218  -3.466   5.205  0.00  0.00    +0.229 C 
ATOM     23  O   UNL     1      -1.593  -2.390   5.620  0.00  0.00    -0.274 OA
ATOM     24  N   UNL     1      -0.681  -4.366   6.053  0.00  0.00    -0.301 N 
ATOM     25  C   UNL     1      -0.228  -5.665   5.552  0.00  0.00    +0.132 C 
BRANCH  24  26
ATOM     26  C   UNL     1      -0.551  -4.043   7.476  0.00  0.00    +0.076 C 
ATOM     27  C   UNL     1       0.924  -4.101   7.880  0.00  0.00    +0.022 C 
ATOM     28  C   UNL     1       1.059  -3.764   9.366  0.00  0.00    +0.002 C 
ATOM     29  C   UNL     1       0.265  -4.777  10.193  0.00  0.00    +0.000 C 
ATOM     30  C   UNL     1      -1.210  -4.719   9.790  0.00  0.00    +0.002 C 
ATOM     31  C   UNL     1      -1.346  -5.056   8.303  0.00  0.00    +0.022 C 
ENDBRANCH  24  26
ENDBRANCH  20  22
ENDBRANCH  19  20
ENDBRANCH   9  19
TORSDOF 8
