REMARK  Name = ZINC24709903
REMARK  7 active torsions:
REMARK  status: ('A' for Active; 'I' for Inactive)
REMARK    1  A    between atoms: C_1  and  C_2
REMARK    2  A    between atoms: C_2  and  C_3
REMARK    3  A    between atoms: C_3  and  C_27
REMARK    4  A    between atoms: N_6  and  C_10
REMARK    5  A    between atoms: C_10  and  C_11
REMARK    6  A    between atoms: N_13  and  N_14
REMARK    7  A    between atoms: C_20  and  C_23
REMARK                            x       y       z     vdW  Elec       q    Type
REMARK                         _______ _______ _______ _____ _____    ______ ____
ROOT
ATOM      1  C   UNL     1       3.381  -1.265  -2.783  0.00  0.00    +0.215 C 
ENDROOT
BRANCH   1   5
ATOM      2  C   UNL     1       2.490   1.047  -0.016  0.00  0.00    +0.138 C 
ATOM      3  C   UNL     1       2.933   0.779  -1.441  0.00  0.00    +0.251 C 
ATOM      4  O   UNL     1       3.183   1.600  -2.297  0.00  0.00    -0.272 OA
ATOM      5  N   UNL     1       2.993  -0.562  -1.558  0.00  0.00    -0.215 N 
ATOM      6  C   UNL     1       2.652  -1.173  -0.417  0.00  0.00    +0.310 C 
ATOM      7  O   UNL     1       2.630  -2.380  -0.277  0.00  0.00    -0.252 OA
ATOM      8  N   UNL     1       2.337  -0.301   0.558  0.00  0.00    -0.281 N 
ATOM      9  H   UNL     1       2.017  -0.420   1.604  0.00  0.00    +0.152 HD
BRANCH   2  10
ATOM     10  C   UNL     1       1.175   1.783   0.000  0.00  0.00    -0.015 A 
ATOM     11  C   UNL     1      -0.013   1.076   0.008  0.00  0.00    +0.007 A 
ATOM     12  C   UNL     1      -1.219   1.750   0.017  0.00  0.00    +0.020 A 
ATOM     13  C   UNL     1      -1.237   3.134   0.030  0.00  0.00    +0.041 A 
ATOM     14  C   UNL     1      -0.048   3.841   0.023  0.00  0.00    +0.020 A 
ATOM     15  C   UNL     1       1.157   3.165   0.009  0.00  0.00    +0.007 A 
ATOM     16 CL   UNL     1      -2.752   3.982   0.048  0.00  0.00    -0.084 Cl
ENDBRANCH   2  10
BRANCH   2  18
ATOM     17  C   UNL     1       4.881   1.071   0.708  0.00  0.00    +0.007 C 
ATOM     18  C   UNL     1       3.558   1.839   0.740  0.00  0.00    +0.037 C 
ENDBRANCH   2  18
ENDBRANCH   1   5
BRANCH   1  19
ATOM     19  C   UNL     1       4.873  -1.483  -2.786  0.00  0.00    +0.248 C 
ATOM     20  O   UNL     1       5.545  -1.089  -1.856  0.00  0.00    -0.273 OA
ATOM     21  N   UNL     1       5.460  -2.114  -3.821  0.00  0.00    -0.222 N 
ATOM     22  H   UNL     1       4.850  -2.471  -4.665  0.00  0.00    +0.174 HD
BRANCH  21  23
ATOM     23  N   UNL     1       6.846  -2.316  -3.824  0.00  0.00    -0.137 N 
ATOM     24  C   UNL     1       7.713  -1.616  -4.585  0.00  0.00    +0.263 C 
ATOM     25  O   UNL     1       7.451  -0.726  -5.365  0.00  0.00    -0.271 OA
ATOM     26  C   UNL     1       9.079  -2.173  -4.256  0.00  0.00    +0.114 C 
ATOM     27  C   UNL     1       9.720  -2.770  -5.504  0.00  0.00    +0.035 C 
ATOM     28  C   UNL     1      11.085  -3.361  -5.144  0.00  0.00    +0.006 C 
ATOM     29  C   UNL     1      11.980  -2.263  -4.566  0.00  0.00    -0.014 C 
ATOM     30  C   UNL     1      11.334  -1.688  -3.303  0.00  0.00    +0.006 C 
ATOM     31  C   UNL     1       9.970  -1.090  -3.656  0.00  0.00    +0.035 C 
ATOM     32  C   UNL     1      13.348  -2.851  -4.216  0.00  0.00    +0.007 C 
ATOM     33  N   UNL     1       8.807  -3.222  -3.266  0.00  0.00    -0.284 N 
ATOM     34  C   UNL     1       7.474  -3.232  -3.077  0.00  0.00    +0.326 C 
ATOM     35  O   UNL     1       6.905  -3.987  -2.313  0.00  0.00    -0.251 OA
ATOM     36  H   UNL     1       9.637  -3.809  -2.845  0.00  0.00    +0.151 HD
ENDBRANCH  21  23
ENDBRANCH   1  19
TORSDOF 5
