REMARK  Name = ZINC13526822
REMARK  10 active torsions:
REMARK  status: ('A' for Active; 'I' for Inactive)
REMARK    1  A    between atoms: C_1  and  C_2
REMARK    2  A    between atoms: C_2  and  C_4
REMARK    3  A    between atoms: C_2  and  O_10
REMARK    4  A    between atoms: O_10  and  C_11
REMARK    5  A    between atoms: C_11  and  C_13
REMARK    6  A    between atoms: C_24  and  C_34
REMARK    7  A    between atoms: C_28  and  C_29
REMARK    8  A    between atoms: C_34  and  C_35
REMARK    9  A    between atoms: C_34  and  C_36
REMARK   10  A    between atoms: C_34  and  C_37
REMARK                            x       y       z     vdW  Elec       q    Type
REMARK                         _______ _______ _______ _____ _____    ______ ____
ROOT
ATOM      1  C   UNL     1      -6.530   6.101   0.465  0.00  0.00    +0.073 A 
ATOM      2  C   UNL     1      -7.228   6.051   1.751  0.00  0.00    +0.015 A 
ATOM      3  C   UNL     1      -6.957   5.053   2.692  0.00  0.00    +0.011 A 
ATOM      4  C   UNL     1      -7.631   5.043   3.878  0.00  0.00    +0.001 A 
ATOM      5  C   UNL     1      -8.586   6.015   4.163  0.00  0.00    +0.002 A 
ATOM      6  C   UNL     1      -8.866   7.007   3.275  0.00  0.00    +0.028 A 
ATOM      7  C   UNL     1      -8.195   7.047   2.038  0.00  0.00    +0.072 A 
ATOM      8  N   UNL     1      -8.459   7.996   1.141  0.00  0.00    -0.247 NA
ATOM      9  C   UNL     1      -7.845   8.062  -0.030  0.00  0.00    +0.072 A 
ATOM     10  C   UNL     1      -6.868   7.123  -0.412  0.00  0.00    -0.007 A 
ATOM     11  C   UNL     1      -6.182   7.189  -1.748  0.00  0.00    +0.042 C 
ATOM     12  C   UNL     1      -6.240   8.598  -2.330  0.00  0.00    +0.003 C 
ATOM     13  C   UNL     1      -7.701   9.065  -2.381  0.00  0.00    +0.041 C 
ATOM     14  C   UNL     1      -8.199   9.158  -0.955  0.00  0.00    -0.020 C 
ATOM     15  C   UNL     1      -8.943  10.206  -0.543  0.00  0.00    +0.020 C 
ENDROOT
BRANCH  15  16
ATOM     16  C   UNL     1      -9.463  11.164  -1.519  0.00  0.00    +0.013 A 
ATOM     17  C   UNL     1     -10.118  12.366  -1.301  0.00  0.00    +0.015 A 
ATOM     18  C   UNL     1     -10.515  13.099  -2.393  0.00  0.00    +0.008 A 
ATOM     19  C   UNL     1     -10.255  12.629  -3.642  0.00  0.00    +0.046 A 
ATOM     20  S   UNL     1      -9.411  11.094  -3.303  0.00  0.00    -0.097 S 
ENDBRANCH  15  16
BRANCH  12  21
ATOM     21  C   UNL     1      -5.657   8.591  -3.745  0.00  0.00    -0.034 C 
ATOM     22  C   UNL     1      -5.721  10.003  -4.330  0.00  0.00    +0.011 C 
ATOM     23  C   UNL     1      -4.201   8.125  -3.693  0.00  0.00    +0.011 C 
ATOM     24  C   UNL     1      -6.467   7.637  -4.625  0.00  0.00    +0.011 C 
ENDBRANCH  12  21
BRANCH   1  25
ATOM     25  C   UNL     1      -5.507   5.096   0.110  0.00  0.00    +0.341 C 
ATOM     26  O   UNL     1      -4.341   5.293   0.388  0.00  0.00    -0.245 OA
BRANCH  25  27
ATOM     27  O   UNL     1      -5.867   3.962  -0.521  0.00  0.00    -0.449 OA
BRANCH  27  29
ATOM     28  C   UNL     1      -4.243   3.336  -2.224  0.00  0.00    +0.062 C 
ATOM     29  C   UNL     1      -4.808   3.019  -0.838  0.00  0.00    +0.259 C 
BRANCH  29  30
ATOM     30  C   UNL     1      -5.364   1.619  -0.830  0.00  0.00    +0.261 C 
ATOM     31  O   UNL     1      -6.552   1.439  -0.671  0.00  0.00    -0.271 OA
ATOM     32  N   UNL     1      -4.540   0.566  -1.000  0.00  0.00    -0.237 N 
ATOM     33  C   UNL     1      -5.036  -0.687  -0.993  0.00  0.00    +0.303 C 
ATOM     34  O   UNL     1      -6.228  -0.867  -0.833  0.00  0.00    -0.253 OA
ATOM     35  N   UNL     1      -4.212  -1.740  -1.162  0.00  0.00    -0.313 N 
ATOM     36  H   UNL     1      -3.589   0.710  -1.127  0.00  0.00    +0.159 HD
ATOM     37  H   UNL     1      -4.570  -2.641  -1.157  0.00  0.00    +0.146 HD
ATOM     38  H   UNL     1      -3.262  -1.595  -1.293  0.00  0.00    +0.146 HD
ENDBRANCH  29  30
ENDBRANCH  27  29
ENDBRANCH  25  27
ENDBRANCH   1  25
TORSDOF 6
