REMARK  Name = ZINC67538413
REMARK  9 active torsions:
REMARK  status: ('A' for Active; 'I' for Inactive)
REMARK    1  A    between atoms: C_1  and  C_2
REMARK    2  A    between atoms: C_2  and  O_3
REMARK    3  A    between atoms: O_3  and  C_4
REMARK    4  A    between atoms: C_9  and  N_10
REMARK    5  A    between atoms: N_13  and  C_14
REMARK    6  A    between atoms: C_14  and  C_16
REMARK    7  A    between atoms: C_14  and  C_17
REMARK    8  A    between atoms: C_24  and  C_26
REMARK    9  A    between atoms: C_28  and  C_31
REMARK                            x       y       z     vdW  Elec       q    Type
REMARK                         _______ _______ _______ _____ _____    ______ ____
ROOT
ATOM      1  N   UNL     1      -3.979  -1.652  -0.429  0.00  0.00    -0.266 N 
ATOM      2  C   UNL     1      -5.241  -2.095  -0.602  0.00  0.00    +0.305 C 
ATOM      3  O   UNL     1      -5.446  -3.272  -0.825  0.00  0.00    -0.252 OA
ATOM      4  N   UNL     1      -6.274  -1.233  -0.527  0.00  0.00    -0.288 N 
ATOM      5  H   UNL     1      -3.820  -0.729  -0.179  0.00  0.00    +0.156 HD
ATOM      6  H   UNL     1      -6.110  -0.293  -0.350  0.00  0.00    +0.151 HD
ENDROOT
BRANCH   1  12
ATOM      7  C   UNL     1      -1.684  -2.269   0.019  0.00  0.00    +0.142 A 
ATOM      8  C   UNL     1      -0.620  -3.138  -0.164  0.00  0.00    +0.055 A 
ATOM      9  C   UNL     1      -0.766  -4.247  -0.970  0.00  0.00    +0.001 A 
ATOM     10  C   UNL     1      -1.974  -4.515  -1.603  0.00  0.00    +0.126 A 
ATOM     11  C   UNL     1      -3.040  -3.640  -1.422  0.00  0.00    +0.073 A 
ATOM     12  C   UNL     1      -2.899  -2.526  -0.611  0.00  0.00    +0.080 A 
ATOM     13  O   UNL     1      -1.904  -5.667  -2.329  0.00  0.00    -0.488 OA
ATOM     14  C   UNL     1      -0.525  -5.988  -2.575  0.00  0.00    +0.175 C 
ATOM     15  C   UNL     1       0.197  -5.350  -1.365  0.00  0.00    +0.083 C 
ATOM     16  C   UNL     1      -0.317  -7.504  -2.598  0.00  0.00    +0.052 C 
BRANCH   7  17
ATOM     17  O   UNL     1      -1.544  -1.174   0.815  0.00  0.00    -0.490 OA
BRANCH  17  19
ATOM     18  C   UNL     1      -0.302   0.295   2.278  0.00  0.00    +0.048 C 
ATOM     19  C   UNL     1      -0.268  -0.977   1.428  0.00  0.00    +0.226 C 
ENDBRANCH  17  19
ENDBRANCH   7  17
ENDBRANCH   1  12
BRANCH   4  20
ATOM     20  C   UNL     1      -7.645  -1.714  -0.715  0.00  0.00    +0.157 C 
ATOM     21  C   UNL     1      -7.973  -1.750  -2.209  0.00  0.00    +0.038 C 
BRANCH  20  22
ATOM     22  C   UNL     1      -8.603  -0.787  -0.012  0.00  0.00    +0.236 C 
ATOM     23  O   UNL     1      -8.198   0.245   0.479  0.00  0.00    -0.274 OA
ATOM     24  N   UNL     1      -9.910  -1.106   0.071  0.00  0.00    -0.297 N 
ATOM     25  C   UNL     1     -10.405  -2.382  -0.464  0.00  0.00    +0.108 C 
ATOM     26  C   UNL     1     -11.559  -2.096  -1.431  0.00  0.00    +0.019 C 
ATOM     27  C   UNL     1     -12.622  -1.260  -0.717  0.00  0.00    +0.003 C 
ATOM     28  C   UNL     1     -12.015   0.076  -0.281  0.00  0.00    +0.022 C 
ATOM     29  C   UNL     1     -10.866  -0.187   0.703  0.00  0.00    +0.073 C 
ATOM     30  C   UNL     1     -10.165   1.131   1.040  0.00  0.00    +0.028 C 
ENDBRANCH  20  22
ENDBRANCH   4  20
TORSDOF 5
