REMARK  Name = ZINC08791754
REMARK  9 active torsions:
REMARK  status: ('A' for Active; 'I' for Inactive)
REMARK    1  A    between atoms: C_1  and  C_2
REMARK    2  A    between atoms: C_2  and  C_3
REMARK    3  A    between atoms: C_2  and  C_4
REMARK    4  A    between atoms: C_4  and  C_5
REMARK    5  A    between atoms: C_5  and  C_7
REMARK    6  A    between atoms: C_5  and  N_16
REMARK    7  A    between atoms: N_9  and  C_10
REMARK    8  A    between atoms: C_10  and  C_11
REMARK    9  A    between atoms: C_17  and  C_19
REMARK                            x       y       z     vdW  Elec       q    Type
REMARK                         _______ _______ _______ _____ _____    ______ ____
ROOT
ATOM      1  C   UNL     1      -1.331   2.079   0.020  0.00  0.00    +0.167 C 
ATOM      2  C   UNL     1      -2.081   1.823  -1.296  0.00  0.00    +0.069 C 
ATOM      3  C   UNL     1      -3.108   2.902  -1.528  0.00  0.00    -0.015 A 
ATOM      4  C   UNL     1      -4.213   2.873  -2.470  0.00  0.00    +0.003 A 
ATOM      5  C   UNL     1      -4.651   1.908  -3.382  0.00  0.00    +0.010 A 
ATOM      6  C   UNL     1      -5.757   2.222  -4.133  0.00  0.00    +0.001 A 
ATOM      7  C   UNL     1      -6.417   3.433  -4.001  0.00  0.00    +0.002 A 
ATOM      8  C   UNL     1      -6.006   4.405  -3.106  0.00  0.00    +0.026 A 
ATOM      9  C   UNL     1      -4.885   4.114  -2.331  0.00  0.00    +0.047 A 
ATOM     10  N   UNL     1      -4.225   4.827  -1.372  0.00  0.00    -0.356 N 
ATOM     11  H   UNL     1      -4.466   5.718  -1.074  0.00  0.00    +0.166 HD
ATOM     12  C   UNL     1      -3.173   4.094  -0.893  0.00  0.00    +0.046 A 
ATOM     13  C   UNL     1      -2.199   4.505   0.184  0.00  0.00    +0.155 C 
ATOM     14  N   UNL     1      -1.092   3.522   0.128  0.00  0.00    -0.273 N 
ATOM     15  C   UNL     1       0.069   4.189   0.155  0.00  0.00    +0.248 C 
ATOM     16  O   UNL     1       1.161   3.688   0.344  0.00  0.00    -0.270 OA
ATOM     17  C   UNL     1      -0.177   5.615  -0.077  0.00  0.00    +0.042 A 
ATOM     18  C   UNL     1      -1.571   5.830  -0.087  0.00  0.00    -0.009 A 
ATOM     19  C   UNL     1      -2.106   7.080  -0.301  0.00  0.00    +0.006 A 
ATOM     20  C   UNL     1      -1.210   8.127  -0.494  0.00  0.00    +0.000 A 
ATOM     21  C   UNL     1       0.156   7.931  -0.470  0.00  0.00    +0.001 A 
ATOM     22  C   UNL     1       0.711   6.677  -0.260  0.00  0.00    +0.013 A 
ENDROOT
BRANCH   1  24
ATOM     23  N   UNL     1       0.954   1.709  -0.852  0.00  0.00    -0.302 N 
ATOM     24  C   UNL     1      -0.016   1.344   0.009  0.00  0.00    +0.235 C 
ATOM     25  O   UNL     1       0.171   0.426   0.780  0.00  0.00    -0.274 OA
ATOM     26  H   UNL     1       0.804   2.443  -1.468  0.00  0.00    +0.150 HD
BRANCH  23  27
ATOM     27  C   UNL     1       2.235   0.998  -0.858  0.00  0.00    +0.159 C 
BRANCH  27  28
ATOM     28  C   UNL     1       3.310   1.904  -1.400  0.00  0.00    +0.234 C 
ATOM     29  O   UNL     1       3.034   3.033  -1.748  0.00  0.00    -0.274 OA
ATOM     30  N   UNL     1       4.579   1.460  -1.499  0.00  0.00    -0.307 N 
ATOM     31  H   UNL     1       4.799   0.557  -1.221  0.00  0.00    +0.149 HD
BRANCH  30  32
ATOM     32  C   UNL     1       5.624   2.341  -2.026  0.00  0.00    +0.178 C 
BRANCH  32  33
ATOM     33  C   UNL     1       6.941   1.609  -2.032  0.00  0.00    +0.122 A 
ATOM     34  C   UNL     1       7.424   0.866  -3.045  0.00  0.00    +0.046 A 
ATOM     35  C   UNL     1       8.679   0.369  -2.625  0.00  0.00    +0.041 A 
ATOM     36  C   UNL     1       8.889   0.837  -1.382  0.00  0.00    +0.195 A 
ATOM     37  O   UNL     1       7.835   1.593  -1.030  0.00  0.00    -0.466 OA
ENDBRANCH  32  33
ENDBRANCH  30  32
ENDBRANCH  27  28
BRANCH  27  38
ATOM     38  C   UNL     1       2.123  -0.246  -1.741  0.00  0.00    +0.034 C 
BRANCH  38  40
ATOM     39  C   UNL     1       0.915  -2.409  -2.065  0.00  0.00    +0.007 C 
ATOM     40  C   UNL     1       1.121  -1.223  -1.122  0.00  0.00    -0.015 C 
ATOM     41  C   UNL     1       1.659  -1.725   0.219  0.00  0.00    +0.007 C 
ENDBRANCH  38  40
ENDBRANCH  27  38
ENDBRANCH  23  27
ENDBRANCH   1  24
TORSDOF 7
