REMARK  Name = ZINC20995496
REMARK  4 active torsions:
REMARK  status: ('A' for Active; 'I' for Inactive)
REMARK    1  A    between atoms: C_6  and  N_7
REMARK    2  A    between atoms: C_11  and  S_12
REMARK    3  A    between atoms: S_12  and  C_13
REMARK    4  A    between atoms: C_13  and  C_14
REMARK                            x       y       z     vdW  Elec       q    Type
REMARK                         _______ _______ _______ _____ _____    ______ ____
ROOT
ATOM      1  C   UNL     1       0.062   4.272   0.025  0.00  0.00    +0.151 C 
ENDROOT
BRANCH   1   2
ATOM      2  C   UNL     1       0.225   5.770   0.032  0.00  0.00    +0.121 A 
ATOM      3  N   UNL     1      -0.894   6.541   0.042  0.00  0.00    -0.310 N 
ATOM      4  H   UNL     1      -1.887   6.068   0.040  0.00  0.00    +0.170 HD
ATOM      5  C   UNL     1      -0.801   7.891   0.054  0.00  0.00    +0.259 A 
ATOM      6  O   UNL     1      -1.796   8.593   0.067  0.00  0.00    -0.267 OA
ATOM      7  C   UNL     1       0.547   8.477   0.043  0.00  0.00    +0.066 A 
ATOM      8  C   UNL     1       0.752   9.855   0.049  0.00  0.00    +0.035 A 
ATOM      9  C   UNL     1       2.039  10.350   0.040  0.00  0.00    +0.042 A 
ATOM     10  C   UNL     1       3.128   9.487   0.024  0.00  0.00    +0.022 A 
ATOM     11  C   UNL     1       2.946   8.123   0.018  0.00  0.00    +0.030 A 
ATOM     12  C   UNL     1       1.652   7.597   0.028  0.00  0.00    +0.078 A 
ATOM     13  N   UNL     1       1.428   6.259   0.022  0.00  0.00    -0.233 NA
ATOM     14 CL   UNL     1       2.300  12.066   0.047  0.00  0.00    -0.084 Cl
ENDBRANCH   1   2
BRANCH   1  15
ATOM     15  S   UNL     1       1.693   3.488   0.005  0.00  0.00    -0.080 S 
BRANCH  15  20
ATOM     16  N   UNL     1       2.065   0.724  -0.014  0.00  0.00    -0.295 N 
ATOM     17  C   UNL     1       1.283  -0.411  -0.012  0.00  0.00    +0.113 A 
ATOM     18  C   UNL     1       0.002  -0.004   0.002  0.00  0.00    +0.131 A 
ATOM     19  N   UNL     1      -0.016   1.339   0.009  0.00  0.00    -0.230 NA
ATOM     20  C   UNL     1       1.216   1.791   0.000  0.00  0.00    +0.174 A 
BRANCH  16  26
ATOM     21  C   UNL     1       4.126   1.569  -0.953  0.00  0.00    +0.027 A 
ATOM     22  C   UNL     1       5.506   1.619  -0.961  0.00  0.00    +0.017 A 
ATOM     23  C   UNL     1       6.232   0.867  -0.054  0.00  0.00    +0.018 A 
ATOM     24  C   UNL     1       5.577   0.067   0.866  0.00  0.00    +0.017 A 
ATOM     25  C   UNL     1       4.197   0.018   0.881  0.00  0.00    +0.027 A 
ATOM     26  C   UNL     1       3.466   0.772  -0.027  0.00  0.00    +0.049 A 
ATOM     27 BR   UNL     1       8.122   0.932  -0.072  0.00  0.00    -0.050 Br
ENDBRANCH  16  26
ENDBRANCH  15  20
ENDBRANCH   1  15
TORSDOF 4
