REMARK  Name = ZINC39948876
REMARK  11 active torsions:
REMARK  status: ('A' for Active; 'I' for Inactive)
REMARK    1  A    between atoms: C_1  and  C_2
REMARK    2  A    between atoms: C_2  and  C_3
REMARK    3  A    between atoms: C_3  and  C_4
REMARK    4  A    between atoms: C_4  and  N_5
REMARK    5  A    between atoms: N_5  and  S_6
REMARK    6  A    between atoms: S_6  and  C_9
REMARK    7  A    between atoms: C_13  and  S_18
REMARK    8  A    between atoms: S_18  and  C_19
REMARK    9  A    between atoms: C_19  and  C_20
REMARK   10  A    between atoms: C_20  and  C_22
REMARK   11  A    between atoms: C_30  and  C_32
REMARK                            x       y       z     vdW  Elec       q    Type
REMARK                         _______ _______ _______ _____ _____    ______ ____
ROOT
ATOM      1  C   UNL     1       2.068  -5.084   1.601  0.00  0.00    +0.089 C 
ATOM      2  C   UNL     1       1.298  -5.760   0.750  0.00  0.00    +0.054 C 
ATOM      3  C   UNL     1       1.892  -6.572  -0.315  0.00  0.00    +0.093 C 
ATOM      4  N   UNL     1       1.386  -7.327  -1.275  0.00  0.00    -0.220 NA
ATOM      5  C   UNL     1       2.383  -7.860  -1.991  0.00  0.00    +0.190 C 
ATOM      6  N   UNL     1       3.560  -7.483  -1.537  0.00  0.00    -0.221 NA
ATOM      7  C   UNL     1       3.358  -6.660  -0.470  0.00  0.00    +0.089 C 
ATOM      8  C   UNL     1       4.176  -5.991   0.370  0.00  0.00    +0.009 C 
ATOM      9  C   UNL     1       3.570  -5.148   1.468  0.00  0.00    +0.085 C 
ENDROOT
BRANCH   1  10
ATOM     10  S   UNL     1       1.335  -4.113   2.875  0.00  0.00    +0.055 S 
ATOM     11  O   UNL     1       2.148  -4.276   4.029  0.00  0.00    -0.153 OA
ATOM     12  O   UNL     1      -0.052  -4.418   2.871  0.00  0.00    -0.153 OA
BRANCH  10  13
ATOM     13  N   UNL     1       1.471  -2.526   2.420  0.00  0.00    -0.190 NA
ATOM     14  H   UNL     1       2.020  -1.918   2.940  0.00  0.00    +0.148 HD
BRANCH  13  15
ATOM     15  C   UNL     1       0.763  -2.041   1.233  0.00  0.00    +0.106 C 
BRANCH  15  16
ATOM     16  C   UNL     1       0.742  -0.511   1.242  0.00  0.00    +0.017 C 
BRANCH  16  18
ATOM     17  C   UNL     1      -0.019   1.526   0.010  0.00  0.00    +0.004 C 
ATOM     18  C   UNL     1       0.002  -0.004   0.002  0.00  0.00    -0.002 C 
ENDBRANCH  16  18
ENDBRANCH  15  16
ENDBRANCH  13  15
ENDBRANCH  10  13
ENDBRANCH   1  10
BRANCH   5  19
ATOM     19  S   UNL     1       2.149  -8.934  -3.368  0.00  0.00    -0.078 S 
BRANCH  19  20
ATOM     20  C   UNL     1       3.836  -9.320  -3.914  0.00  0.00    +0.156 C 
BRANCH  20  21
ATOM     21  C   UNL     1       3.779 -10.244  -5.104  0.00  0.00    +0.172 C 
ATOM     22  O   UNL     1       2.706 -10.606  -5.541  0.00  0.00    -0.291 OA
BRANCH  21  23
ATOM     23  C   UNL     1       4.974 -10.687  -5.710  0.00  0.00    +0.027 C 
ATOM     24  C   UNL     1       6.268 -10.375  -5.334  0.00  0.00    +0.006 A 
ATOM     25  C   UNL     1       6.803  -9.571  -4.301  0.00  0.00    +0.010 A 
ATOM     26  C   UNL     1       8.141  -9.440  -4.162  0.00  0.00    +0.001 A 
ATOM     27  C   UNL     1       9.054 -10.080  -5.016  0.00  0.00    +0.002 A 
ATOM     28  C   UNL     1       8.647 -10.869  -6.034  0.00  0.00    +0.026 A 
ATOM     29  C   UNL     1       7.205 -11.066  -6.255  0.00  0.00    +0.043 A 
ATOM     30  N   UNL     1       6.547 -11.758  -7.140  0.00  0.00    -0.377 N 
ATOM     31  C   UNL     1       5.108 -11.609  -6.902  0.00  0.00    +0.111 C 
ATOM     32  C   UNL     1       4.479 -12.968  -6.590  0.00  0.00    +0.035 C 
ATOM     33  H   UNL     1       6.946 -12.293  -7.844  0.00  0.00    +0.160 HD
ENDBRANCH  21  23
ENDBRANCH  20  21
ENDBRANCH  19  20
ENDBRANCH   5  19
TORSDOF 9
