REMARK  Name = ZINC16204611
REMARK  11 active torsions:
REMARK  status: ('A' for Active; 'I' for Inactive)
REMARK    1  A    between atoms: C_1  and  N_62
REMARK    2  A    between atoms: C_2  and  N_62
REMARK    3  A    between atoms: C_3  and  C_5
REMARK    4  A    between atoms: C_3  and  C_25
REMARK    5  A    between atoms: C_3  and  N_62
REMARK    6  A    between atoms: C_5  and  N_6
REMARK    7  A    between atoms: C_7  and  C_9
REMARK    8  A    between atoms: C_9  and  C_10
REMARK    9  A    between atoms: C_10  and  N_11
REMARK   10  A    between atoms: C_28  and  O_31
REMARK   11  A    between atoms: O_31  and  C_32
REMARK                            x       y       z     vdW  Elec       q    Type
REMARK                         _______ _______ _______ _____ _____    ______ ____
ROOT
ATOM      1  N   UNL     1       3.119  -7.130  -3.934  0.00  0.00    -0.316 N 
ATOM      2  C   UNL     1       3.081  -6.227  -2.935  0.00  0.00    +0.215 C 
ATOM      3  O   UNL     1       3.986  -6.176  -2.128  0.00  0.00    -0.276 OA
ATOM      4  H   UNL     1       2.395  -7.171  -4.579  0.00  0.00    +0.149 HD
ENDROOT
BRANCH   1   5
ATOM      5  C   UNL     1       4.252  -8.052  -4.046  0.00  0.00    +0.093 C 
BRANCH   5   6
ATOM      6  C   UNL     1       4.049  -8.966  -5.256  0.00  0.00    -0.021 C 
BRANCH   6   7
ATOM      7  C   UNL     1       5.151  -9.992  -5.301  0.00  0.00    -0.059 A 
ATOM      8  C   UNL     1       5.476 -10.705  -4.162  0.00  0.00    +0.005 A 
ATOM      9  C   UNL     1       6.482 -11.651  -4.202  0.00  0.00    +0.046 A 
ATOM     10  C   UNL     1       7.174 -11.877  -5.383  0.00  0.00    +0.120 A 
ATOM     11  C   UNL     1       6.849 -11.157  -6.523  0.00  0.00    +0.046 A 
ATOM     12  C   UNL     1       5.838 -10.216  -6.480  0.00  0.00    +0.005 A 
BRANCH  10  13
ATOM     13  O   UNL     1       8.168 -12.803  -5.424  0.00  0.00    -0.495 OA
ATOM     14  C   UNL     1       8.448 -13.507  -4.212  0.00  0.00    +0.277 C 
ENDBRANCH  10  13
ENDBRANCH   6   7
BRANCH   6  17
ATOM     15  C   UNL     1       2.437 -10.386  -6.374  0.00  0.00    -0.096 C 
ATOM     16  C   UNL     1       2.719 -10.530  -3.973  0.00  0.00    -0.096 C 
ATOM     17  N   UNL     1       2.731  -9.624  -5.141  0.00  0.00    +0.382 N 
ATOM     18  H   UNL     1       2.009  -8.906  -5.013  0.00  0.00    -0.082 HD
ENDBRANCH   6  17
ENDBRANCH   5   6
ENDBRANCH   1   5
BRANCH   2  19
ATOM     19  C   UNL     1       1.915  -5.279  -2.819  0.00  0.00    +0.117 C 
BRANCH  19  20
ATOM     20  C   UNL     1       2.118  -4.365  -1.609  0.00  0.00    +0.135 C 
BRANCH  20  21
ATOM     21  N   UNL     1       0.985  -3.444  -1.497  0.00  0.00    -0.298 N 
ATOM     22  C   UNL     1      -0.085  -3.824  -0.758  0.00  0.00    +0.203 A 
ATOM     23  N   UNL     1      -1.150  -3.069  -0.598  0.00  0.00    -0.230 NA
ATOM     24  C   UNL     1      -1.153  -1.883  -1.198  0.00  0.00    +0.116 A 
ATOM     25  C   UNL     1      -0.087  -1.397  -1.988  0.00  0.00    +0.076 A 
ATOM     26  C   UNL     1       1.056  -2.252  -2.136  0.00  0.00    +0.262 A 
ATOM     27  O   UNL     1       2.028  -1.928  -2.796  0.00  0.00    -0.267 OA
ATOM     28  C   UNL     1      -0.267  -0.077  -2.566  0.00  0.00    -0.023 A 
ATOM     29  C   UNL     1      -1.434   0.551  -2.291  0.00  0.00    -0.004 A 
ATOM     30  S   UNL     1      -2.338  -0.576  -1.259  0.00  0.00    -0.073 S 
ATOM     31  C   UNL     1      -1.866   1.907  -2.759  0.00  0.00    +0.043 C 
ATOM     32  C   UNL     1      -0.636   2.650  -3.299  0.00  0.00    +0.005 C 
ATOM     33  C   UNL     1       0.125   1.715  -4.243  0.00  0.00    +0.005 C 
ATOM     34  C   UNL     1       0.787   0.594  -3.442  0.00  0.00    +0.037 C 
ENDBRANCH  20  21
ENDBRANCH  19  20
ENDBRANCH   2  19
TORSDOF 8
