REMARK  Name = ZINC23452168
REMARK  10 active torsions:
REMARK  status: ('A' for Active; 'I' for Inactive)
REMARK    1  A    between atoms: C_1  and  C_2
REMARK    2  A    between atoms: C_2  and  N_3
REMARK    3  A    between atoms: N_3  and  C_4
REMARK    4  A    between atoms: N_3  and  S_6
REMARK    5  A    between atoms: C_4  and  C_5
REMARK    6  A    between atoms: S_6  and  C_9
REMARK    7  A    between atoms: C_12  and  O_31
REMARK    8  A    between atoms: C_13  and  N_15
REMARK    9  A    between atoms: C_16  and  C_18
REMARK   10  A    between atoms: C_18  and  N_19
REMARK                            x       y       z     vdW  Elec       q    Type
REMARK                         _______ _______ _______ _____ _____    ______ ____
ROOT
ATOM      1  N   UNL     1       2.677   6.690   2.380  0.00  0.00    -0.281 N 
ATOM      2  C   UNL     1       2.037   5.605   1.900  0.00  0.00    +0.235 C 
ATOM      3  O   UNL     1       1.624   4.757   2.663  0.00  0.00    -0.274 OA
ATOM      4  H   UNL     1       3.115   7.422   1.685  0.00  0.00    +0.155 HD
ENDROOT
BRANCH   1   9
ATOM      5  C   UNL     1       3.033   5.990   5.974  0.00  0.00    +0.107 A 
ATOM      6  C   UNL     1       2.998   7.269   6.498  0.00  0.00    +0.032 A 
ATOM      7  C   UNL     1       2.856   8.359   5.661  0.00  0.00    +0.049 A 
ATOM      8  C   UNL     1       2.755   8.173   4.292  0.00  0.00    +0.138 A 
ATOM      9  C   UNL     1       2.784   6.885   3.763  0.00  0.00    +0.077 A 
ATOM     10  C   UNL     1       2.927   5.795   4.610  0.00  0.00    +0.055 A 
BRANCH   5  11
ATOM     11  S   UNL     1       3.213   4.604   7.048  0.00  0.00    +0.061 S 
ATOM     12  O   UNL     1       2.744   5.016   8.325  0.00  0.00    -0.153 OA
ATOM     13  O   UNL     1       2.670   3.485   6.362  0.00  0.00    -0.153 OA
BRANCH  11  14
ATOM     14  N   UNL     1       4.836   4.319   7.210  0.00  0.00    -0.177 NA
BRANCH  14  16
ATOM     15  C   UNL     1       5.677   4.037   9.489  0.00  0.00    +0.022 C 
ATOM     16  C   UNL     1       5.591   4.972   8.282  0.00  0.00    +0.106 C 
ENDBRANCH  14  16
BRANCH  14  17
ATOM     17  C   UNL     1       5.516   3.412   6.282  0.00  0.00    +0.106 C 
ATOM     18  C   UNL     1       6.144   4.222   5.146  0.00  0.00    +0.022 C 
ENDBRANCH  14  17
ENDBRANCH  11  14
ENDBRANCH   5  11
BRANCH   8  19
ATOM     19  O   UNL     1       2.622   9.245   3.466  0.00  0.00    -0.505 OA
ATOM     20  H   UNL     1       2.541   9.096   2.379  0.00  0.00    +0.292 HD
ENDBRANCH   8  19
ENDBRANCH   1   9
BRANCH   2  21
ATOM     21  C   UNL     1       1.833   5.446   0.415  0.00  0.00    +0.209 C 
BRANCH  21  22
ATOM     22  N   UNL     1       1.117   4.196   0.152  0.00  0.00    -0.256 N 
ATOM     23  C   UNL     1      -0.284   4.174   0.105  0.00  0.00    +0.080 A 
ATOM     24  C   UNL     1      -1.007   5.349  -0.013  0.00  0.00    +0.047 A 
ATOM     25  C   UNL     1      -2.389   5.306  -0.055  0.00  0.00    +0.043 A 
ATOM     26  C   UNL     1      -3.049   4.092   0.013  0.00  0.00    +0.024 A 
ATOM     27  C   UNL     1      -2.333   2.915   0.137  0.00  0.00    +0.049 A 
ATOM     28  C   UNL     1      -0.950   2.951   0.180  0.00  0.00    +0.143 A 
ATOM     29  O   UNL     1      -0.229   1.803   0.293  0.00  0.00    -0.481 OA
ATOM     30  C   UNL     1       1.044   1.776  -0.358  0.00  0.00    +0.325 C 
ATOM     31  C   UNL     1       1.796   3.046  -0.051  0.00  0.00    +0.258 C 
ATOM     32  O   UNL     1       3.008   3.035   0.014  0.00  0.00    -0.271 OA
ATOM     33 CL   UNL     1      -3.298   6.778  -0.203  0.00  0.00    -0.083 Cl
ENDBRANCH  21  22
ENDBRANCH   2  21
TORSDOF 8
