REMARK  Name = ZINC13750540
REMARK  10 active torsions:
REMARK  status: ('A' for Active; 'I' for Inactive)
REMARK    1  A    between atoms: C_1  and  C_2
REMARK    2  A    between atoms: C_2  and  O_3
REMARK    3  A    between atoms: O_3  and  C_4
REMARK    4  A    between atoms: C_7  and  C_12
REMARK    5  A    between atoms: C_9  and  O_10
REMARK    6  A    between atoms: O_10  and  C_11
REMARK    7  A    between atoms: C_17  and  N_19
REMARK    8  A    between atoms: N_19  and  C_20
REMARK    9  A    between atoms: C_23  and  C_27
REMARK   10  A    between atoms: C_24  and  C_26
REMARK                            x       y       z     vdW  Elec       q    Type
REMARK                         _______ _______ _______ _____ _____    ______ ____
ROOT
ATOM      1  C   UNL     1      -1.995  -6.048  -0.162  0.00  0.00    +0.028 C 
ATOM      2  C   UNL     1      -0.909  -6.860  -0.217  0.00  0.00    +0.079 C 
ATOM      3  C   UNL     1      -0.829  -8.339  -0.219  0.00  0.00    +0.276 C 
ATOM      4  O   UNL     1      -1.829  -9.038  -0.164  0.00  0.00    -0.267 OA
ATOM      5  N   UNL     1       0.377  -8.858  -0.282  0.00  0.00    -0.152 NA
ATOM      6  C   UNL     1       1.469  -8.113  -0.342  0.00  0.00    +0.175 C 
ATOM      7  S   UNL     1       0.828  -6.446  -0.318  0.00  0.00    -0.050 S 
ENDROOT
BRANCH   1  11
ATOM      8  C   UNL     1      -1.537  -1.863  -0.698  0.00  0.00    +0.162 A 
ATOM      9  C   UNL     1      -0.463  -2.713  -0.926  0.00  0.00    +0.050 A 
ATOM     10  C   UNL     1      -0.607  -4.072  -0.753  0.00  0.00    +0.012 A 
ATOM     11  C   UNL     1      -1.838  -4.599  -0.346  0.00  0.00    -0.020 A 
ATOM     12  C   UNL     1      -2.921  -3.741  -0.116  0.00  0.00    +0.057 A 
ATOM     13  C   UNL     1      -2.766  -2.380  -0.286  0.00  0.00    +0.162 A 
BRANCH  13  14
ATOM     14  O   UNL     1      -3.813  -1.542  -0.058  0.00  0.00    -0.491 OA
ATOM     15  C   UNL     1      -5.042  -2.140   0.361  0.00  0.00    +0.277 C 
ENDBRANCH  13  14
BRANCH   8  16
ATOM     16  O   UNL     1      -1.390  -0.524  -0.870  0.00  0.00    -0.489 OA
BRANCH  16  18
ATOM     17  C   UNL     1      -0.131   1.461  -1.432  0.00  0.00    +0.048 C 
ATOM     18  C   UNL     1      -0.105  -0.062  -1.293  0.00  0.00    +0.226 C 
ENDBRANCH  16  18
ENDBRANCH   8  16
ENDBRANCH   1  11
BRANCH   6  19
ATOM     19  N   UNL     1       2.776  -8.521  -0.410  0.00  0.00    -0.192 NA
BRANCH  19  20
ATOM     20  C   UNL     1       3.076  -9.865  -0.649  0.00  0.00    +0.056 A 
ATOM     21  C   UNL     1       2.159 -10.678  -1.303  0.00  0.00    +0.025 A 
ATOM     22  C   UNL     1       2.459 -12.006  -1.537  0.00  0.00    +0.005 A 
ATOM     23  C   UNL     1       3.671 -12.526  -1.121  0.00  0.00    -0.047 A 
ATOM     24  C   UNL     1       4.586 -11.720  -0.469  0.00  0.00    -0.046 A 
ATOM     25  C   UNL     1       4.295 -10.389  -0.238  0.00  0.00    +0.028 A 
ATOM     26  C   UNL     1       5.905 -12.291  -0.018  0.00  0.00    +0.044 C 
ATOM     27  C   UNL     1       3.995 -13.975  -1.378  0.00  0.00    +0.044 C 
ENDBRANCH  19  20
ENDBRANCH   6  19
TORSDOF 6
