REMARK  Name = ZINC29189658
REMARK  12 active torsions:
REMARK  status: ('A' for Active; 'I' for Inactive)
REMARK    1  A    between atoms: C_1  and  C_2
REMARK    2  A    between atoms: C_2  and  C_3
REMARK    3  A    between atoms: C_2  and  C_4
REMARK    4  A    between atoms: C_4  and  C_6
REMARK    5  A    between atoms: C_4  and  N_13
REMARK    6  A    between atoms: N_13  and  C_14
REMARK    7  A    between atoms: C_14  and  C_15
REMARK    8  A    between atoms: N_17  and  N_18
REMARK    9  A    between atoms: C_21  and  C_25
REMARK   10  A    between atoms: C_21  and  C_26
REMARK   11  A    between atoms: C_26  and  C_27
REMARK   12  A    between atoms: C_27  and  C_28
REMARK                            x       y       z     vdW  Elec       q    Type
REMARK                         _______ _______ _______ _____ _____    ______ ____
ROOT
ATOM      1  C   UNL     1      -1.227   1.766  -0.229  0.00  0.00    +0.213 C 
ATOM      2  O   UNL     1      -1.301   2.958  -0.444  0.00  0.00    -0.276 OA
ATOM      3  N   UNL     1      -0.021   1.171  -0.142  0.00  0.00    -0.225 N 
ATOM      4  H   UNL     1       0.046   0.091   0.058  0.00  0.00    +0.173 HD
ENDROOT
BRANCH   3   5
ATOM      5  N   UNL     1       1.147   1.927  -0.306  0.00  0.00    -0.137 N 
ATOM      6  C   UNL     1       1.961   2.291   0.704  0.00  0.00    +0.263 C 
ATOM      7  O   UNL     1       1.826   2.037   1.882  0.00  0.00    -0.271 OA
ATOM      8  C   UNL     1       3.082   3.084   0.062  0.00  0.00    +0.112 C 
ATOM      9  N   UNL     1       2.736   3.075  -1.370  0.00  0.00    -0.284 N 
ATOM     10  C   UNL     1       1.595   2.371  -1.486  0.00  0.00    +0.326 C 
ATOM     11  O   UNL     1       1.032   2.165  -2.543  0.00  0.00    -0.251 OA
ATOM     12  C   UNL     1       3.104   4.516   0.600  0.00  0.00    +0.041 C 
ATOM     13  H   UNL     1       3.383   3.589  -2.096  0.00  0.00    +0.151 HD
BRANCH   8  14
ATOM     14  C   UNL     1       4.430   2.401   0.298  0.00  0.00    +0.040 C 
BRANCH  14  15
ATOM     15  C   UNL     1       5.540   3.222  -0.360  0.00  0.00    +0.038 C 
BRANCH  15  16
ATOM     16  C   UNL     1       6.868   2.549  -0.127  0.00  0.00    -0.047 A 
ATOM     17  C   UNL     1       7.619   2.868   0.989  0.00  0.00    +0.003 A 
ATOM     18  C   UNL     1       8.834   2.247   1.205  0.00  0.00    +0.000 A 
ATOM     19  C   UNL     1       9.305   1.314   0.299  0.00  0.00    +0.000 A 
ATOM     20  C   UNL     1       8.557   0.999  -0.820  0.00  0.00    +0.000 A 
ATOM     21  C   UNL     1       7.339   1.617  -1.033  0.00  0.00    +0.003 A 
ENDBRANCH  15  16
ENDBRANCH  14  15
ENDBRANCH   8  14
ENDBRANCH   3   5
BRANCH   1  22
ATOM     22  C   UNL     1      -2.484   0.952  -0.059  0.00  0.00    +0.017 C 
BRANCH  22  23
ATOM     23  N   UNL     1      -3.656   1.827  -0.197  0.00  0.00    +0.389 N 
ATOM     24  H   UNL     1      -3.618   2.315  -1.182  0.00  0.00    -0.084 HD
ATOM     25  H   UNL     1      -3.621   2.592   0.593  0.00  0.00    -0.084 HD
BRANCH  23  26
ATOM     26  C   UNL     1      -4.903   1.058  -0.079  0.00  0.00    -0.038 C 
BRANCH  26  27
ATOM     27  C   UNL     1      -5.273   0.493  -1.426  0.00  0.00    -0.061 A 
ATOM     28  C   UNL     1      -5.109   1.258  -2.565  0.00  0.00    +0.005 A 
ATOM     29  C   UNL     1      -5.443   0.738  -3.802  0.00  0.00    +0.038 A 
ATOM     30  C   UNL     1      -5.954  -0.545  -3.897  0.00  0.00    +0.123 A 
ATOM     31  C   UNL     1      -6.123  -1.308  -2.755  0.00  0.00    +0.038 A 
ATOM     32  C   UNL     1      -5.783  -0.789  -1.520  0.00  0.00    +0.005 A 
ATOM     33  F   UNL     1      -6.287  -1.052  -5.104  0.00  0.00    -0.205 F 
ENDBRANCH  26  27
BRANCH  26  35
ATOM     34  C   UNL     1      -5.712   2.441   1.838  0.00  0.00    +0.006 C 
ATOM     35  C   UNL     1      -6.023   1.976   0.414  0.00  0.00    -0.027 C 
ATOM     36  C   UNL     1      -6.128   3.193  -0.507  0.00  0.00    +0.006 C 
ENDBRANCH  26  35
ENDBRANCH  23  26
ENDBRANCH  22  23
ENDBRANCH   1  22
TORSDOF 9
