REMARK  Name = ZINC00151797
REMARK  7 active torsions:
REMARK  status: ('A' for Active; 'I' for Inactive)
REMARK    1  A    between atoms: C_1  and  C_2
REMARK    2  A    between atoms: C_5  and  N_9
REMARK    3  A    between atoms: C_6  and  C_8
REMARK    4  A    between atoms: N_9  and  N_10
REMARK    5  A    between atoms: C_11  and  C_13
REMARK    6  A    between atoms: C_14  and  C_24
REMARK    7  A    between atoms: C_17  and  C_18
REMARK                            x       y       z     vdW  Elec       q    Type
REMARK                         _______ _______ _______ _____ _____    ______ ____
ROOT
ATOM      1  N   UNL     1       0.002  -0.004   0.002  0.00  0.00    -0.232 N 
ATOM      2  C   UNL     1      -1.156  -0.694   0.009  0.00  0.00    +0.266 C 
ATOM      3  O   UNL     1      -2.217  -0.100   0.023  0.00  0.00    -0.268 OA
ATOM      4  H   UNL     1       0.849  -0.478  -0.009  0.00  0.00    +0.173 HD
ENDROOT
BRANCH   2   5
ATOM      5  C   UNL     1      -1.136  -2.166   0.001  0.00  0.00    +0.107 A 
ATOM      6  C   UNL     1      -1.108  -3.028   1.069  0.00  0.00    +0.147 A 
ATOM      7  O   UNL     1      -1.101  -4.263   0.562  0.00  0.00    -0.359 OA
ATOM      8  N   UNL     1      -1.113  -4.285  -0.644  0.00  0.00    -0.077 NA
ATOM      9  C   UNL     1      -1.134  -3.082  -1.159  0.00  0.00    +0.126 A 
ATOM     10  C   UNL     1      -1.091  -2.653   2.529  0.00  0.00    +0.090 C 
BRANCH   9  11
ATOM     11  C   UNL     1      -1.154  -2.716  -2.596  0.00  0.00    +0.004 A 
ATOM     12  C   UNL     1      -1.871  -1.600  -3.024  0.00  0.00    +0.010 A 
ATOM     13  C   UNL     1      -1.881  -1.260  -4.362  0.00  0.00    +0.001 A 
ATOM     14  C   UNL     1      -1.191  -2.033  -5.279  0.00  0.00    +0.000 A 
ATOM     15  C   UNL     1      -0.483  -3.145  -4.861  0.00  0.00    +0.001 A 
ATOM     16  C   UNL     1      -0.461  -3.490  -3.525  0.00  0.00    +0.010 A 
ENDBRANCH   9  11
ENDBRANCH   2   5
BRANCH   1  17
ATOM     17  N   UNL     1      -0.017   1.397   0.010  0.00  0.00    -0.264 N 
ATOM     18  H   UNL     1      -0.864   1.870   0.016  0.00  0.00    +0.170 HD
BRANCH  17  23
ATOM     19  C   UNL     1       4.855   4.299  -0.023  0.00  0.00    +0.044 C 
ATOM     20  C   UNL     1       3.560   3.527  -0.014  0.00  0.00    -0.050 A 
ATOM     21  C   UNL     1       3.581   2.145  -0.021  0.00  0.00    +0.005 A 
ATOM     22  C   UNL     1       2.396   1.435  -0.013  0.00  0.00    +0.025 A 
ATOM     23  C   UNL     1       1.183   2.111   0.002  0.00  0.00    +0.047 A 
ATOM     24  C   UNL     1       1.166   3.500   0.004  0.00  0.00    -0.028 A 
ATOM     25  C   UNL     1       2.354   4.204   0.001  0.00  0.00    +0.008 A 
ATOM     26  C   UNL     1      -0.148   4.239   0.015  0.00  0.00    +0.046 C 
ENDBRANCH  17  23
ENDBRANCH   1  17
TORSDOF 4
