REMARK  Name = ZINC16231380
REMARK  5 active torsions:
REMARK  status: ('A' for Active; 'I' for Inactive)
REMARK    1  A    between atoms: C_1  and  C_2
REMARK    2  A    between atoms: C_10  and  C_11
REMARK    3  A    between atoms: N_13  and  N_14
REMARK    4  A    between atoms: C_15  and  C_17
REMARK    5  A    between atoms: N_27  and  C_30
REMARK                            x       y       z     vdW  Elec       q    Type
REMARK                         _______ _______ _______ _____ _____    ______ ____
ROOT
ATOM      1  C   UNL     1      -1.231   3.403   0.456  0.00  0.00    +0.040 A 
ATOM      2  C   UNL     1      -0.070   3.988   0.970  0.00  0.00    +0.014 A 
ATOM      3  C   UNL     1       1.114   3.285   0.985  0.00  0.00    +0.016 A 
ATOM      4  C   UNL     1       1.152   1.985   0.485  0.00  0.00    +0.063 A 
ATOM      5  C   UNL     1      -0.012   1.392  -0.033  0.00  0.00    +0.056 A 
ATOM      6  C   UNL     1      -1.202   2.102  -0.040  0.00  0.00    +0.039 A 
ATOM      7  N   UNL     1       0.061   0.095  -0.524  0.00  0.00    -0.307 N 
ATOM      8  H   UNL     1      -0.735  -0.327  -0.884  0.00  0.00    +0.170 HD
ATOM      9  C   UNL     1       1.222  -0.581  -0.504  0.00  0.00    +0.334 A 
ATOM     10  O   UNL     1       1.243  -1.715  -0.943  0.00  0.00    -0.246 OA
ATOM     11  N   UNL     1       2.360  -0.059  -0.020  0.00  0.00    -0.229 N 
ATOM     12  C   UNL     1       2.398   1.195   0.481  0.00  0.00    +0.269 A 
ATOM     13  O   UNL     1       3.433   1.660   0.918  0.00  0.00    -0.266 OA
ENDROOT
BRANCH  11  14
ATOM     14  C   UNL     1       3.530  -0.829  -0.035  0.00  0.00    +0.054 A 
ATOM     15  C   UNL     1       3.845  -1.637   1.050  0.00  0.00    +0.026 A 
ATOM     16  C   UNL     1       4.997  -2.399   1.030  0.00  0.00    +0.002 A 
ATOM     17  C   UNL     1       5.842  -2.349  -0.064  0.00  0.00    +0.000 A 
ATOM     18  C   UNL     1       5.534  -1.542  -1.143  0.00  0.00    +0.002 A 
ATOM     19  C   UNL     1       4.380  -0.782  -1.132  0.00  0.00    +0.026 A 
ENDBRANCH  11  14
BRANCH   1  21
ATOM     20  N   UNL     1      -2.532   5.425   0.929  0.00  0.00    -0.230 N 
ATOM     21  C   UNL     1      -2.499   4.168   0.445  0.00  0.00    +0.260 C 
ATOM     22  O   UNL     1      -3.510   3.661  -0.001  0.00  0.00    -0.269 OA
ATOM     23  H   UNL     1      -1.725   5.829   1.285  0.00  0.00    +0.173 HD
BRANCH  20  26
ATOM     24  C   UNL     1      -3.764   7.406   1.403  0.00  0.00    +0.296 C 
ATOM     25  O   UNL     1      -2.752   7.913   1.849  0.00  0.00    -0.265 OA
ATOM     26  N   UNL     1      -3.731   6.149   0.919  0.00  0.00    -0.228 N 
ATOM     27  H   UNL     1      -4.538   5.745   0.563  0.00  0.00    +0.173 HD
BRANCH  24  37
ATOM     28  C   UNL     1      -4.112  10.307   2.467  0.00  0.00    +0.048 C 
ATOM     29  C   UNL     1      -5.175   9.432   1.856  0.00  0.00    +0.008 A 
ATOM     30  C   UNL     1      -6.580   9.776   1.640  0.00  0.00    +0.024 A 
ATOM     31  C   UNL     1      -7.355  10.910   1.895  0.00  0.00    +0.012 A 
ATOM     32  C   UNL     1      -8.682  10.911   1.570  0.00  0.00    +0.001 A 
ATOM     33  C   UNL     1      -9.264   9.792   0.990  0.00  0.00    +0.004 A 
ATOM     34  C   UNL     1      -8.518   8.663   0.731  0.00  0.00    +0.047 A 
ATOM     35  C   UNL     1      -7.165   8.639   1.053  0.00  0.00    +0.136 A 
ATOM     36  O   UNL     1      -6.202   7.706   0.923  0.00  0.00    -0.450 OA
ATOM     37  C   UNL     1      -5.023   8.165   1.391  0.00  0.00    +0.195 A 
ENDBRANCH  24  37
ENDBRANCH  20  26
ENDBRANCH   1  21
TORSDOF 4
