REMARK  Name = ZINC08767133
REMARK  11 active torsions:
REMARK  status: ('A' for Active; 'I' for Inactive)
REMARK    1  A    between atoms: C_1  and  C_2
REMARK    2  A    between atoms: C_2  and  O_3
REMARK    3  A    between atoms: O_3  and  C_4
REMARK    4  A    between atoms: C_4  and  C_6
REMARK    5  A    between atoms: C_7  and  C_37
REMARK    6  A    between atoms: C_14  and  C_15
REMARK    7  A    between atoms: C_18  and  N_20
REMARK    8  A    between atoms: C_25  and  N_74
REMARK    9  A    between atoms: C_27  and  C_29
REMARK   10  A    between atoms: C_32  and  S_35
REMARK   11  A    between atoms: S_35  and  C_36
REMARK                            x       y       z     vdW  Elec       q    Type
REMARK                         _______ _______ _______ _____ _____    ______ ____
ROOT
ATOM      1  C   UNL     1       1.883  -0.708  -5.631  0.00  0.00    +0.090 C 
ATOM      2  C   UNL     1       2.098  -0.550  -6.996  0.00  0.00    +0.086 C 
ATOM      3  N   UNL     1       3.336  -0.359  -7.461  0.00  0.00    -0.222 NA
ATOM      4  C   UNL     1       4.408  -0.306  -6.718  0.00  0.00    +0.178 A 
ATOM      5  N   UNL     1       4.415  -0.439  -5.348  0.00  0.00    -0.275 N 
ATOM      6  C   UNL     1       5.590  -0.362  -4.713  0.00  0.00    +0.268 A 
ATOM      7  O   UNL     1       5.642  -0.473  -3.500  0.00  0.00    -0.266 OA
ATOM      8  C   UNL     1       6.774  -0.150  -5.460  0.00  0.00    +0.084 A 
ATOM      9  C   UNL     1       8.077  -0.040  -5.022  0.00  0.00    +0.067 C 
ATOM     10  S   UNL     1       6.128  -0.065  -7.121  0.00  0.00    -0.046 S 
ATOM     11  C   UNL     1       3.085  -0.656  -4.715  0.00  0.00    +0.162 C 
ENDROOT
BRANCH  11  12
ATOM     12  C   UNL     1       2.860   0.451  -3.718  0.00  0.00    -0.020 A 
ATOM     13  C   UNL     1       2.342   0.160  -2.469  0.00  0.00    +0.007 A 
ATOM     14  C   UNL     1       2.134   1.173  -1.553  0.00  0.00    +0.015 A 
ATOM     15  C   UNL     1       2.446   2.485  -1.887  0.00  0.00    +0.008 A 
ATOM     16  C   UNL     1       2.961   2.774  -3.145  0.00  0.00    +0.015 A 
ATOM     17  C   UNL     1       3.171   1.756  -4.054  0.00  0.00    +0.007 A 
BRANCH  15  18
ATOM     18  S   UNL     1       2.183   3.780  -0.722  0.00  0.00    -0.129 S 
ATOM     19  C   UNL     1       2.726   5.274  -1.596  0.00  0.00    +0.090 C 
ENDBRANCH  15  18
ENDBRANCH  11  12
BRANCH   2  20
ATOM     20  C   UNL     1       0.954  -0.592  -7.934  0.00  0.00    +0.001 A 
ATOM     21  C   UNL     1       0.177  -1.746  -8.040  0.00  0.00    +0.010 A 
ATOM     22  C   UNL     1      -0.890  -1.779  -8.914  0.00  0.00    +0.001 A 
ATOM     23  C   UNL     1      -1.185  -0.672  -9.691  0.00  0.00    +0.000 A 
ATOM     24  C   UNL     1      -0.416   0.473  -9.594  0.00  0.00    +0.001 A 
ATOM     25  C   UNL     1       0.651   0.519  -8.721  0.00  0.00    +0.010 A 
ENDBRANCH   2  20
BRANCH   9  26
ATOM     26  C   UNL     1       8.412  -0.419  -3.710  0.00  0.00    +0.131 A 
ATOM     27  C   UNL     1       9.690  -0.460  -3.175  0.00  0.00    +0.051 A 
ATOM     28  C   UNL     1       9.556  -0.886  -1.852  0.00  0.00    +0.066 A 
ATOM     29  C   UNL     1       8.225  -1.096  -1.627  0.00  0.00    +0.189 A 
ATOM     30  O   UNL     1       7.546  -0.813  -2.750  0.00  0.00    -0.442 OA
BRANCH  29  31
ATOM     31  N   UNL     1       7.670  -1.530  -0.441  0.00  0.00    -0.305 N 
ATOM     32  C   UNL     1       8.266  -2.804  -0.015  0.00  0.00    +0.089 C 
ATOM     33  C   UNL     1       7.682  -3.209   1.341  0.00  0.00    -0.060 C 
ATOM     34  C   UNL     1       5.626  -2.052   0.801  0.00  0.00    -0.060 C 
ATOM     35  C   UNL     1       6.209  -1.647  -0.554  0.00  0.00    +0.089 C 
ATOM     36  C   UNL     1       5.630  -3.788   2.490  0.00  0.00    -0.096 C 
ATOM     37  N   UNL     1       6.216  -3.345   1.207  0.00  0.00    +0.380 N 
ATOM     38  H   UNL     1       6.011  -4.047   0.486  0.00  0.00    -0.082 HD
ENDBRANCH  29  31
ENDBRANCH   9  26
BRANCH   1  39
ATOM     39  C   UNL     1       0.595  -0.908  -5.122  0.00  0.00    +0.340 C 
ATOM     40  O   UNL     1      -0.371  -0.827  -5.859  0.00  0.00    -0.245 OA
BRANCH  39  41
ATOM     41  O   UNL     1       0.423  -1.192  -3.811  0.00  0.00    -0.462 OA
BRANCH  41  43
ATOM     42  C   UNL     1      -0.913  -1.694  -1.862  0.00  0.00    +0.048 C 
ATOM     43  C   UNL     1      -0.919  -1.384  -3.360  0.00  0.00    +0.229 C 
ENDBRANCH  41  43
ENDBRANCH  39  41
ENDBRANCH   1  39
TORSDOF 8
