REMARK  Name = ZINC04846744
REMARK  7 active torsions:
REMARK  status: ('A' for Active; 'I' for Inactive)
REMARK    1  A    between atoms: C_1  and  C_2
REMARK    2  A    between atoms: C_3  and  C_11
REMARK    3  A    between atoms: C_7  and  N_8
REMARK    4  A    between atoms: C_11  and  O_13
REMARK    5  A    between atoms: O_13  and  C_14
REMARK    6  A    between atoms: C_14  and  C_15
REMARK    7  A    between atoms: N_17  and  C_18
REMARK                            x       y       z     vdW  Elec       q    Type
REMARK                         _______ _______ _______ _____ _____    ______ ____
ROOT
ATOM      1  C   UNL     1      -0.165   5.567   0.717  0.00  0.00    +0.328 C 
ENDROOT
BRANCH   1   2
ATOM      2  C   UNL     1      -1.576   6.038   0.961  0.00  0.00    +0.251 C 
ATOM      3  O   UNL     1      -2.485   5.237   0.998  0.00  0.00    -0.272 OA
ATOM      4  N   UNL     1      -1.826   7.351   1.140  0.00  0.00    -0.307 N 
ATOM      5  H   UNL     1      -1.098   7.992   1.111  0.00  0.00    +0.149 HD
BRANCH   4   6
ATOM      6  C   UNL     1      -3.197   7.809   1.378  0.00  0.00    +0.035 C 
ATOM      7  C   UNL     1      -4.077   7.423   0.187  0.00  0.00    +0.029 C 
ATOM      8  C   UNL     1      -5.509   7.902   0.436  0.00  0.00    -0.008 C 
ATOM      9  C   UNL     1      -5.516   9.423   0.604  0.00  0.00    +0.007 C 
ATOM     10  C   UNL     1      -4.636   9.809   1.794  0.00  0.00    -0.008 C 
ATOM     11  C   UNL     1      -3.204   9.330   1.546  0.00  0.00    +0.029 C 
ATOM     12  C   UNL     1      -5.180   9.152   3.065  0.00  0.00    +0.007 C 
ATOM     13  C   UNL     1      -5.173   7.632   2.897  0.00  0.00    -0.008 C 
ATOM     14  C   UNL     1      -6.053   7.246   1.706  0.00  0.00    +0.007 C 
ATOM     15  C   UNL     1      -3.741   7.153   2.648  0.00  0.00    +0.029 C 
ENDBRANCH   4   6
ENDBRANCH   1   2
BRANCH   1  16
ATOM     16  O   UNL     1      -0.159   4.124   0.557  0.00  0.00    -0.452 OA
BRANCH  16  17
ATOM     17  C   UNL     1       1.034   3.539   0.330  0.00  0.00    +0.340 C 
ATOM     18  O   UNL     1       2.040   4.216   0.266  0.00  0.00    -0.245 OA
BRANCH  17  21
ATOM     19  C   UNL     1       3.626   2.269   0.120  0.00  0.00    +0.047 C 
ATOM     20  C   UNL     1       2.362   1.450   0.055  0.00  0.00    -0.006 A 
ATOM     21  C   UNL     1       1.117   2.074   0.157  0.00  0.00    +0.064 A 
ATOM     22  C   UNL     1      -0.048   1.308   0.096  0.00  0.00    +0.015 A 
ATOM     23  C   UNL     1       0.037  -0.060  -0.066  0.00  0.00    +0.003 A 
ATOM     24  C   UNL     1       1.274  -0.672  -0.167  0.00  0.00    +0.033 A 
ATOM     25  C   UNL     1       2.433   0.082  -0.107  0.00  0.00    +0.130 A 
BRANCH  25  26
ATOM     26  N   UNL     1       3.752  -0.581  -0.216  0.00  0.00    +0.057 N 
ATOM     27  O   UNL     1       3.822  -1.797  -0.235  0.00  0.00    -0.126 OA
ATOM     28  O   UNL     1       4.766   0.089  -0.286  0.00  0.00    -0.126 OA
ENDBRANCH  25  26
ENDBRANCH  17  21
ENDBRANCH  16  17
ENDBRANCH   1  16
TORSDOF 6
