REMARK  Name = ZINC19960625
REMARK  6 active torsions:
REMARK  status: ('A' for Active; 'I' for Inactive)
REMARK    1  A    between atoms: C_1  and  C_2
REMARK    2  A    between atoms: C_2  and  C_3
REMARK    3  A    between atoms: C_2  and  C_4
REMARK    4  A    between atoms: C_4  and  N_5
REMARK    5  A    between atoms: C_8  and  C_16
REMARK    6  A    between atoms: C_16  and  C_18
REMARK                            x       y       z     vdW  Elec       q    Type
REMARK                         _______ _______ _______ _____ _____    ______ ____
ROOT
ATOM      1  N   UNL     1       1.252  -2.073  -0.006  0.00  0.00    -0.265 N 
ATOM      2  C   UNL     1       1.210  -0.671  -0.007  0.00  0.00    +0.079 A 
ATOM      3  C   UNL     1       0.002  -0.004   0.010  0.00  0.00    +0.038 A 
ATOM      4  C   UNL     1      -0.017   1.397   0.008  0.00  0.00    +0.019 A 
ATOM      5  C   UNL     1       1.188   2.110  -0.011  0.00  0.00    +0.015 A 
ATOM      6  C   UNL     1       2.389   1.436  -0.028  0.00  0.00    +0.048 A 
ATOM      7  C   UNL     1       2.409   0.048  -0.026  0.00  0.00    +0.143 A 
ATOM      8  O   UNL     1       3.589  -0.624  -0.041  0.00  0.00    -0.481 OA
ATOM      9  C   UNL     1       3.627  -1.872   0.655  0.00  0.00    +0.325 C 
ATOM     10  C   UNL     1       2.415  -2.692   0.293  0.00  0.00    +0.258 C 
ATOM     11  O   UNL     1       2.483  -3.903   0.272  0.00  0.00    -0.272 OA
ENDROOT
BRANCH   4  12
ATOM     12  C   UNL     1      -1.298   2.115   0.020  0.00  0.00    +0.160 C 
ATOM     13  O   UNL     1      -1.314   3.324   0.119  0.00  0.00    -0.292 OA
ATOM     14  C   UNL     1      -2.592   1.351  -0.092  0.00  0.00    +0.091 C 
ENDBRANCH   4  12
BRANCH   1  15
ATOM     15  C   UNL     1       0.054  -2.853  -0.325  0.00  0.00    +0.117 C 
BRANCH  15  17
ATOM     16  C   UNL     1       1.181  -4.001  -2.236  0.00  0.00    +0.009 C 
ATOM     17  C   UNL     1       0.002  -3.115  -1.831  0.00  0.00    +0.001 C 
ATOM     18  C   UNL     1      -1.310  -3.821  -2.180  0.00  0.00    +0.009 C 
ENDBRANCH  15  17
ENDBRANCH   1  15
TORSDOF 3
