REMARK  Name = ZINC62561790
REMARK  5 active torsions:
REMARK  status: ('A' for Active; 'I' for Inactive)
REMARK    1  A    between atoms: C_1  and  C_2
REMARK    2  A    between atoms: C_2  and  C_3
REMARK    3  A    between atoms: C_10  and  C_15
REMARK    4  A    between atoms: C_15  and  C_16
REMARK    5  A    between atoms: C_15  and  C_17
REMARK                            x       y       z     vdW  Elec       q    Type
REMARK                         _______ _______ _______ _____ _____    ______ ____
ROOT
ATOM      1  C   UNL     1      -0.806  -0.328  -0.266  0.00  0.00    -0.003 A 
ATOM      2  C   UNL     1      -1.308  -0.594   0.995  0.00  0.00    +0.022 A 
ATOM      3  C   UNL     1      -2.591  -1.088   1.144  0.00  0.00    +0.020 A 
ATOM      4  C   UNL     1      -3.382  -1.318   0.032  0.00  0.00    +0.042 A 
ATOM      5  C   UNL     1      -2.884  -1.053  -1.233  0.00  0.00    +0.077 A 
ATOM      6  C   UNL     1      -1.592  -0.550  -1.382  0.00  0.00    +0.146 A 
ATOM      7  O   UNL     1      -1.117  -0.285  -2.629  0.00  0.00    -0.477 OA
ATOM      8  C   UNL     1      -2.069   0.163  -3.598  0.00  0.00    +0.261 C 
ATOM      9  C   UNL     1      -3.296  -0.712  -3.545  0.00  0.00    +0.258 C 
ATOM     10  O   UNL     1      -3.943  -0.914  -4.551  0.00  0.00    -0.271 OA
ATOM     11  N   UNL     1      -3.668  -1.279  -2.373  0.00  0.00    -0.279 N 
ATOM     12 BR   UNL     1      -3.268  -1.449   2.873  0.00  0.00    -0.050 Br
ATOM     13  H   UNL     1      -4.468  -1.824  -2.321  0.00  0.00    +0.155 HD
ENDROOT
BRANCH   8  14
ATOM     14  C   UNL     1      -2.462   1.610  -3.294  0.00  0.00    +0.033 C 
ATOM     15  C   UNL     1      -1.203   2.476  -3.223  0.00  0.00    +0.011 C 
ATOM     16  C   UNL     1      -3.379   2.132  -4.402  0.00  0.00    +0.011 C 
ENDBRANCH   8  14
BRANCH   1  18
ATOM     17  C   UNL     1       1.558  -0.950  -0.687  0.00  0.00    +0.009 C 
ATOM     18  C   UNL     1       0.594   0.209  -0.423  0.00  0.00    +0.035 C 
ENDBRANCH   1  18
TORSDOF 2
