REMARK  Name = ZINC33862922
REMARK  5 active torsions:
REMARK  status: ('A' for Active; 'I' for Inactive)
REMARK    1  A    between atoms: C_3  and  N_20
REMARK    2  A    between atoms: C_6  and  C_7
REMARK    3  A    between atoms: C_9  and  C_12
REMARK    4  A    between atoms: N_14  and  C_15
REMARK    5  A    between atoms: C_15  and  C_16
REMARK                            x       y       z     vdW  Elec       q    Type
REMARK                         _______ _______ _______ _____ _____    ______ ____
ROOT
ATOM      1  C   UNL     1      -1.266  -0.762   0.011  0.00  0.00    +0.228 A 
ATOM      2  N   UNL     1      -1.373  -2.067   0.010  0.00  0.00    -0.204 NA
ATOM      3  C   UNL     1      -2.692  -2.390   0.020  0.00  0.00    +0.164 A 
ATOM      4  C   UNL     1      -3.394  -1.223   0.027  0.00  0.00    +0.230 A 
ATOM      5  O   UNL     1      -2.498  -0.222   0.026  0.00  0.00    -0.443 OA
ENDROOT
BRANCH   1  11
ATOM      6  C   UNL     1      -0.017   1.392   0.010  0.00  0.00    +0.015 A 
ATOM      7  C   UNL     1       1.167   2.096   0.002  0.00  0.00    +0.023 A 
ATOM      8  C   UNL     1       2.381   1.417  -0.013  0.00  0.00    +0.025 A 
ATOM      9  C   UNL     1       2.403   0.026  -0.021  0.00  0.00    +0.023 A 
ATOM     10  C   UNL     1       1.222  -0.683  -0.014  0.00  0.00    +0.015 A 
ATOM     11  C   UNL     1       0.002  -0.004   0.002  0.00  0.00    +0.037 A 
BRANCH   8  12
ATOM     12  N   UNL     1       3.578   2.132  -0.022  0.00  0.00    -0.358 N 
ATOM     13  H   UNL     1       3.564   3.102  -0.017  0.00  0.00    +0.142 HD
ATOM     14  H   UNL     1       4.425   1.659  -0.033  0.00  0.00    +0.142 HD
ENDBRANCH   8  12
ENDBRANCH   1  11
BRANCH   3  15
ATOM     15  C   UNL     1      -3.259  -3.751   0.022  0.00  0.00    +0.266 C 
ATOM     16  O   UNL     1      -4.465  -3.907   0.031  0.00  0.00    -0.268 OA
ATOM     17  N   UNL     1      -2.441  -4.822   0.015  0.00  0.00    -0.301 N 
ATOM     18  H   UNL     1      -1.479  -4.697   0.008  0.00  0.00    +0.149 HD
BRANCH  17  19
ATOM     19  C   UNL     1      -3.004  -6.174   0.017  0.00  0.00    +0.217 C 
BRANCH  19  20
ATOM     20  C   UNL     1      -1.868  -7.200   0.007  0.00  0.00    +0.405 C 
ATOM     21  F   UNL     1      -1.072  -7.024   1.144  0.00  0.00    -0.169 F 
ATOM     22  F   UNL     1      -2.406  -8.491   0.009  0.00  0.00    -0.169 F 
ATOM     23  F   UNL     1      -1.089  -7.021  -1.141  0.00  0.00    -0.169 F 
ENDBRANCH  19  20
ENDBRANCH  17  19
ENDBRANCH   3  15
TORSDOF 5
