REMARK  Name = ZINC08834245
REMARK  9 active torsions:
REMARK  status: ('A' for Active; 'I' for Inactive)
REMARK    1  A    between atoms: C_1  and  C_2
REMARK    2  A    between atoms: C_2  and  C_3
REMARK    3  A    between atoms: C_6  and  S_9
REMARK    4  A    between atoms: S_9  and  N_12
REMARK    5  A    between atoms: N_14  and  C_31
REMARK    6  A    between atoms: C_17  and  C_20
REMARK    7  A    between atoms: C_20  and  C_21
REMARK    8  A    between atoms: N_23  and  C_24
REMARK    9  A    between atoms: C_29  and  C_30
REMARK                            x       y       z     vdW  Elec       q    Type
REMARK                         _______ _______ _______ _____ _____    ______ ____
ROOT
ATOM      1  N   UNL     1       4.283  -0.940  -5.508  0.00  0.00    -0.105 NA
ATOM      2  C   UNL     1       4.518  -0.957  -6.789  0.00  0.00    +0.189 C 
ATOM      3  N   UNL     1       4.420  -2.027  -7.661  0.00  0.00    -0.217 N 
ATOM      4  C   UNL     1       4.688  -1.914  -8.951  0.00  0.00    +0.239 C 
ATOM      5  O   UNL     1       4.600  -2.855  -9.711  0.00  0.00    -0.274 OA
ATOM      6  C   UNL     1       5.112  -0.533  -9.422  0.00  0.00    +0.149 C 
ATOM      7  S   UNL     1       5.035   0.396  -7.835  0.00  0.00    -0.075 S 
ENDROOT
BRANCH   3   8
ATOM      8  C   UNL     1       4.024  -3.274  -7.159  0.00  0.00    +0.043 A 
ATOM      9  C   UNL     1       2.681  -3.627  -7.154  0.00  0.00    +0.024 A 
ATOM     10  C   UNL     1       2.293  -4.856  -6.659  0.00  0.00    +0.002 A 
ATOM     11  C   UNL     1       3.241  -5.736  -6.168  0.00  0.00    +0.000 A 
ATOM     12  C   UNL     1       4.579  -5.387  -6.171  0.00  0.00    +0.002 A 
ATOM     13  C   UNL     1       4.973  -4.161  -6.671  0.00  0.00    +0.024 A 
ENDBRANCH   3   8
BRANCH   1  14
ATOM     14  S   UNL     1       4.395  -2.337  -4.626  0.00  0.00    +0.101 S 
ATOM     15  O   UNL     1       5.726  -2.810  -4.783  0.00  0.00    -0.146 OA
ATOM     16  O   UNL     1       3.262  -3.123  -4.966  0.00  0.00    -0.146 OA
BRANCH  14  20
ATOM     17  C   UNL     1       3.928  -1.212  -0.267  0.00  0.00    -0.048 A 
ATOM     18  C   UNL     1       2.815  -1.533  -1.021  0.00  0.00    +0.005 A 
ATOM     19  C   UNL     1       2.957  -1.877  -2.352  0.00  0.00    +0.029 A 
ATOM     20  C   UNL     1       4.213  -1.898  -2.929  0.00  0.00    +0.113 A 
ATOM     21  C   UNL     1       5.326  -1.575  -2.176  0.00  0.00    +0.029 A 
ATOM     22  C   UNL     1       5.183  -1.228  -0.845  0.00  0.00    +0.005 A 
BRANCH  17  24
ATOM     23  C   UNL     1       3.565   0.674   1.302  0.00  0.00    +0.009 C 
ATOM     24  C   UNL     1       3.772  -0.837   1.185  0.00  0.00    +0.032 C 
ENDBRANCH  17  24
ENDBRANCH  14  20
ENDBRANCH   1  14
BRANCH   6  25
ATOM     25  C   UNL     1       6.532  -0.553  -9.991  0.00  0.00    +0.120 C 
BRANCH  25  26
ATOM     26  C   UNL     1       6.866   0.803 -10.557  0.00  0.00    +0.219 C 
ATOM     27  O   UNL     1       6.048   1.698 -10.510  0.00  0.00    -0.275 OA
ATOM     28  N   UNL     1       8.073   1.022 -11.115  0.00  0.00    -0.285 N 
ATOM     29  H   UNL     1       8.762   0.342 -11.062  0.00  0.00    +0.155 HD
BRANCH  28  30
ATOM     30  C   UNL     1       8.331   2.230 -11.771  0.00  0.00    +0.036 A 
ATOM     31  C   UNL     1       7.282   2.984 -12.282  0.00  0.00    +0.023 A 
ATOM     32  C   UNL     1       7.540   4.176 -12.929  0.00  0.00    +0.002 A 
ATOM     33  C   UNL     1       8.843   4.620 -13.070  0.00  0.00    +0.000 A 
ATOM     34  C   UNL     1       9.890   3.872 -12.564  0.00  0.00    +0.005 A 
ATOM     35  C   UNL     1       9.637   2.682 -11.909  0.00  0.00    -0.029 A 
ATOM     36  C   UNL     1      10.778   1.871 -11.351  0.00  0.00    +0.045 C 
ENDBRANCH  28  30
ENDBRANCH  25  26
ENDBRANCH   6  25
TORSDOF 7
