REMARK  Name = ZINC20834077
REMARK  7 active torsions:
REMARK  status: ('A' for Active; 'I' for Inactive)
REMARK    1  A    between atoms: C_4  and  C_7
REMARK    2  A    between atoms: C_8  and  C_9
REMARK    3  A    between atoms: N_10  and  N_11
REMARK    4  A    between atoms: C_14  and  S_17
REMARK    5  A    between atoms: S_17  and  C_18
REMARK    6  A    between atoms: C_18  and  C_19
REMARK    7  A    between atoms: N_21  and  C_22
REMARK                            x       y       z     vdW  Elec       q    Type
REMARK                         _______ _______ _______ _____ _____    ______ ____
ROOT
ATOM      1  N   UNL     1       9.814   1.731   1.864  0.00  0.00    -0.205 N 
ATOM      2  C   UNL     1       8.460   1.713   1.563  0.00  0.00    +0.232 A 
ATOM      3  N   UNL     1       7.549   0.770   1.963  0.00  0.00    -0.186 NA
ATOM      4  C   UNL     1       6.351   1.165   1.430  0.00  0.00    +0.211 A 
ATOM      5  N   UNL     1       6.572   2.269   0.759  0.00  0.00    -0.144 NA
ATOM      6  N   UNL     1       7.812   2.594   0.842  0.00  0.00    -0.245 N 
ATOM      7  H   UNL     1      10.251   0.932   2.482  0.00  0.00    +0.177 HD
ATOM      8  H   UNL     1       8.347   3.455   0.414  0.00  0.00    +0.192 HD
ENDROOT
BRANCH   1  10
ATOM      9  C   UNL     1      11.898   2.783   1.664  0.00  0.00    +0.130 C 
ATOM     10  N   UNL     1      10.626   2.766   1.381  0.00  0.00    -0.188 NA
BRANCH   9  12
ATOM     11  C   UNL     1      14.036   3.847   1.470  0.00  0.00    +0.009 C 
ATOM     12  C   UNL     1      12.719   3.829   1.176  0.00  0.00    +0.022 C 
BRANCH  11  16
ATOM     13  C   UNL     1      16.493   6.980   0.007  0.00  0.00    +0.000 A 
ATOM     14  C   UNL     1      17.046   5.978   0.785  0.00  0.00    +0.001 A 
ATOM     15  C   UNL     1      16.254   4.956   1.264  0.00  0.00    +0.008 A 
ATOM     16  C   UNL     1      14.888   4.934   0.963  0.00  0.00    -0.025 A 
ATOM     17  C   UNL     1      14.338   5.948   0.172  0.00  0.00    +0.008 A 
ATOM     18  C   UNL     1      15.143   6.966  -0.296  0.00  0.00    +0.001 A 
ENDBRANCH  11  16
ENDBRANCH   9  12
ENDBRANCH   1  10
BRANCH   4  19
ATOM     19  S   UNL     1       4.804   0.339   1.606  0.00  0.00    -0.075 S 
BRANCH  19  20
ATOM     20  C   UNL     1       3.745   1.447   0.644  0.00  0.00    +0.173 C 
BRANCH  20  21
ATOM     21  C   UNL     1       2.331   0.926   0.654  0.00  0.00    +0.224 C 
ATOM     22  O   UNL     1       2.066  -0.095   1.254  0.00  0.00    -0.275 OA
ATOM     23  N   UNL     1       1.362   1.593  -0.002  0.00  0.00    -0.312 N 
ATOM     24  H   UNL     1       1.602   2.518  -0.546  0.00  0.00    +0.149 HD
BRANCH  23  25
ATOM     25  C   UNL     1      -0.013   1.086   0.008  0.00  0.00    +0.073 C 
ATOM     26  C   UNL     1      -0.729   1.579   1.267  0.00  0.00    +0.022 C 
ATOM     27  C   UNL     1      -2.164   1.050   1.278  0.00  0.00    +0.002 C 
ATOM     28  C   UNL     1      -2.904   1.556   0.038  0.00  0.00    +0.000 C 
ATOM     29  C   UNL     1      -2.188   1.063  -1.221  0.00  0.00    +0.002 C 
ATOM     30  C   UNL     1      -0.753   1.593  -1.232  0.00  0.00    +0.022 C 
ENDBRANCH  23  25
ENDBRANCH  20  21
ENDBRANCH  19  20
ENDBRANCH   4  19
TORSDOF 7
