REMARK  Name = ZINC34759009
REMARK  8 active torsions:
REMARK  status: ('A' for Active; 'I' for Inactive)
REMARK    1  A    between atoms: C_1  and  C_2
REMARK    2  A    between atoms: C_5  and  C_11
REMARK    3  A    between atoms: C_7  and  N_8
REMARK    4  A    between atoms: C_18  and  O_29
REMARK    5  A    between atoms: C_25  and  C_28
REMARK    6  A    between atoms: O_29  and  C_30
REMARK    7  A    between atoms: C_33  and  O_36
REMARK    8  A    between atoms: O_36  and  C_37
REMARK                            x       y       z     vdW  Elec       q    Type
REMARK                         _______ _______ _______ _____ _____    ______ ____
ROOT
ATOM      1  C   UNL     1       0.064  -4.446   0.194  0.00  0.00    +0.247 C 
ATOM      2  O   UNL     1       0.214  -5.053   1.236  0.00  0.00    -0.270 OA
ATOM      3  N   UNL     1       0.159  -5.094  -0.984  0.00  0.00    -0.293 N 
ATOM      4  C   UNL     1       0.556  -6.511  -1.048  0.00  0.00    +0.114 C 
ATOM      5  C   UNL     1      -0.622  -7.307  -1.608  0.00  0.00    +0.075 C 
ATOM      6  C   UNL     1      -1.185  -6.638  -2.832  0.00  0.00    +0.056 A 
ATOM      7  C   UNL     1      -0.972  -5.311  -3.122  0.00  0.00    +0.053 A 
ATOM      8  C   UNL     1      -1.550  -4.775  -4.276  0.00  0.00    +0.230 A 
ATOM      9  N   UNL     1      -2.279  -5.559  -5.060  0.00  0.00    -0.179 NA
ATOM     10  C   UNL     1      -2.456  -6.835  -4.753  0.00  0.00    +0.221 A 
ATOM     11  N   UNL     1      -1.924  -7.366  -3.665  0.00  0.00    -0.219 NA
ATOM     12  N   UNL     1      -3.215  -7.632  -5.592  0.00  0.00    -0.300 N 
ATOM     13  C   UNL     1      -3.493  -9.032  -5.245  0.00  0.00    +0.108 C 
ATOM     14  C   UNL     1      -5.007  -9.261  -5.292  0.00  0.00    +0.022 C 
ATOM     15  C   UNL     1      -5.541  -8.835  -6.662  0.00  0.00    -0.011 C 
ATOM     16  C   UNL     1      -5.271  -7.344  -6.875  0.00  0.00    +0.022 C 
ATOM     17  C   UNL     1      -3.765  -7.092  -6.843  0.00  0.00    +0.108 C 
ATOM     18  C   UNL     1      -7.047  -9.094  -6.725  0.00  0.00    +0.007 C 
ATOM     19  C   UNL     1      -0.134  -4.418  -2.253  0.00  0.00    +0.150 C 
ENDROOT
BRANCH   1  24
ATOM     20  C   UNL     1      -1.057   1.198   0.286  0.00  0.00    +0.046 C 
ATOM     21  C   UNL     1      -0.763  -0.280   0.262  0.00  0.00    -0.020 A 
ATOM     22  C   UNL     1      -0.101  -0.833  -0.820  0.00  0.00    +0.006 A 
ATOM     23  C   UNL     1       0.171  -2.185  -0.848  0.00  0.00    +0.013 A 
ATOM     24  C   UNL     1      -0.224  -2.996   0.218  0.00  0.00    +0.039 A 
ATOM     25  C   UNL     1      -0.890  -2.431   1.306  0.00  0.00    +0.046 A 
ATOM     26  C   UNL     1      -1.151  -1.077   1.325  0.00  0.00    +0.130 A 
BRANCH  26  27
ATOM     27  N   UNL     1      -1.853  -0.475   2.481  0.00  0.00    +0.057 N 
ATOM     28  O   UNL     1      -1.605   0.660   2.815  0.00  0.00    -0.126 OA
ATOM     29  O   UNL     1      -2.675  -1.119   3.091  0.00  0.00    -0.126 OA
ENDBRANCH  26  27
ENDBRANCH   1  24
BRANCH   8  30
ATOM     30  O   UNL     1      -1.369  -3.469  -4.589  0.00  0.00    -0.438 OA
BRANCH  30  31
ATOM     31  C   UNL     1      -2.043  -2.971  -5.660  0.00  0.00    +0.131 A 
ATOM     32  C   UNL     1      -3.123  -3.665  -6.185  0.00  0.00    +0.050 A 
ATOM     33  C   UNL     1      -3.807  -3.159  -7.273  0.00  0.00    +0.049 A 
ATOM     34  C   UNL     1      -3.413  -1.956  -7.841  0.00  0.00    +0.120 A 
ATOM     35  C   UNL     1      -2.333  -1.262  -7.317  0.00  0.00    +0.049 A 
ATOM     36  C   UNL     1      -1.653  -1.765  -6.225  0.00  0.00    +0.050 A 
BRANCH  34  37
ATOM     37  O   UNL     1      -4.087  -1.458  -8.912  0.00  0.00    -0.495 OA
ATOM     38  C   UNL     1      -3.627  -0.215  -9.446  0.00  0.00    +0.277 C 
ENDBRANCH  34  37
ENDBRANCH  30  31
ENDBRANCH   8  30
TORSDOF 5
