REMARK  Name = ZINC36251911
REMARK  6 active torsions:
REMARK  status: ('A' for Active; 'I' for Inactive)
REMARK    1  A    between atoms: C_1  and  C_2
REMARK    2  A    between atoms: C_4  and  O_10
REMARK    3  A    between atoms: C_6  and  C_9
REMARK    4  A    between atoms: O_10  and  C_11
REMARK    5  A    between atoms: C_14  and  N_18
REMARK    6  A    between atoms: C_15  and  C_17
REMARK                            x       y       z     vdW  Elec       q    Type
REMARK                         _______ _______ _______ _____ _____    ______ ____
ROOT
ATOM      1  O   UNL     1       0.028  -2.749  -2.385  0.00  0.00    -0.438 OA
ENDROOT
BRANCH   1   5
ATOM      2  C   UNL     1      -0.521   1.447   0.046  0.00  0.00    +0.045 C 
ATOM      3  C   UNL     1      -0.238  -0.033   0.020  0.00  0.00    -0.028 A 
ATOM      4  C   UNL     1      -0.236  -0.715  -1.181  0.00  0.00    +0.051 A 
ATOM      5  C   UNL     1       0.026  -2.077  -1.204  0.00  0.00    +0.131 A 
ATOM      6  C   UNL     1       0.285  -2.752  -0.020  0.00  0.00    +0.051 A 
ATOM      7  C   UNL     1       0.282  -2.067   1.179  0.00  0.00    -0.028 A 
ATOM      8  C   UNL     1       0.026  -0.707   1.200  0.00  0.00    +0.047 A 
ATOM      9 CL   UNL     1       0.029   0.153   2.708  0.00  0.00    -0.083 Cl
ATOM     10  C   UNL     1       0.563  -2.799   2.466  0.00  0.00    +0.045 C 
ENDBRANCH   1   5
BRANCH   1  11
ATOM     11  C   UNL     1       1.109  -2.611  -3.196  0.00  0.00    +0.221 A 
ATOM     12  C   UNL     1       1.101  -3.195  -4.456  0.00  0.00    +0.069 A 
ATOM     13  C   UNL     1       2.206  -3.048  -5.275  0.00  0.00    +0.030 A 
ATOM     14  C   UNL     1       3.291  -2.314  -4.799  0.00  0.00    +0.046 A 
ATOM     15  C   UNL     1       3.227  -1.760  -3.529  0.00  0.00    +0.063 A 
ATOM     16  N   UNL     1       2.154  -1.917  -2.778  0.00  0.00    -0.216 NA
ATOM     17  C   UNL     1       4.394  -0.964  -3.004  0.00  0.00    +0.067 C 
BRANCH  14  18
ATOM     18  N   UNL     1       4.431  -2.139  -5.592  0.00  0.00    -0.357 N 
ATOM     19  H   UNL     1       4.470  -2.530  -6.479  0.00  0.00    +0.142 HD
ATOM     20  H   UNL     1       5.183  -1.627  -5.255  0.00  0.00    +0.142 HD
ENDBRANCH  14  18
ENDBRANCH   1  11
TORSDOF 3
