REMARK  Name = ZINC36666538
REMARK  9 active torsions:
REMARK  status: ('A' for Active; 'I' for Inactive)
REMARK    1  A    between atoms: C_1  and  C_2
REMARK    2  A    between atoms: C_2  and  C_3
REMARK    3  A    between atoms: C_6  and  C_9
REMARK    4  A    between atoms: C_9  and  C_11
REMARK    5  A    between atoms: C_9  and  N_12
REMARK    6  A    between atoms: C_13  and  C_15
REMARK    7  A    between atoms: C_15  and  C_16
REMARK    8  A    between atoms: C_16  and  N_17
REMARK    9  A    between atoms: N_20  and  C_21
REMARK                            x       y       z     vdW  Elec       q    Type
REMARK                         _______ _______ _______ _____ _____    ______ ____
ROOT
ATOM      1  C   UNL     1      -7.833  -5.935  -1.632  0.00  0.00    +0.115 C 
ENDROOT
BRANCH   1   2
ATOM      2  N   UNL     1      -7.992  -6.935  -2.691  0.00  0.00    -0.299 N 
ATOM      3  C   UNL     1      -8.943  -7.884  -2.584  0.00  0.00    +0.300 C 
ATOM      4  O   UNL     1      -9.670  -7.910  -1.609  0.00  0.00    -0.253 OA
ATOM      5  N   UNL     1      -9.089  -8.805  -3.558  0.00  0.00    -0.294 N 
ATOM      6  H   UNL     1      -7.412  -6.915  -3.468  0.00  0.00    +0.150 HD
ATOM      7  H   UNL     1      -8.510  -8.784  -4.335  0.00  0.00    +0.151 HD
BRANCH   5   8
ATOM      8  C   UNL     1     -10.123  -9.836  -3.442  0.00  0.00    +0.037 C 
ATOM      9  C   UNL     1      -9.875 -10.667  -2.182  0.00  0.00    +0.029 C 
ATOM     10  C   UNL     1     -10.955 -11.744  -2.060  0.00  0.00    -0.008 C 
ATOM     11  C   UNL     1     -10.908 -12.654  -3.289  0.00  0.00    +0.007 C 
ATOM     12  C   UNL     1     -11.156 -11.823  -4.550  0.00  0.00    -0.008 C 
ATOM     13  C   UNL     1     -10.076 -10.746  -4.671  0.00  0.00    +0.029 C 
ATOM     14  C   UNL     1     -12.531 -11.159  -4.460  0.00  0.00    +0.007 C 
ATOM     15  C   UNL     1     -12.579 -10.248  -3.231  0.00  0.00    -0.008 C 
ATOM     16  C   UNL     1     -12.331 -11.080  -1.970  0.00  0.00    +0.007 C 
ATOM     17  C   UNL     1     -11.499  -9.171  -3.352  0.00  0.00    +0.029 C 
ENDBRANCH   5   8
ENDBRANCH   1   2
BRANCH   1  18
ATOM     18  C   UNL     1      -6.692  -4.983  -1.997  0.00  0.00    +0.114 C 
BRANCH  18  20
ATOM     19  N   UNL     1      -5.578  -3.005  -1.015  0.00  0.00    -0.309 N 
ATOM     20  C   UNL     1      -6.529  -3.954  -0.909  0.00  0.00    +0.215 C 
ATOM     21  O   UNL     1      -7.254  -3.979   0.064  0.00  0.00    -0.276 OA
ATOM     22  H   UNL     1      -4.998  -2.985  -1.793  0.00  0.00    +0.149 HD
BRANCH  19  23
ATOM     23  C   UNL     1      -5.419  -2.005   0.043  0.00  0.00    +0.100 C 
ATOM     24  C   UNL     1      -6.392  -0.849  -0.198  0.00  0.00    +0.033 C 
BRANCH  23  28
ATOM     25  C   UNL     1      -1.412  -0.526   0.013  0.00  0.00    -0.048 A 
ATOM     26  C   UNL     1      -2.051  -0.766   1.215  0.00  0.00    +0.004 A 
ATOM     27  C   UNL     1      -3.348  -1.244   1.225  0.00  0.00    +0.006 A 
ATOM     28  C   UNL     1      -4.006  -1.482   0.032  0.00  0.00    -0.027 A 
ATOM     29  C   UNL     1      -3.367  -1.241  -1.170  0.00  0.00    +0.006 A 
ATOM     30  C   UNL     1      -2.072  -0.758  -1.179  0.00  0.00    +0.004 A 
BRANCH  25  32
ATOM     31  C   UNL     1      -0.019   1.526   0.010  0.00  0.00    +0.009 C 
ATOM     32  C   UNL     1       0.002  -0.004   0.002  0.00  0.00    +0.032 C 
ENDBRANCH  25  32
ENDBRANCH  23  28
ENDBRANCH  19  23
ENDBRANCH  18  20
ENDBRANCH   1  18
TORSDOF 7
