REMARK  Name = ZINC13703021
REMARK  12 active torsions:
REMARK  status: ('A' for Active; 'I' for Inactive)
REMARK    1  A    between atoms: C_1  and  C_2
REMARK    2  A    between atoms: C_2  and  C_3
REMARK    3  A    between atoms: N_12  and  C_13
REMARK    4  A    between atoms: C_13  and  C_14
REMARK    5  A    between atoms: C_14  and  C_15
REMARK    6  A    between atoms: C_15  and  N_57
REMARK    7  A    between atoms: C_16  and  N_57
REMARK    8  A    between atoms: C_17  and  N_57
REMARK    9  A    between atoms: C_18  and  C_20
REMARK   10  A    between atoms: C_22  and  C_27
REMARK   11  A    between atoms: N_23  and  C_25
REMARK   12  A    between atoms: C_25  and  C_26
REMARK                            x       y       z     vdW  Elec       q    Type
REMARK                         _______ _______ _______ _____ _____    ______ ____
ROOT
ATOM      1  C   UNL     1      -1.092  -0.038   0.024  0.00  0.00    -0.021 A 
ATOM      2  C   UNL     1      -2.118   0.871  -0.002  0.00  0.00    +0.006 A 
ATOM      3  C   UNL     1      -1.876   2.234  -0.088  0.00  0.00    +0.001 A 
ATOM      4  C   UNL     1      -0.571   2.688  -0.146  0.00  0.00    +0.017 A 
ATOM      5  C   UNL     1       0.462   1.786  -0.125  0.00  0.00    +0.041 A 
ATOM      6  C   UNL     1       0.254   0.390  -0.038  0.00  0.00    +0.083 A 
ATOM      7  N   UNL     1       1.372  -0.368  -0.023  0.00  0.00    -0.224 NA
ATOM      8  C   UNL     1       2.576   0.150  -0.085  0.00  0.00    +0.168 A 
ATOM      9  S   UNL     1       2.234   1.901  -0.179  0.00  0.00    -0.052 S 
ATOM     10  N   UNL     1       3.801  -0.496  -0.080  0.00  0.00    -0.245 N 
ATOM     11  C   UNL     1       3.853  -1.841  -0.003  0.00  0.00    +0.272 C 
ATOM     12  O   UNL     1       2.830  -2.481   0.144  0.00  0.00    -0.268 OA
ENDROOT
BRANCH  11  13
ATOM     13  C   UNL     1       5.152  -2.536  -0.095  0.00  0.00    +0.148 A 
ATOM     14  C   UNL     1       5.356  -3.936  -0.147  0.00  0.00    +0.057 A 
ATOM     15  C   UNL     1       6.697  -4.102  -0.227  0.00  0.00    +0.037 A 
ATOM     16  N   UNL     1       7.255  -2.872  -0.223  0.00  0.00    -0.268 N 
ATOM     17  N   UNL     1       6.342  -1.971  -0.151  0.00  0.00    -0.166 NA
ATOM     18  C   UNL     1       7.431  -5.416  -0.307  0.00  0.00    +0.065 C 
BRANCH  16  19
ATOM     19  C   UNL     1       8.693  -2.604  -0.294  0.00  0.00    +0.140 C 
ATOM     20  C   UNL     1       9.114  -2.469  -1.759  0.00  0.00    +0.029 C 
ENDBRANCH  16  19
ENDBRANCH  11  13
BRANCH   1  22
ATOM     21  C   UNL     1      -1.346  -1.950   1.583  0.00  0.00    +0.009 C 
ATOM     22  C   UNL     1      -1.403  -1.510   0.118  0.00  0.00    +0.034 C 
ENDBRANCH   1  22
BRANCH  10  23
ATOM     23  C   UNL     1       5.040   0.281  -0.159  0.00  0.00    +0.114 C 
BRANCH  23  24
ATOM     24  C   UNL     1       5.594   0.501   1.250  0.00  0.00    +0.001 C 
BRANCH  24  25
ATOM     25  C   UNL     1       6.888   1.313   1.168  0.00  0.00    -0.078 C 
BRANCH  25  28
ATOM     26  C   UNL     1       7.843   0.254   3.125  0.00  0.00    -0.097 C 
ATOM     27  C   UNL     1       8.524   2.493   2.507  0.00  0.00    -0.097 C 
ATOM     28  N   UNL     1       7.399   1.535   2.537  0.00  0.00    +0.376 N 
ATOM     29  H   UNL     1       6.646   1.924   3.116  0.00  0.00    -0.083 HD
ENDBRANCH  25  28
ENDBRANCH  24  25
ENDBRANCH  23  24
ENDBRANCH  10  23
TORSDOF 7
