REMARK  Name = ZINC35403842
REMARK  10 active torsions:
REMARK  status: ('A' for Active; 'I' for Inactive)
REMARK    1  A    between atoms: C_1  and  C_2
REMARK    2  A    between atoms: C_5  and  N_8
REMARK    3  A    between atoms: C_10  and  C_13
REMARK    4  A    between atoms: N_16  and  C_19
REMARK    5  A    between atoms: C_19  and  C_20
REMARK    6  A    between atoms: N_22  and  C_23
REMARK    7  A    between atoms: C_23  and  C_25
REMARK    8  A    between atoms: C_23  and  C_26
REMARK    9  A    between atoms: C_26  and  C_27
REMARK   10  A    between atoms: C_27  and  C_28
REMARK                            x       y       z     vdW  Elec       q    Type
REMARK                         _______ _______ _______ _____ _____    ______ ____
ROOT
ATOM      1  C   UNL     1       0.100  -7.474   1.482  0.00  0.00    -0.045 C 
ATOM      2  C   UNL     1      -0.943  -7.729   2.241  0.00  0.00    -0.041 C 
ATOM      3  C   UNL     1      -1.023  -8.926   3.144  0.00  0.00    -0.050 C 
ATOM      4  N   UNL     1      -0.037  -9.936   2.744  0.00  0.00    +0.388 N 
ATOM      5  C   UNL     1       1.289  -9.304   2.660  0.00  0.00    -0.073 C 
ATOM      6  C   UNL     1       1.306  -8.372   1.444  0.00  0.00    +0.017 C 
ATOM      7  H   UNL     1      -0.288 -10.315   1.843  0.00  0.00    -0.081 HD
ENDROOT
BRANCH   1  10
ATOM      8  N   UNL     1       0.057  -4.172  -0.021  0.00  0.00    -0.239 N 
ATOM      9  C   UNL     1       0.068  -4.970   1.069  0.00  0.00    +0.122 A 
ATOM     10  C   UNL     1       0.084  -6.264   0.632  0.00  0.00    +0.016 A 
ATOM     11  C   UNL     1       0.084  -6.236  -0.778  0.00  0.00    +0.143 A 
ATOM     12  N   UNL     1       0.061  -4.986  -1.160  0.00  0.00    -0.174 NA
BRANCH   8  17
ATOM     13  C   UNL     1      -0.018   1.503   0.010  0.00  0.00    +0.044 C 
ATOM     14  C   UNL     1       0.002  -0.004   0.002  0.00  0.00    -0.050 A 
ATOM     15  C   UNL     1       0.006  -0.688  -1.200  0.00  0.00    +0.005 A 
ATOM     16  C   UNL     1       0.024  -2.068  -1.211  0.00  0.00    +0.028 A 
ATOM     17  C   UNL     1       0.039  -2.771  -0.013  0.00  0.00    +0.065 A 
ATOM     18  C   UNL     1       0.036  -2.082   1.192  0.00  0.00    +0.028 A 
ATOM     19  C   UNL     1       0.023  -0.700   1.196  0.00  0.00    +0.005 A 
ENDBRANCH   8  17
ENDBRANCH   1  10
BRANCH   4  20
ATOM     20  C   UNL     1      -0.005 -11.014   3.741  0.00  0.00    +0.019 C 
BRANCH  20  21
ATOM     21  C   UNL     1      -1.330 -11.733   3.747  0.00  0.00    +0.197 C 
ATOM     22  O   UNL     1      -2.213 -11.381   2.995  0.00  0.00    -0.278 OA
ATOM     23  N   UNL     1      -1.532 -12.766   4.588  0.00  0.00    -0.314 N 
ATOM     24  H   UNL     1      -0.825 -13.047   5.190  0.00  0.00    +0.149 HD
BRANCH  23  25
ATOM     25  C   UNL     1      -2.820 -13.464   4.594  0.00  0.00    +0.070 C 
ATOM     26  C   UNL     1      -2.821 -14.540   3.506  0.00  0.00    +0.028 C 
BRANCH  25  27
ATOM     27  C   UNL     1      -3.039 -14.119   5.960  0.00  0.00    +0.026 C 
BRANCH  27  28
ATOM     28  C   UNL     1      -3.162 -13.034   7.031  0.00  0.00    +0.037 C 
BRANCH  28  29
ATOM     29  C   UNL     1      -3.378 -13.679   8.376  0.00  0.00    -0.047 A 
ATOM     30  C   UNL     1      -4.661 -13.944   8.818  0.00  0.00    +0.003 A 
ATOM     31  C   UNL     1      -4.859 -14.535  10.052  0.00  0.00    +0.000 A 
ATOM     32  C   UNL     1      -3.774 -14.862  10.843  0.00  0.00    +0.000 A 
ATOM     33  C   UNL     1      -2.491 -14.599  10.401  0.00  0.00    +0.000 A 
ATOM     34  C   UNL     1      -2.293 -14.011   9.166  0.00  0.00    +0.003 A 
ENDBRANCH  28  29
ENDBRANCH  27  28
ENDBRANCH  25  27
ENDBRANCH  23  25
ENDBRANCH  20  21
ENDBRANCH   4  20
TORSDOF 8
