REMARK  Name = ZINC39589308
REMARK  9 active torsions:
REMARK  status: ('A' for Active; 'I' for Inactive)
REMARK    1  A    between atoms: C_1  and  C_2
REMARK    2  A    between atoms: C_8  and  N_10
REMARK    3  A    between atoms: C_11  and  C_13
REMARK    4  A    between atoms: C_13  and  C_15
REMARK    5  A    between atoms: C_13  and  O_16
REMARK    6  A    between atoms: O_16  and  C_17
REMARK    7  A    between atoms: C_17  and  C_19
REMARK    8  A    between atoms: C_23  and  S_25
REMARK    9  A    between atoms: S_25  and  N_28
REMARK                            x       y       z     vdW  Elec       q    Type
REMARK                         _______ _______ _______ _____ _____    ______ ____
ROOT
ATOM      1  C   UNL     1       0.720   1.697   6.813  0.00  0.00    +0.340 C 
ATOM      2  O   UNL     1      -0.289   2.368   6.719  0.00  0.00    -0.245 OA
ENDROOT
BRANCH   1   3
ATOM      3  C   UNL     1       1.657   1.925   7.931  0.00  0.00    +0.061 A 
ATOM      4  C   UNL     1       2.820   1.159   8.039  0.00  0.00    +0.015 A 
ATOM      5  C   UNL     1       3.691   1.377   9.085  0.00  0.00    +0.003 A 
ATOM      6  C   UNL     1       3.415   2.352  10.028  0.00  0.00    +0.028 A 
ATOM      7  C   UNL     1       2.265   3.114   9.928  0.00  0.00    +0.106 A 
ATOM      8  C   UNL     1       1.388   2.911   8.882  0.00  0.00    +0.043 A 
BRANCH   7   9
ATOM      9  S   UNL     1       1.922   4.352  11.134  0.00  0.00    +0.061 S 
ATOM     10  O   UNL     1       0.516   4.554  11.121  0.00  0.00    -0.153 OA
ATOM     11  O   UNL     1       2.627   3.979  12.310  0.00  0.00    -0.153 OA
BRANCH   9  12
ATOM     12  N   UNL     1       2.608   5.761  10.598  0.00  0.00    -0.177 NA
ATOM     13  C   UNL     1       3.973   6.055  10.975  0.00  0.00    +0.109 C 
ATOM     14  C   UNL     1       3.986   6.831  12.315  0.00  0.00    +0.017 C 
ATOM     15  C   UNL     1       3.485   8.200  12.117  0.00  0.00    +0.001 C 
ATOM     16  C   UNL     1       2.035   8.277  11.650  0.00  0.00    +0.001 C 
ATOM     17  C   UNL     1       1.985   8.142  10.148  0.00  0.00    +0.017 C 
ATOM     18  C   UNL     1       1.803   6.662   9.751  0.00  0.00    +0.109 C 
ENDBRANCH   9  12
ENDBRANCH   7   9
ENDBRANCH   1   3
BRANCH   1  19
ATOM     19  O   UNL     1       0.983   0.745   5.896  0.00  0.00    -0.449 OA
BRANCH  19  20
ATOM     20  C   UNL     1       0.033   0.579   4.842  0.00  0.00    +0.259 C 
ATOM     21  C   UNL     1      -1.023  -0.445   5.263  0.00  0.00    +0.062 C 
BRANCH  20  23
ATOM     22  N   UNL     1       0.056  -0.038   2.447  0.00  0.00    -0.309 N 
ATOM     23  C   UNL     1       0.738   0.093   3.602  0.00  0.00    +0.254 C 
ATOM     24  O   UNL     1       1.919  -0.179   3.644  0.00  0.00    -0.272 OA
ATOM     25  H   UNL     1      -0.888   0.180   2.413  0.00  0.00    +0.149 HD
BRANCH  22  32
ATOM     26  C   UNL     1      -0.019   1.526   0.010  0.00  0.00    +0.009 C 
ATOM     27  C   UNL     1       0.002  -0.004   0.002  0.00  0.00    +0.006 C 
ATOM     28  C   UNL     1      -1.433  -0.534   0.013  0.00  0.00    +0.005 C 
ATOM     29  C   UNL     1      -1.413  -2.063   0.004  0.00  0.00    +0.000 C 
ATOM     30  C   UNL     1      -0.673  -2.570   1.244  0.00  0.00    +0.002 C 
ATOM     31  C   UNL     1       0.763  -2.041   1.233  0.00  0.00    +0.022 C 
ATOM     32  C   UNL     1       0.742  -0.511   1.242  0.00  0.00    +0.076 C 
ENDBRANCH  22  32
ENDBRANCH  20  23
ENDBRANCH  19  20
ENDBRANCH   1  19
TORSDOF 7
