REMARK  Name = ZINC15079727
REMARK  11 active torsions:
REMARK  status: ('A' for Active; 'I' for Inactive)
REMARK    1  A    between atoms: C_1  and  N_69
REMARK    2  A    between atoms: C_2  and  C_3
REMARK    3  A    between atoms: C_2  and  N_69
REMARK    4  A    between atoms: C_3  and  C_4
REMARK    5  A    between atoms: C_10  and  C_11
REMARK    6  A    between atoms: C_10  and  N_69
REMARK    7  A    between atoms: C_14  and  S_23
REMARK    8  A    between atoms: N_15  and  C_16
REMARK    9  A    between atoms: C_16  and  C_17
REMARK   10  A    between atoms: S_23  and  C_26
REMARK   11  A    between atoms: C_26  and  C_27
REMARK                            x       y       z     vdW  Elec       q    Type
REMARK                         _______ _______ _______ _____ _____    ______ ____
ROOT
ATOM      1  C   UNL     1       0.856  -2.749  -3.713  0.00  0.00    +0.023 A 
ATOM      2  C   UNL     1       1.872  -3.086  -4.529  0.00  0.00    +0.133 A 
ATOM      3  N   UNL     1       2.997  -3.118  -3.799  0.00  0.00    -0.220 NA
ATOM      4  C   UNL     1       2.717  -2.808  -2.563  0.00  0.00    +0.251 A 
ATOM      5  N   UNL     1       1.392  -2.567  -2.466  0.00  0.00    -0.315 N 
ENDROOT
BRANCH   4   6
ATOM      6  S   UNL     1       3.876  -2.719  -1.239  0.00  0.00    +0.030 S 
ATOM      7  O   UNL     1       5.096  -2.324  -1.851  0.00  0.00    -0.166 OA
ATOM      8  O   UNL     1       3.252  -1.891  -0.266  0.00  0.00    -0.166 OA
BRANCH   6   9
ATOM      9  C   UNL     1       4.009  -4.419  -0.620  0.00  0.00    +0.179 C 
BRANCH   9  10
ATOM     10  C   UNL     1       5.000  -4.461   0.545  0.00  0.00    +0.011 C 
ATOM     11  C   UNL     1       6.275  -5.287   0.358  0.00  0.00    +0.005 C 
ATOM     12  C   UNL     1       5.165  -5.791   1.284  0.00  0.00    +0.005 C 
ENDBRANCH   9  10
ENDBRANCH   6   9
ENDBRANCH   4   6
BRANCH   1  13
ATOM     13  C   UNL     1      -0.594  -2.599  -4.098  0.00  0.00    -0.023 C 
BRANCH  13  15
ATOM     14  C   UNL     1      -0.809  -4.922  -4.744  0.00  0.00    -0.096 C 
ATOM     15  N   UNL     1      -1.294  -3.871  -3.825  0.00  0.00    +0.382 N 
ATOM     16  H   UNL     1      -1.100  -4.158  -2.858  0.00  0.00    -0.082 HD
BRANCH  15  17
ATOM     17  C   UNL     1      -2.752  -3.690  -3.988  0.00  0.00    -0.078 C 
BRANCH  17  18
ATOM     18  C   UNL     1      -3.465  -4.948  -3.487  0.00  0.00    -0.015 C 
BRANCH  18  19
ATOM     19  C   UNL     1      -4.978  -4.768  -3.629  0.00  0.00    -0.008 C 
ATOM     20  C   UNL     1      -5.450  -3.648  -2.697  0.00  0.00    +0.031 C 
ATOM     21  C   UNL     1      -6.974  -3.528  -2.788  0.00  0.00    +0.160 C 
ATOM     22  O   UNL     1      -7.570  -4.781  -2.448  0.00  0.00    -0.380 OA
ATOM     23  C   UNL     1      -7.201  -5.856  -3.315  0.00  0.00    +0.160 C 
ATOM     24  C   UNL     1      -5.687  -6.070  -3.245  0.00  0.00    +0.031 C 
ENDBRANCH  18  19
ENDBRANCH  17  18
ENDBRANCH  15  17
ENDBRANCH  13  15
ENDBRANCH   1  13
BRANCH   5  25
ATOM     25  C   UNL     1       0.663  -2.188  -1.253  0.00  0.00    +0.128 C 
BRANCH  25  26
ATOM     26  C   UNL     1       0.326  -3.445  -0.448  0.00  0.00    +0.009 C 
ATOM     27  C   UNL     1      -0.320  -3.041   0.880  0.00  0.00    +0.005 C 
ATOM     28  C   UNL     1      -0.657  -4.297   1.685  0.00  0.00    +0.000 C 
ATOM     29  C   UNL     1      -1.631  -5.168   0.888  0.00  0.00    +0.000 C 
ATOM     30  C   UNL     1      -0.986  -5.571  -0.439  0.00  0.00    +0.000 C 
ATOM     31  C   UNL     1      -0.648  -4.315  -1.244  0.00  0.00    +0.005 C 
ENDBRANCH  25  26
ENDBRANCH   5  25
TORSDOF 10
