REMARK  Name = ZINC44269272
REMARK  4 active torsions:
REMARK  status: ('A' for Active; 'I' for Inactive)
REMARK    1  A    between atoms: C_1  and  N_2
REMARK    2  A    between atoms: C_3  and  N_24
REMARK    3  A    between atoms: C_4  and  C_17
REMARK    4  A    between atoms: C_5  and  C_7
REMARK                            x       y       z     vdW  Elec       q    Type
REMARK                         _______ _______ _______ _____ _____    ______ ____
ROOT
ATOM      1  C   UNL     1      -0.104   1.458   0.009  0.00  0.00    +0.174 C 
ATOM      2  N   UNL     1      -0.034  -0.005   0.001  0.00  0.00    -0.253 N 
ATOM      3  C   UNL     1       0.047  -0.789  -1.097  0.00  0.00    +0.122 A 
ATOM      4  C   UNL     1       0.092  -2.102  -0.662  0.00  0.00    +0.046 A 
ATOM      5  C   UNL     1       0.035  -2.078   0.745  0.00  0.00    +0.076 A 
ATOM      6  N   UNL     1      -0.035  -0.832   1.131  0.00  0.00    -0.174 NA
ENDROOT
BRANCH   5   7
ATOM      7  C   UNL     1       0.056  -3.282   1.651  0.00  0.00    +0.044 C 
ATOM      8  C   UNL     1       0.790  -2.951   2.970  0.00  0.00    +0.013 C 
ATOM      9  C   UNL     1      -0.284  -3.159   4.081  0.00  0.00    -0.010 C 
ATOM     10  C   UNL     1      -1.274  -1.969   3.895  0.00  0.00    +0.004 C 
ATOM     11  C   UNL     1      -2.014  -2.279   2.573  0.00  0.00    +0.004 C 
ATOM     12  C   UNL     1      -1.393  -3.660   2.086  0.00  0.00    -0.002 C 
ATOM     13  C   UNL     1      -1.108  -4.347   3.470  0.00  0.00    +0.007 C 
ENDBRANCH   5   7
BRANCH   4  14
ATOM     14  C   UNL     1       0.184  -3.309  -1.518  0.00  0.00    +0.005 A 
ATOM     15  C   UNL     1       1.431  -3.825  -1.868  0.00  0.00    +0.010 A 
ATOM     16  C   UNL     1       1.510  -4.950  -2.664  0.00  0.00    +0.001 A 
ATOM     17  C   UNL     1       0.356  -5.565  -3.115  0.00  0.00    +0.001 A 
ATOM     18  C   UNL     1      -0.884  -5.058  -2.771  0.00  0.00    +0.020 A 
ATOM     19  C   UNL     1      -0.976  -3.937  -1.970  0.00  0.00    +0.049 A 
ATOM     20 CL   UNL     1      -2.533  -3.306  -1.533  0.00  0.00    -0.083 Cl
ENDBRANCH   4  14
BRANCH   3  21
ATOM     21  N   UNL     1       0.079  -0.357  -2.416  0.00  0.00    -0.343 N 
ATOM     22  H   UNL     1       0.041   0.591  -2.617  0.00  0.00    +0.144 HD
ATOM     23  H   UNL     1       0.138  -1.003  -3.137  0.00  0.00    +0.144 HD
ENDBRANCH   3  21
TORSDOF 3
