REMARK  Name = ZINC15770415
REMARK  5 active torsions:
REMARK  status: ('A' for Active; 'I' for Inactive)
REMARK    1  A    between atoms: C_4  and  C_7
REMARK    2  A    between atoms: C_10  and  C_28
REMARK    3  A    between atoms: C_12  and  C_22
REMARK    4  A    between atoms: C_14  and  C_16
REMARK    5  A    between atoms: C_31  and  N_34
REMARK                            x       y       z     vdW  Elec       q    Type
REMARK                         _______ _______ _______ _____ _____    ______ ____
ROOT
ATOM      1  C   UNL     1      -0.070   5.319   0.029  0.00  0.00    +0.069 C 
ATOM      2  N   UNL     1       0.976   6.080   0.027  0.00  0.00    -0.181 NA
ATOM      3  N   UNL     1       0.678   7.430   0.000  0.00  0.00    -0.193 N 
ATOM      4  C   UNL     1       1.486   8.520  -0.262  0.00  0.00    +0.128 C 
ATOM      5  N   UNL     1       0.922   9.492  -0.961  0.00  0.00    -0.341 N 
ATOM      6  C   UNL     1      -0.355   9.383  -1.423  0.00  0.00    +0.046 C 
ATOM      7  C   UNL     1      -1.253   8.508  -0.905  0.00  0.00    +0.032 C 
ATOM      8  C   UNL     1      -0.780   7.605   0.210  0.00  0.00    +0.109 C 
ATOM      9  C   UNL     1      -1.319   6.177   0.044  0.00  0.00    +0.094 C 
ATOM     10  H   UNL     1       1.485  10.411  -1.178  0.00  0.00    +0.167 HD
ENDROOT
BRANCH   1  14
ATOM     11  C   UNL     1      -0.013   1.076   0.008  0.00  0.00    +0.000 A 
ATOM     12  C   UNL     1      -1.222   1.748   0.017  0.00  0.00    +0.001 A 
ATOM     13  C   UNL     1      -1.248   3.127   0.030  0.00  0.00    +0.010 A 
ATOM     14  C   UNL     1      -0.050   3.845   0.022  0.00  0.00    -0.002 A 
ATOM     15  C   UNL     1       1.167   3.160   0.007  0.00  0.00    +0.010 A 
ATOM     16  C   UNL     1       1.178   1.781   0.000  0.00  0.00    +0.001 A 
ENDBRANCH   1  14
BRANCH   8  17
ATOM     17  C   UNL     1      -1.096   8.174   1.569  0.00  0.00    -0.018 A 
ATOM     18  C   UNL     1      -2.240   7.776   2.236  0.00  0.00    +0.006 A 
ATOM     19  C   UNL     1      -2.527   8.295   3.485  0.00  0.00    +0.000 A 
ATOM     20  C   UNL     1      -1.676   9.219   4.062  0.00  0.00    +0.000 A 
ATOM     21  C   UNL     1      -0.535   9.620   3.393  0.00  0.00    +0.000 A 
ATOM     22  C   UNL     1      -0.245   9.097   2.147  0.00  0.00    +0.006 A 
ENDBRANCH   8  17
BRANCH   6  23
ATOM     23  C   UNL     1      -0.787  10.266  -2.534  0.00  0.00    -0.002 A 
ATOM     24  C   UNL     1      -2.085  10.176  -3.035  0.00  0.00    +0.010 A 
ATOM     25  C   UNL     1      -2.483  11.003  -4.065  0.00  0.00    +0.001 A 
ATOM     26  C   UNL     1      -1.594  11.913  -4.608  0.00  0.00    +0.000 A 
ATOM     27  C   UNL     1      -0.303  12.003  -4.118  0.00  0.00    +0.001 A 
ATOM     28  C   UNL     1       0.104  11.185  -3.085  0.00  0.00    +0.010 A 
ENDBRANCH   6  23
BRANCH   4  29
ATOM     29  C   UNL     1       2.885   8.594   0.206  0.00  0.00    +0.015 A 
ATOM     30  C   UNL     1       3.435   7.544   0.945  0.00  0.00    +0.013 A 
ATOM     31  C   UNL     1       4.744   7.618   1.374  0.00  0.00    +0.033 A 
ATOM     32  C   UNL     1       5.508   8.734   1.083  0.00  0.00    +0.126 A 
ATOM     33  C   UNL     1       4.969   9.780   0.356  0.00  0.00    +0.033 A 
ATOM     34  C   UNL     1       3.663   9.717  -0.084  0.00  0.00    +0.013 A 
BRANCH  32  35
ATOM     35  N   UNL     1       6.911   8.809   1.552  0.00  0.00    +0.056 N 
ATOM     36  O   UNL     1       7.587   9.789   1.297  0.00  0.00    -0.126 OA
ATOM     37  O   UNL     1       7.389   7.889   2.192  0.00  0.00    -0.126 OA
ENDBRANCH  32  35
ENDBRANCH   4  29
TORSDOF 5
