REMARK  Name = ZINC51999736
REMARK  4 active torsions:
REMARK  status: ('A' for Active; 'I' for Inactive)
REMARK    1  A    between atoms: C_3  and  N_11
REMARK    2  A    between atoms: C_6  and  N_7
REMARK    3  A    between atoms: N_11  and  C_12
REMARK    4  A    between atoms: C_18  and  O_20
REMARK                            x       y       z     vdW  Elec       q    Type
REMARK                         _______ _______ _______ _____ _____    ______ ____
ROOT
ATOM      1  C   UNL     1      -0.016   1.355   0.009  0.00  0.00    +0.027 A 
ATOM      2  C   UNL     1       1.151   2.120   0.003  0.00  0.00    +0.027 A 
ATOM      3  C   UNL     1       2.390   1.560  -0.012  0.00  0.00    +0.059 A 
ATOM      4  C   UNL     1       2.523   0.100  -0.021  0.00  0.00    +0.157 A 
ATOM      5  C   UNL     1       1.287  -0.709  -0.014  0.00  0.00    +0.156 A 
ATOM      6  C   UNL     1       0.002  -0.004   0.002  0.00  0.00    +0.056 A 
ATOM      7  N   UNL     1       1.628  -1.975  -0.025  0.00  0.00    -0.047 NA
ATOM      8  O   UNL     1       3.044  -2.045  -0.039  0.00  0.00    -0.241 OA
ATOM      9  N   UNL     1       3.546  -0.719  -0.036  0.00  0.00    -0.047 NA
ENDROOT
BRANCH   6  10
ATOM     10  N   UNL     1      -1.195  -0.724   0.010  0.00  0.00    -0.356 N 
ATOM     11  H   UNL     1      -2.044  -0.254   0.021  0.00  0.00    +0.142 HD
ATOM     12  H   UNL     1      -1.178  -1.694   0.005  0.00  0.00    +0.142 HD
ENDBRANCH   6  10
BRANCH   3  13
ATOM     13  N   UNL     1       3.529   2.369  -0.019  0.00  0.00    -0.337 N 
ATOM     14  H   UNL     1       4.411   1.966  -0.030  0.00  0.00    +0.147 HD
BRANCH  13  15
ATOM     15  C   UNL     1       3.390   3.828  -0.011  0.00  0.00    +0.099 C 
ATOM     16  C   UNL     1       3.231   4.316   1.430  0.00  0.00    +0.025 C 
ATOM     17  C   UNL     1       3.087   5.840   1.440  0.00  0.00    +0.002 C 
ATOM     18  C   UNL     1       4.334   6.474   0.821  0.00  0.00    +0.003 C 
ATOM     19  C   UNL     1       4.494   5.985  -0.620  0.00  0.00    +0.033 C 
ATOM     20  C   UNL     1       4.638   4.462  -0.629  0.00  0.00    +0.135 C 
BRANCH  20  21
ATOM     21  O   UNL     1       4.787   4.006  -1.975  0.00  0.00    -0.390 OA
ATOM     22  H   UNL     1       5.559   4.368  -2.430  0.00  0.00    +0.210 HD
ENDBRANCH  20  21
ENDBRANCH  13  15
ENDBRANCH   3  13
TORSDOF 4
