REMARK  Name = ZINC63855621
REMARK  4 active torsions:
REMARK  status: ('A' for Active; 'I' for Inactive)
REMARK    1  A    between atoms: C_1  and  C_2
REMARK    2  A    between atoms: C_4  and  C_17
REMARK    3  A    between atoms: N_5  and  C_7
REMARK    4  A    between atoms: C_17  and  C_18
REMARK                            x       y       z     vdW  Elec       q    Type
REMARK                         _______ _______ _______ _____ _____    ______ ____
ROOT
ATOM      1  C   UNL     1      -0.242   1.491  -0.027  0.00  0.00    +0.090 C 
ATOM      2  C   UNL     1      -0.097  -0.009  -0.014  0.00  0.00    +0.149 A 
ATOM      3  N   UNL     1       0.130  -0.774  -1.082  0.00  0.00    -0.216 NA
ATOM      4  C   UNL     1       0.202  -2.030  -0.722  0.00  0.00    +0.135 A 
ATOM      5  N   UNL     1       0.018  -2.092   0.612  0.00  0.00    -0.215 N 
ATOM      6  N   UNL     1      -0.168  -0.770   1.047  0.00  0.00    -0.150 NA
ENDROOT
BRANCH   5   7
ATOM      7  C   UNL     1       0.019  -3.245   1.406  0.00  0.00    +0.093 A 
ATOM      8  C   UNL     1      -0.735  -4.339   1.042  0.00  0.00    +0.030 A 
ATOM      9  C   UNL     1      -0.743  -5.491   1.822  0.00  0.00    +0.003 A 
ATOM     10  C   UNL     1      -0.008  -5.569   2.965  0.00  0.00    +0.010 A 
ATOM     11  C   UNL     1       0.773  -4.474   3.370  0.00  0.00    +0.002 A 
ATOM     12  C   UNL     1       0.795  -3.297   2.583  0.00  0.00    +0.096 A 
ATOM     13  N   UNL     1       1.541  -2.256   2.963  0.00  0.00    -0.253 NA
ATOM     14  C   UNL     1       2.264  -2.298   4.056  0.00  0.00    +0.111 A 
ATOM     15  C   UNL     1       2.292  -3.427   4.873  0.00  0.00    +0.020 A 
ATOM     16  C   UNL     1       1.544  -4.522   4.548  0.00  0.00    +0.011 A 
ENDBRANCH   5   7
BRANCH   4  17
ATOM     17  C   UNL     1       0.447  -3.201  -1.638  0.00  0.00    +0.103 C 
BRANCH  17  18
ATOM     18  C   UNL     1       1.951  -3.370  -1.859  0.00  0.00    +0.111 C 
ATOM     19  C   UNL     1       2.208  -4.474  -2.853  0.00  0.00    -0.015 A 
ATOM     20  C   UNL     1       1.857  -4.657  -4.170  0.00  0.00    +0.006 A 
ATOM     21  C   UNL     1       2.249  -5.805  -4.838  0.00  0.00    +0.000 A 
ATOM     22  C   UNL     1       2.994  -6.771  -4.184  0.00  0.00    +0.001 A 
ATOM     23  C   UNL     1       3.352  -6.597  -2.863  0.00  0.00    +0.013 A 
ATOM     24  C   UNL     1       2.960  -5.442  -2.183  0.00  0.00    +0.042 A 
ATOM     25  C   UNL     1       3.183  -4.979  -0.800  0.00  0.00    +0.245 C 
ATOM     26  O   UNL     1       3.804  -5.592   0.046  0.00  0.00    -0.270 OA
ATOM     27  N   UNL     1       2.601  -3.781  -0.609  0.00  0.00    -0.304 N 
ATOM     28  H   UNL     1       2.610  -3.273   0.217  0.00  0.00    +0.150 HD
ENDBRANCH  17  18
ENDBRANCH   4  17
TORSDOF 3
