REMARK  Name = ZINC39674369
REMARK  8 active torsions:
REMARK  status: ('A' for Active; 'I' for Inactive)
REMARK    1  A    between atoms: C_1  and  C_2
REMARK    2  A    between atoms: C_5  and  C_10
REMARK    3  A    between atoms: C_14  and  C_23
REMARK    4  A    between atoms: N_25  and  C_26
REMARK    5  A    between atoms: C_26  and  C_28
REMARK    6  A    between atoms: C_26  and  C_29
REMARK    7  A    between atoms: C_30  and  C_36
REMARK    8  A    between atoms: C_33  and  C_35
REMARK                            x       y       z     vdW  Elec       q    Type
REMARK                         _______ _______ _______ _____ _____    ______ ____
ROOT
ATOM      1  C   UNL     1       0.590  -5.374   0.363  0.00  0.00    +0.250 C 
ATOM      2  O   UNL     1       0.686  -6.262   1.188  0.00  0.00    -0.270 OA
ATOM      3  N   UNL     1       0.457  -5.679  -0.943  0.00  0.00    -0.296 N 
ATOM      4  C   UNL     1       0.428  -4.747  -2.094  0.00  0.00    +0.121 C 
ATOM      5  C   UNL     1       1.236  -5.465  -3.198  0.00  0.00    +0.100 C 
ATOM      6  C   UNL     1       1.152  -6.958  -2.838  0.00  0.00    -0.004 C 
ATOM      7  C   UNL     1       0.315  -7.023  -1.552  0.00  0.00    +0.115 C 
ATOM      8  C   UNL     1       0.465  -7.734  -3.957  0.00  0.00    -0.010 C 
ATOM      9  C   UNL     1       0.446  -9.223  -3.602  0.00  0.00    -0.082 C 
ATOM     10  N   UNL     1       1.821  -9.703  -3.420  0.00  0.00    +0.379 N 
ATOM     11  C   UNL     1       2.444  -9.017  -2.281  0.00  0.00    -0.082 C 
ATOM     12  C   UNL     1       2.548  -7.519  -2.581  0.00  0.00    -0.010 C 
ATOM     13  H   UNL     1       1.809 -10.697  -3.246  0.00  0.00    -0.086 HD
ATOM     14  H   UNL     1       2.354  -9.517  -4.256  0.00  0.00    -0.086 HD
ENDROOT
BRANCH   1  19
ATOM     15  C   UNL     1       0.690   0.134   2.034  0.00  0.00    +0.047 C 
ATOM     16  C   UNL     1       0.665  -1.309   1.598  0.00  0.00    -0.012 A 
ATOM     17  C   UNL     1      -0.113  -1.689   0.518  0.00  0.00    +0.007 A 
ATOM     18  C   UNL     1      -0.142  -3.006   0.113  0.00  0.00    +0.016 A 
ATOM     19  C   UNL     1       0.617  -3.962   0.793  0.00  0.00    +0.075 A 
ATOM     20  C   UNL     1       1.402  -3.574   1.883  0.00  0.00    +0.171 A 
ATOM     21  C   UNL     1       1.425  -2.246   2.276  0.00  0.00    +0.162 A 
ATOM     22  F   UNL     1       2.187  -1.866   3.325  0.00  0.00    -0.202 F 
ATOM     23  F   UNL     1       2.139  -4.491   2.547  0.00  0.00    -0.202 F 
ENDBRANCH   1  19
BRANCH   5  24
ATOM     24  C   UNL     1       2.670  -5.000  -3.187  0.00  0.00    +0.219 C 
ATOM     25  O   UNL     1       3.190  -4.665  -2.143  0.00  0.00    -0.275 OA
ATOM     26  N   UNL     1       3.373  -4.955  -4.335  0.00  0.00    -0.309 N 
ATOM     27  H   UNL     1       2.957  -5.223  -5.170  0.00  0.00    +0.149 HD
BRANCH  26  28
ATOM     28  C   UNL     1       4.767  -4.503  -4.324  0.00  0.00    +0.100 C 
ATOM     29  C   UNL     1       4.808  -2.976  -4.410  0.00  0.00    +0.033 C 
BRANCH  28  30
ATOM     30  C   UNL     1       5.496  -5.093  -5.503  0.00  0.00    -0.001 C 
ATOM     31  C   UNL     1       6.618  -5.816  -5.498  0.00  0.00    +0.063 C 
ATOM     32  N   UNL     1       6.968  -6.169  -6.755  0.00  0.00    -0.159 NA
ATOM     33  N   UNL     1       6.201  -5.764  -7.632  0.00  0.00    -0.180 NA
ATOM     34  C   UNL     1       5.122  -5.009  -6.972  0.00  0.00    +0.154 C 
ATOM     35  C   UNL     1       5.115  -3.555  -7.446  0.00  0.00    +0.039 C 
ATOM     36  C   UNL     1       7.391  -6.189  -4.258  0.00  0.00    +0.067 C 
ENDBRANCH  28  30
ENDBRANCH  26  28
ENDBRANCH   5  24
TORSDOF 4
