REMARK  Name = ZINC62320001
REMARK  10 active torsions:
REMARK  status: ('A' for Active; 'I' for Inactive)
REMARK    1  A    between atoms: C_1  and  C_2
REMARK    2  A    between atoms: C_2  and  C_3
REMARK    3  A    between atoms: C_3  and  C_4
REMARK    4  A    between atoms: C_4  and  C_5
REMARK    5  A    between atoms: C_5  and  N_6
REMARK    6  A    between atoms: C_8  and  C_18
REMARK    7  A    between atoms: C_16  and  N_17
REMARK    8  A    between atoms: N_20  and  C_21
REMARK    9  A    between atoms: C_21  and  C_22
REMARK   10  A    between atoms: C_21  and  C_23
REMARK                            x       y       z     vdW  Elec       q    Type
REMARK                         _______ _______ _______ _____ _____    ______ ____
ROOT
ATOM      1  N   UNL     1      -2.859  -3.731  -0.030  0.00  0.00    -0.346 N 
ATOM      2  C   UNL     1      -2.889  -4.203  -1.284  0.00  0.00    +0.103 A 
ATOM      3  C   UNL     1      -2.897  -5.553  -1.561  0.00  0.00    +0.100 A 
ATOM      4  C   UNL     1      -2.871  -6.509  -0.441  0.00  0.00    +0.203 A 
ATOM      5  O   UNL     1      -2.877  -7.713  -0.633  0.00  0.00    -0.286 OA
ATOM      6  C   UNL     1      -2.839  -5.951   0.920  0.00  0.00    +0.066 A 
ATOM      7  C   UNL     1      -2.828  -4.553   1.076  0.00  0.00    +0.055 A 
ATOM      8  C   UNL     1      -2.793  -4.013   2.357  0.00  0.00    +0.026 A 
ATOM      9  C   UNL     1      -2.762  -4.843   3.459  0.00  0.00    +0.004 A 
ATOM     10  C   UNL     1      -2.766  -6.219   3.312  0.00  0.00    +0.023 A 
ATOM     11  C   UNL     1      -2.813  -6.785   2.046  0.00  0.00    +0.037 A 
ENDROOT
BRANCH   3  12
ATOM     12  C   UNL     1      -2.931  -6.032  -2.951  0.00  0.00    +0.249 C 
ATOM     13  O   UNL     1      -3.060  -5.238  -3.864  0.00  0.00    -0.270 OA
ATOM     14  N   UNL     1      -2.819  -7.349  -3.214  0.00  0.00    -0.309 N 
ATOM     15  H   UNL     1      -2.790  -7.988  -2.485  0.00  0.00    +0.149 HD
BRANCH  14  16
ATOM     16  C   UNL     1      -2.740  -7.815  -4.600  0.00  0.00    +0.067 C 
ATOM     17  C   UNL     1      -2.020  -9.165  -4.644  0.00  0.00    +0.027 C 
ATOM     18  C   UNL     1      -4.152  -7.972  -5.167  0.00  0.00    +0.027 C 
ENDBRANCH  14  16
ENDBRANCH   3  12
BRANCH  11  19
ATOM     19  N   UNL     1      -2.818  -8.167   1.896  0.00  0.00    -0.357 N 
ATOM     20  H   UNL     1      -2.756  -8.558   1.011  0.00  0.00    +0.142 HD
ATOM     21  H   UNL     1      -2.884  -8.739   2.676  0.00  0.00    +0.142 HD
ENDBRANCH  11  19
BRANCH   1  22
ATOM     22  C   UNL     1      -2.853  -2.280   0.174  0.00  0.00    +0.122 C 
BRANCH  22  23
ATOM     23  C   UNL     1      -1.409  -1.776   0.204  0.00  0.00    +0.022 C 
BRANCH  23  24
ATOM     24  C   UNL     1      -1.403  -0.261   0.417  0.00  0.00    +0.001 C 
BRANCH  24  26
ATOM     25  C   UNL     1       0.048   1.759   0.661  0.00  0.00    +0.004 C 
ATOM     26  C   UNL     1       0.042   0.244   0.448  0.00  0.00    -0.003 C 
ENDBRANCH  24  26
ENDBRANCH  23  24
ENDBRANCH  22  23
ENDBRANCH   1  22
TORSDOF 7
