REMARK  Name = ZINC20243884
REMARK  8 active torsions:
REMARK  status: ('A' for Active; 'I' for Inactive)
REMARK    1  A    between atoms: C_1  and  C_2
REMARK    2  A    between atoms: C_7  and  N_8
REMARK    3  A    between atoms: C_9  and  C_27
REMARK    4  A    between atoms: C_10  and  C_15
REMARK    5  A    between atoms: C_12  and  C_13
REMARK    6  A    between atoms: N_16  and  N_17
REMARK    7  A    between atoms: C_18  and  C_20
REMARK    8  A    between atoms: C_25  and  O_26
REMARK                            x       y       z     vdW  Elec       q    Type
REMARK                         _______ _______ _______ _____ _____    ______ ____
ROOT
ATOM      1  N   UNL     1       0.026  -0.013   2.419  0.00  0.00    -0.316 N 
ATOM      2  C   UNL     1      -1.087   0.352   3.111  0.00  0.00    +0.031 A 
ATOM      3  C   UNL     1      -0.692   1.005   4.244  0.00  0.00    +0.030 A 
ATOM      4  C   UNL     1       0.774   1.025   4.216  0.00  0.00    +0.048 A 
ATOM      5  C   UNL     1       1.146   0.388   3.090  0.00  0.00    +0.036 A 
ATOM      6  C   UNL     1       2.566   0.159   2.640  0.00  0.00    +0.065 C 
ATOM      7 BR   UNL     1       1.919   1.789   5.513  0.00  0.00    -0.048 Br
ATOM      8  C   UNL     1      -2.512   0.084   2.698  0.00  0.00    +0.064 C 
ENDROOT
BRANCH   1  15
ATOM      9  C   UNL     1      -0.018   1.503   0.010  0.00  0.00    +0.046 C 
ATOM     10  C   UNL     1       0.002  -0.004   0.002  0.00  0.00    -0.027 A 
ATOM     11  C   UNL     1       0.006  -0.689  -1.198  0.00  0.00    +0.005 A 
ATOM     12  C   UNL     1       0.024  -2.071  -1.206  0.00  0.00    +0.000 A 
ATOM     13  C   UNL     1       0.040  -2.773  -0.014  0.00  0.00    +0.002 A 
ATOM     14  C   UNL     1       0.035  -2.094   1.188  0.00  0.00    +0.026 A 
ATOM     15  C   UNL     1       0.023  -0.705   1.200  0.00  0.00    +0.049 A 
ENDBRANCH   1  15
BRANCH   3  16
ATOM     16  C   UNL     1      -1.564   1.575   5.286  0.00  0.00    +0.141 C 
ATOM     17  N   UNL     1      -1.042   2.171   6.314  0.00  0.00    -0.187 NA
BRANCH  17  18
ATOM     18  N   UNL     1      -1.871   2.714   7.305  0.00  0.00    -0.203 N 
ATOM     19  C   UNL     1      -1.330   3.333   8.372  0.00  0.00    +0.267 C 
ATOM     20  O   UNL     1      -0.121   3.420   8.476  0.00  0.00    -0.268 OA
ATOM     21  H   UNL     1      -2.836   2.644   7.222  0.00  0.00    +0.178 HD
BRANCH  19  22
ATOM     22  C   UNL     1      -2.203   3.904   9.415  0.00  0.00    +0.080 A 
ATOM     23  C   UNL     1      -3.592   3.800   9.303  0.00  0.00    +0.017 A 
ATOM     24  C   UNL     1      -4.402   4.336  10.280  0.00  0.00    +0.001 A 
ATOM     25  C   UNL     1      -3.845   4.977  11.375  0.00  0.00    +0.004 A 
ATOM     26  C   UNL     1      -2.475   5.086  11.499  0.00  0.00    +0.046 A 
ATOM     27  C   UNL     1      -1.644   4.548  10.527  0.00  0.00    +0.129 A 
BRANCH  27  28
ATOM     28  O   UNL     1      -0.297   4.649  10.650  0.00  0.00    -0.506 OA
ATOM     29  H   UNL     1       0.076   5.447  10.250  0.00  0.00    +0.292 HD
ENDBRANCH  27  28
ENDBRANCH  19  22
ENDBRANCH  17  18
ENDBRANCH   3  16
TORSDOF 5
