REMARK  Name = ZINC14650932
REMARK  12 active torsions:
REMARK  status: ('A' for Active; 'I' for Inactive)
REMARK    1  A    between atoms: C_1  and  C_2
REMARK    2  A    between atoms: C_4  and  N_27
REMARK    3  A    between atoms: C_7  and  N_8
REMARK    4  A    between atoms: N_8  and  C_9
REMARK    5  A    between atoms: C_9  and  N_11
REMARK    6  A    between atoms: C_12  and  C_14
REMARK    7  A    between atoms: C_19  and  O_20
REMARK    8  A    between atoms: O_20  and  C_21
REMARK    9  A    between atoms: C_21  and  C_22
REMARK   10  A    between atoms: C_22  and  C_23
REMARK   11  A    between atoms: C_23  and  C_24
REMARK   12  A    between atoms: C_23  and  C_25
REMARK                            x       y       z     vdW  Elec       q    Type
REMARK                         _______ _______ _______ _____ _____    ______ ____
ROOT
ATOM      1  N   UNL     1       2.403   5.325  -0.379  0.00  0.00    -0.263 N 
ATOM      2  C   UNL     1       2.427   4.037  -0.774  0.00  0.00    +0.253 C 
ATOM      3  O   UNL     1       3.471   3.534  -1.142  0.00  0.00    -0.270 OA
ATOM      4  H   UNL     1       1.570   5.727  -0.086  0.00  0.00    +0.157 HD
ENDROOT
BRANCH   2   5
ATOM      5  C   UNL     1       1.188   3.239  -0.762  0.00  0.00    +0.080 A 
ATOM      6  C   UNL     1      -0.014   3.814  -0.341  0.00  0.00    +0.032 A 
ATOM      7  C   UNL     1      -1.170   3.062  -0.332  0.00  0.00    +0.019 A 
ATOM      8  C   UNL     1      -1.146   1.738  -0.745  0.00  0.00    +0.019 A 
ATOM      9  C   UNL     1       0.036   1.157  -1.157  0.00  0.00    +0.047 A 
ATOM     10  C   UNL     1       1.208   1.899  -1.173  0.00  0.00    +0.133 A 
ATOM     11 BR   UNL     1      -2.796   3.841   0.237  0.00  0.00    -0.050 Br
BRANCH  10  12
ATOM     12  O   UNL     1       2.369   1.330  -1.584  0.00  0.00    -0.491 OA
BRANCH  12  13
ATOM     13  C   UNL     1       2.313  -0.040  -1.988  0.00  0.00    +0.229 C 
BRANCH  13  14
ATOM     14  C   UNL     1       3.707  -0.503  -2.415  0.00  0.00    +0.044 C 
BRANCH  14  15
ATOM     15  C   UNL     1       3.647  -1.969  -2.848  0.00  0.00    -0.014 C 
ATOM     16  C   UNL     1       2.778  -2.096  -4.100  0.00  0.00    +0.007 C 
ATOM     17  C   UNL     1       5.061  -2.468  -3.156  0.00  0.00    +0.007 C 
ENDBRANCH  14  15
ENDBRANCH  13  14
ENDBRANCH  12  13
ENDBRANCH  10  12
ENDBRANCH   2   5
BRANCH   1  18
ATOM     18  C   UNL     1       3.536   6.055  -0.390  0.00  0.00    +0.141 C 
ATOM     19  S   UNL     1       5.006   5.346  -0.907  0.00  0.00    -0.018 S 
BRANCH  18  20
ATOM     20  N   UNL     1       3.512   7.343   0.006  0.00  0.00    -0.296 N 
ATOM     21  H   UNL     1       2.668   7.768   0.223  0.00  0.00    +0.154 HD
BRANCH  20  28
ATOM     22  C   UNL     1       3.569   9.987  -1.046  0.00  0.00    +0.046 C 
ATOM     23  C   UNL     1       4.777   9.361  -0.397  0.00  0.00    -0.027 A 
ATOM     24  C   UNL     1       5.955  10.075  -0.295  0.00  0.00    +0.038 A 
ATOM     25  C   UNL     1       7.065   9.499   0.295  0.00  0.00    +0.127 A 
ATOM     26  C   UNL     1       6.998   8.209   0.790  0.00  0.00    +0.034 A 
ATOM     27  C   UNL     1       5.822   7.492   0.696  0.00  0.00    +0.026 A 
ATOM     28  C   UNL     1       4.705   8.067   0.103  0.00  0.00    +0.036 A 
BRANCH  25  29
ATOM     29  N   UNL     1       8.327  10.265   0.398  0.00  0.00    +0.056 N 
ATOM     30  O   UNL     1       9.306   9.759   0.917  0.00  0.00    -0.126 OA
ATOM     31  O   UNL     1       8.387  11.401  -0.038  0.00  0.00    -0.126 OA
ENDBRANCH  25  29
ENDBRANCH  20  28
ENDBRANCH  18  20
ENDBRANCH   1  18
TORSDOF 9
