REMARK  Name = ZINC12872159
REMARK  11 active torsions:
REMARK  status: ('A' for Active; 'I' for Inactive)
REMARK    1  A    between atoms: C_1  and  C_2
REMARK    2  A    between atoms: C_2  and  C_3
REMARK    3  A    between atoms: C_3  and  C_4
REMARK    4  A    between atoms: C_3  and  C_5
REMARK    5  A    between atoms: C_3  and  N_6
REMARK    6  A    between atoms: C_7  and  C_9
REMARK    7  A    between atoms: C_9  and  C_11
REMARK    8  A    between atoms: C_9  and  N_17
REMARK    9  A    between atoms: N_17  and  C_18
REMARK   10  A    between atoms: C_18  and  C_19
REMARK   11  A    between atoms: C_26  and  C_28
REMARK                            x       y       z     vdW  Elec       q    Type
REMARK                         _______ _______ _______ _____ _____    ______ ____
ROOT
ATOM      1  C   UNL     1      -2.650   1.471   2.061  0.00  0.00    +0.194 C 
ENDROOT
BRANCH   1   2
ATOM      2  C   UNL     1      -2.128   0.547   3.131  0.00  0.00    -0.000 A 
ATOM      3  C   UNL     1      -2.483  -0.794   3.135  0.00  0.00    +0.009 A 
ATOM      4  C   UNL     1      -1.975  -1.608   4.136  0.00  0.00    +0.020 A 
ATOM      5  C   UNL     1      -1.147  -1.058   5.096  0.00  0.00    +0.111 A 
ATOM      6  N   UNL     1      -0.835   0.223   5.064  0.00  0.00    -0.263 NA
ATOM      7  C   UNL     1      -1.295   1.026   4.124  0.00  0.00    +0.116 A 
ENDBRANCH   1   2
BRANCH   1   9
ATOM      8  N   UNL     1      -4.888   1.288   3.100  0.00  0.00    -0.308 N 
ATOM      9  C   UNL     1      -3.961   2.066   2.507  0.00  0.00    +0.239 C 
ATOM     10  O   UNL     1      -4.182   3.246   2.332  0.00  0.00    -0.273 OA
ATOM     11  H   UNL     1      -4.693   0.355   3.282  0.00  0.00    +0.149 HD
BRANCH   8  12
ATOM     12  C   UNL     1      -6.188   1.851   3.471  0.00  0.00    +0.029 C 
ATOM     13  C   UNL     1      -5.984   2.994   4.467  0.00  0.00    +0.031 C 
ATOM     14  C   UNL     1      -6.889   2.383   2.220  0.00  0.00    +0.031 C 
BRANCH  12  16
ATOM     15  C   UNL     1      -8.409   1.350   4.502  0.00  0.00    +0.006 C 
ATOM     16  C   UNL     1      -7.050   0.762   4.115  0.00  0.00    +0.022 C 
ENDBRANCH  12  16
ENDBRANCH   8  12
ENDBRANCH   1   9
BRANCH   1  17
ATOM     17  N   UNL     1      -1.681   2.544   1.828  0.00  0.00    -0.276 N 
ATOM     18  C   UNL     1      -0.746   2.411   0.866  0.00  0.00    +0.268 C 
ATOM     19  O   UNL     1       0.078   3.288   0.693  0.00  0.00    -0.268 OA
BRANCH  18  20
ATOM     20  C   UNL     1      -0.723   1.201   0.024  0.00  0.00    +0.156 A 
ATOM     21  C   UNL     1       0.294   0.916  -0.876  0.00  0.00    +0.101 A 
ATOM     22  S   UNL     1      -0.252  -0.594  -1.525  0.00  0.00    +0.029 S 
ATOM     23  N   UNL     1      -1.596  -0.754  -0.715  0.00  0.00    -0.110 NA
ATOM     24  N   UNL     1      -1.677   0.277   0.045  0.00  0.00    -0.136 NA
ENDBRANCH  18  20
BRANCH  17  25
ATOM     25  C   UNL     1      -1.727   3.763   2.640  0.00  0.00    +0.144 C 
BRANCH  25  26
ATOM     26  C   UNL     1      -1.721   4.969   1.736  0.00  0.00    -0.030 A 
ATOM     27  C   UNL     1      -0.707   5.903   1.837  0.00  0.00    +0.008 A 
ATOM     28  C   UNL     1      -0.704   7.012   1.013  0.00  0.00    +0.038 A 
ATOM     29  C   UNL     1      -1.717   7.188   0.086  0.00  0.00    +0.123 A 
ATOM     30  C   UNL     1      -2.732   6.252  -0.014  0.00  0.00    +0.038 A 
ATOM     31  C   UNL     1      -2.734   5.144   0.811  0.00  0.00    +0.008 A 
ATOM     32  F   UNL     1      -1.714   8.272  -0.720  0.00  0.00    -0.205 F 
ENDBRANCH  25  26
ENDBRANCH  17  25
ENDBRANCH   1  17
TORSDOF 8
