REMARK  Name = ZINC03143096
REMARK  12 active torsions:
REMARK  status: ('A' for Active; 'I' for Inactive)
REMARK    1  A    between atoms: C_1  and  C_2
REMARK    2  A    between atoms: C_2  and  C_3
REMARK    3  A    between atoms: C_3  and  C_5
REMARK    4  A    between atoms: C_3  and  N_29
REMARK    5  A    between atoms: N_7  and  C_8
REMARK    6  A    between atoms: N_7  and  C_9
REMARK    7  A    between atoms: C_9  and  C_11
REMARK    8  A    between atoms: C_9  and  C_18
REMARK    9  A    between atoms: C_14  and  O_17
REMARK   10  A    between atoms: N_20  and  C_21
REMARK   11  A    between atoms: C_22  and  C_28
REMARK   12  A    between atoms: C_26  and  C_27
REMARK                            x       y       z     vdW  Elec       q    Type
REMARK                         _______ _______ _______ _____ _____    ______ ____
ROOT
ATOM      1  C   UNL     1       1.413  -4.327   0.571  0.00  0.00    +0.192 C 
ENDROOT
BRANCH   1   2
ATOM      2  C   UNL     1       0.384  -5.338   1.007  0.00  0.00    -0.018 A 
ATOM      3  C   UNL     1      -0.467  -5.903   0.074  0.00  0.00    +0.009 A 
ATOM      4  C   UNL     1      -1.411  -6.829   0.472  0.00  0.00    +0.046 A 
ATOM      5  C   UNL     1      -1.506  -7.193   1.807  0.00  0.00    +0.117 A 
ATOM      6  C   UNL     1      -0.651  -6.625   2.741  0.00  0.00    +0.046 A 
ATOM      7  C   UNL     1       0.295  -5.703   2.338  0.00  0.00    +0.009 A 
BRANCH   5   8
ATOM      8  O   UNL     1      -2.435  -8.104   2.200  0.00  0.00    -0.507 OA
ATOM      9  H   UNL     1      -2.123  -9.018   2.178  0.00  0.00    +0.292 HD
ENDBRANCH   5   8
ENDBRANCH   1   2
BRANCH   1  12
ATOM     10  C   UNL     1       0.949  -1.945   0.790  0.00  0.00    +0.237 C 
ATOM     11  O   UNL     1       0.767  -1.901  -0.408  0.00  0.00    -0.274 OA
ATOM     12  N   UNL     1       1.277  -3.112   1.378  0.00  0.00    -0.287 N 
ATOM     13  C   UNL     1       1.498  -3.166   2.826  0.00  0.00    +0.133 C 
BRANCH  10  14
ATOM     14  C   UNL     1       0.809  -0.696   1.620  0.00  0.00    +0.170 C 
BRANCH  14  15
ATOM     15  N   UNL     1       0.450   0.429   0.753  0.00  0.00    -0.222 N 
ATOM     16  C   UNL     1      -0.664   0.485   0.002  0.00  0.00    +0.254 C 
ATOM     17  O   UNL     1      -1.518  -0.376  -0.065  0.00  0.00    -0.270 OA
ATOM     18  C   UNL     1      -0.676   1.770  -0.729  0.00  0.00    +0.049 A 
ATOM     19  C   UNL     1      -1.547   2.365  -1.627  0.00  0.00    +0.014 A 
ATOM     20  C   UNL     1      -1.253   3.618  -2.143  0.00  0.00    +0.001 A 
ATOM     21  C   UNL     1      -0.098   4.277  -1.767  0.00  0.00    +0.001 A 
ATOM     22  C   UNL     1       0.784   3.694  -0.870  0.00  0.00    +0.014 A 
ATOM     23  C   UNL     1       0.503   2.442  -0.346  0.00  0.00    +0.049 A 
ATOM     24  C   UNL     1       1.188   1.545   0.608  0.00  0.00    +0.254 C 
ATOM     25  O   UNL     1       2.241   1.775   1.167  0.00  0.00    -0.270 OA
ENDBRANCH  14  15
BRANCH  14  27
ATOM     26  C   UNL     1      -0.342   0.319   3.592  0.00  0.00    +0.006 C 
ATOM     27  C   UNL     1      -0.285  -0.900   2.670  0.00  0.00    +0.029 C 
ENDBRANCH  14  27
ENDBRANCH  10  14
ENDBRANCH   1  12
BRANCH   1  28
ATOM     28  C   UNL     1       2.793  -4.903   0.758  0.00  0.00    +0.242 C 
ATOM     29  O   UNL     1       3.585  -4.353   1.494  0.00  0.00    -0.273 OA
ATOM     30  N   UNL     1       3.147  -6.029   0.108  0.00  0.00    -0.283 N 
ATOM     31  H   UNL     1       2.493  -6.508  -0.424  0.00  0.00    +0.155 HD
BRANCH  30  32
ATOM     32  C   UNL     1       4.459  -6.508   0.201  0.00  0.00    +0.039 A 
ATOM     33  C   UNL     1       4.694  -7.830   0.555  0.00  0.00    -0.029 A 
ATOM     34  C   UNL     1       5.990  -8.299   0.646  0.00  0.00    +0.005 A 
ATOM     35  C   UNL     1       7.053  -7.454   0.385  0.00  0.00    +0.001 A 
ATOM     36  C   UNL     1       6.822  -6.137   0.033  0.00  0.00    +0.005 A 
ATOM     37  C   UNL     1       5.528  -5.663  -0.066  0.00  0.00    -0.029 A 
ATOM     38  C   UNL     1       5.278  -4.230  -0.457  0.00  0.00    +0.045 C 
ATOM     39  C   UNL     1       3.536  -8.752   0.840  0.00  0.00    +0.045 C 
ENDBRANCH  30  32
ENDBRANCH   1  28
TORSDOF 8
