REMARK  Name = ZINC31159024
REMARK  7 active torsions:
REMARK  status: ('A' for Active; 'I' for Inactive)
REMARK    1  A    between atoms: C_1  and  C_2
REMARK    2  A    between atoms: C_21  and  O_22
REMARK    3  A    between atoms: O_22  and  C_23
REMARK    4  A    between atoms: C_25  and  O_37
REMARK    5  A    between atoms: C_27  and  O_36
REMARK    6  A    between atoms: C_29  and  O_35
REMARK    7  A    between atoms: C_31  and  C_34
REMARK                            x       y       z     vdW  Elec       q    Type
REMARK                         _______ _______ _______ _____ _____    ______ ____
ROOT
ATOM      1  C   UNL     1      -0.019   1.526   0.010  0.00  0.00    +0.008 C 
ATOM      2  C   UNL     1       0.002  -0.004   0.002  0.00  0.00    -0.002 C 
ATOM      3  C   UNL     1       0.717  -0.496  -1.253  0.00  0.00    +0.039 C 
ATOM      4  C   UNL     1       0.874  -1.993  -1.242  0.00  0.00    -0.036 A 
ATOM      5  C   UNL     1       1.048  -2.659  -2.445  0.00  0.00    +0.005 A 
ATOM      6  C   UNL     1       1.203  -4.032  -2.480  0.00  0.00    +0.013 A 
ATOM      7  C   UNL     1       1.186  -4.771  -1.298  0.00  0.00    +0.034 A 
ATOM      8  C   UNL     1       1.007  -4.113  -0.072  0.00  0.00    +0.044 A 
ATOM      9  C   UNL     1       0.850  -2.719  -0.049  0.00  0.00    +0.032 A 
ATOM     10  C   UNL     1       0.651  -2.024   1.239  0.00  0.00    +0.164 C 
ATOM     11  O   UNL     1       0.422  -2.642   2.257  0.00  0.00    -0.292 OA
ATOM     12  C   UNL     1       0.745  -0.513   1.245  0.00  0.00    +0.083 C 
ATOM     13  C   UNL     1       0.986  -4.895   1.185  0.00  0.00    +0.199 C 
ATOM     14  O   UNL     1       0.588  -4.391   2.217  0.00  0.00    -0.286 OA
ATOM     15  C   UNL     1       1.454  -6.294   1.171  0.00  0.00    +0.075 A 
ATOM     16  C   UNL     1       1.637  -6.956  -0.060  0.00  0.00    +0.037 A 
ATOM     17  C   UNL     1       2.080  -8.272  -0.075  0.00  0.00    +0.012 A 
ATOM     18  C   UNL     1       2.339  -8.930   1.119  0.00  0.00    +0.004 A 
ATOM     19  C   UNL     1       2.161  -8.289   2.326  0.00  0.00    +0.046 A 
ATOM     20  C   UNL     1       1.718  -6.969   2.365  0.00  0.00    +0.135 A 
ATOM     21  C   UNL     1       1.355  -6.241  -1.324  0.00  0.00    +0.195 C 
ATOM     22  O   UNL     1       1.263  -6.853  -2.369  0.00  0.00    -0.287 OA
ENDROOT
BRANCH  20  23
ATOM     23  O   UNL     1       1.544  -6.342   3.555  0.00  0.00    -0.460 OA
BRANCH  23  24
ATOM     24  C   UNL     1       1.834  -7.096   4.734  0.00  0.00    +0.339 C 
ATOM     25  C   UNL     1       1.701  -6.194   5.963  0.00  0.00    +0.214 C 
ATOM     26  C   UNL     1       0.255  -5.701   6.071  0.00  0.00    +0.180 C 
ATOM     27  C   UNL     1      -0.682  -6.911   6.134  0.00  0.00    +0.174 C 
ATOM     28  C   UNL     1      -0.457  -7.786   4.898  0.00  0.00    +0.150 C 
ATOM     29  O   UNL     1       0.914  -8.185   4.841  0.00  0.00    -0.334 OA
ATOM     30  C   UNL     1      -1.346  -9.028   4.983  0.00  0.00    +0.041 C 
BRANCH  27  31
ATOM     31  O   UNL     1      -2.039  -6.464   6.163  0.00  0.00    -0.387 OA
ATOM     32  H   UNL     1      -2.688  -7.179   6.204  0.00  0.00    +0.210 HD
ENDBRANCH  27  31
BRANCH  26  33
ATOM     33  O   UNL     1       0.105  -4.915   7.255  0.00  0.00    -0.386 OA
ATOM     34  H   UNL     1       0.674  -4.135   7.284  0.00  0.00    +0.210 HD
ENDBRANCH  26  33
BRANCH  25  35
ATOM     35  O   UNL     1       2.044  -6.933   7.137  0.00  0.00    -0.383 OA
ATOM     36  H   UNL     1       2.947  -7.279   7.134  0.00  0.00    +0.210 HD
ENDBRANCH  25  35
ENDBRANCH  23  24
ENDBRANCH  20  23
TORSDOF 5
