REMARK  Name = ZINC15727109
REMARK  12 active torsions:
REMARK  status: ('A' for Active; 'I' for Inactive)
REMARK    1  A    between atoms: C_1  and  C_2
REMARK    2  A    between atoms: C_5  and  N_9
REMARK    3  A    between atoms: C_6  and  C_8
REMARK    4  A    between atoms: C_10  and  C_31
REMARK    5  A    between atoms: C_11  and  C_14
REMARK    6  A    between atoms: N_16  and  C_17
REMARK    7  A    between atoms: C_19  and  C_27
REMARK    8  A    between atoms: C_21  and  C_23
REMARK    9  A    between atoms: C_23  and  O_25
REMARK   10  A    between atoms: O_25  and  C_26
REMARK   11  A    between atoms: C_27  and  O_29
REMARK   12  A    between atoms: O_29  and  C_30
REMARK                            x       y       z     vdW  Elec       q    Type
REMARK                         _______ _______ _______ _____ _____    ______ ____
ROOT
ATOM      1  N   UNL     1       3.808  -4.976  -7.639  0.00  0.00    -0.235 N 
ATOM      2  C   UNL     1       3.521  -4.026  -6.731  0.00  0.00    +0.060 A 
ATOM      3  C   UNL     1       3.060  -4.665  -5.597  0.00  0.00    +0.078 A 
ATOM      4  C   UNL     1       3.073  -6.053  -5.865  0.00  0.00    +0.148 A 
ATOM      5  N   UNL     1       3.519  -6.226  -7.079  0.00  0.00    -0.174 NA
ENDROOT
BRANCH   1  10
ATOM      6  C   UNL     1       5.828  -4.069 -12.864  0.00  0.00    +0.044 C 
ATOM      7  C   UNL     1       5.292  -4.310 -11.477  0.00  0.00    -0.050 A 
ATOM      8  C   UNL     1       4.191  -3.602 -11.030  0.00  0.00    +0.005 A 
ATOM      9  C   UNL     1       3.698  -3.820  -9.758  0.00  0.00    +0.028 A 
ATOM     10  C   UNL     1       4.307  -4.752  -8.929  0.00  0.00    +0.069 A 
ATOM     11  C   UNL     1       5.415  -5.457  -9.379  0.00  0.00    -0.025 A 
ATOM     12  C   UNL     1       5.901  -5.238 -10.653  0.00  0.00    +0.008 A 
ATOM     13  C   UNL     1       6.084  -6.465  -8.479  0.00  0.00    +0.046 C 
ENDBRANCH   1  10
BRANCH   2  14
ATOM     14  C   UNL     1       3.677  -2.539  -6.915  0.00  0.00    +0.035 C 
ATOM     15  C   UNL     1       4.614  -1.985  -5.838  0.00  0.00    -0.010 C 
ATOM     16  C   UNL     1       4.720  -0.466  -5.994  0.00  0.00    -0.082 C 
ATOM     17  C   UNL     1       2.483  -0.346  -6.917  0.00  0.00    -0.082 C 
ATOM     18  C   UNL     1       2.310  -1.861  -6.789  0.00  0.00    -0.010 C 
ATOM     19  N   UNL     1       3.383   0.143  -5.856  0.00  0.00    +0.379 N 
ATOM     20  H   UNL     1       3.468   1.164  -5.928  0.00  0.00    -0.086 HD
ATOM     21  H   UNL     1       2.992  -0.104  -4.939  0.00  0.00    -0.086 HD
ENDBRANCH   2  14
BRANCH   3  22
ATOM     22  C   UNL     1       2.629  -4.021  -4.343  0.00  0.00    +0.252 C 
ATOM     23  O   UNL     1       2.565  -2.808  -4.274  0.00  0.00    -0.270 OA
ATOM     24  N   UNL     1       2.306  -4.775  -3.274  0.00  0.00    -0.281 N 
ATOM     25  H   UNL     1       2.430  -5.737  -3.304  0.00  0.00    +0.155 HD
BRANCH  24  26
ATOM     26  C   UNL     1       1.790  -4.171  -2.122  0.00  0.00    +0.035 A 
ATOM     27  C   UNL     1       2.093  -4.693  -0.873  0.00  0.00    +0.038 A 
ATOM     28  C   UNL     1       1.581  -4.093   0.279  0.00  0.00    +0.062 A 
ATOM     29  C   UNL     1       0.763  -2.969   0.173  0.00  0.00    +0.030 A 
ATOM     30  C   UNL     1       0.461  -2.448  -1.084  0.00  0.00    +0.062 A 
ATOM     31  C   UNL     1       0.972  -3.056  -2.232  0.00  0.00    +0.038 A 
BRANCH  30  32
ATOM     32  C   UNL     1      -0.405  -1.256  -1.202  0.00  0.00    +0.339 C 
ATOM     33  O   UNL     1      -0.668  -0.803  -2.297  0.00  0.00    -0.245 OA
BRANCH  32  34
ATOM     34  O   UNL     1      -0.903  -0.673  -0.094  0.00  0.00    -0.464 OA
ATOM     35  C   UNL     1      -1.746   0.494  -0.285  0.00  0.00    +0.280 C 
ENDBRANCH  32  34
ENDBRANCH  30  32
BRANCH  28  36
ATOM     36  C   UNL     1       1.904  -4.649   1.609  0.00  0.00    +0.339 C 
ATOM     37  O   UNL     1       2.616  -5.629   1.701  0.00  0.00    -0.245 OA
BRANCH  36  38
ATOM     38  O   UNL     1       1.408  -4.070   2.720  0.00  0.00    -0.464 OA
ATOM     39  C   UNL     1       1.767  -4.670   3.993  0.00  0.00    +0.280 C 
ENDBRANCH  36  38
ENDBRANCH  28  36
ENDBRANCH  24  26
ENDBRANCH   3  22
TORSDOF 8
