REMARK  Name = ZINC20929357
REMARK  11 active torsions:
REMARK  status: ('A' for Active; 'I' for Inactive)
REMARK    1  A    between atoms: C_1  and  C_2
REMARK    2  A    between atoms: C_7  and  N_8
REMARK    3  A    between atoms: N_12  and  S_24
REMARK    4  A    between atoms: C_14  and  C_15
REMARK    5  A    between atoms: C_14  and  C_16
REMARK    6  A    between atoms: N_18  and  C_19
REMARK    7  A    between atoms: C_19  and  C_20
REMARK    8  A    between atoms: C_20  and  C_21
REMARK    9  A    between atoms: C_21  and  C_22
REMARK   10  A    between atoms: C_21  and  C_23
REMARK   11  A    between atoms: S_24  and  C_27
REMARK                            x       y       z     vdW  Elec       q    Type
REMARK                         _______ _______ _______ _____ _____    ______ ____
ROOT
ATOM      1  N   UNL     1       2.217   1.662   0.970  0.00  0.00    -0.254 N 
ATOM      2  C   UNL     1       2.520   0.844   1.979  0.00  0.00    +0.236 C 
ATOM      3  O   UNL     1       1.678   0.634   2.826  0.00  0.00    -0.274 OA
ATOM      4  C   UNL     1       3.858   0.170   2.115  0.00  0.00    +0.205 C 
ATOM      5  N   UNL     1       4.596   0.316   0.851  0.00  0.00    -0.165 NA
ATOM      6  C   UNL     1       4.548   1.631   0.190  0.00  0.00    +0.145 C 
ATOM      7  C   UNL     1       3.089   1.932  -0.165  0.00  0.00    +0.129 C 
ATOM      8  C   UNL     1       2.962   3.405  -0.558  0.00  0.00    +0.043 C 
ENDROOT
BRANCH   1  15
ATOM      9  C   UNL     1       1.969   4.046   2.502  0.00  0.00    +0.046 C 
ATOM     10  C   UNL     1       0.807   3.467   1.736  0.00  0.00    -0.028 A 
ATOM     11  C   UNL     1      -0.424   4.093   1.769  0.00  0.00    +0.025 A 
ATOM     12  C   UNL     1      -1.489   3.564   1.062  0.00  0.00    +0.041 A 
ATOM     13  C   UNL     1      -1.327   2.402   0.328  0.00  0.00    +0.022 A 
ATOM     14  C   UNL     1      -0.100   1.769   0.296  0.00  0.00    +0.025 A 
ATOM     15  C   UNL     1       0.972   2.301   1.001  0.00  0.00    +0.040 A 
ATOM     16 CL   UNL     1      -3.033   4.357   1.100  0.00  0.00    -0.084 Cl
ENDBRANCH   1  15
BRANCH   7  17
ATOM     17  C   UNL     1       2.669   1.072  -1.329  0.00  0.00    +0.238 C 
ATOM     18  O   UNL     1       1.822   0.217  -1.177  0.00  0.00    -0.273 OA
ATOM     19  N   UNL     1       3.235   1.251  -2.539  0.00  0.00    -0.313 N 
ATOM     20  H   UNL     1       4.044   1.987  -2.664  0.00  0.00    +0.149 HD
BRANCH  19  21
ATOM     21  C   UNL     1       2.774   0.467  -3.687  0.00  0.00    +0.104 C 
BRANCH  21  22
ATOM     22  C   UNL     1       3.556   0.882  -4.935  0.00  0.00    +0.022 C 
BRANCH  22  23
ATOM     23  C   UNL     1       3.013   0.129  -6.151  0.00  0.00    -0.016 C 
ATOM     24  C   UNL     1       3.728   0.615  -7.413  0.00  0.00    +0.007 C 
ATOM     25  C   UNL     1       3.257  -1.371  -5.972  0.00  0.00    +0.007 C 
ENDBRANCH  22  23
ENDBRANCH  21  22
ENDBRANCH  19  21
ENDBRANCH   7  17
BRANCH   5  26
ATOM     26  S   UNL     1       5.444  -0.947   0.198  0.00  0.00    +0.061 S 
ATOM     27  O   UNL     1       6.241  -0.404  -0.846  0.00  0.00    -0.153 OA
ATOM     28  O   UNL     1       6.003  -1.667   1.287  0.00  0.00    -0.153 OA
BRANCH  26  29
ATOM     29  C   UNL     1       4.274  -2.019  -0.568  0.00  0.00    +0.105 A 
ATOM     30  C   UNL     1       3.608  -2.967   0.187  0.00  0.00    +0.028 A 
ATOM     31  C   UNL     1       2.688  -3.806  -0.413  0.00  0.00    +0.002 A 
ATOM     32  C   UNL     1       2.440  -3.703  -1.769  0.00  0.00    +0.000 A 
ATOM     33  C   UNL     1       3.110  -2.759  -2.525  0.00  0.00    +0.002 A 
ATOM     34  C   UNL     1       4.027  -1.917  -1.924  0.00  0.00    +0.028 A 
ENDBRANCH  26  29
ENDBRANCH   5  26
TORSDOF 7
