REMARK  Name = ZINC36167626
REMARK  19 active torsions:
REMARK  status: ('A' for Active; 'I' for Inactive)
REMARK    1  A    between atoms: C_1  and  C_2
REMARK    2  A    between atoms: C_2  and  C_3
REMARK    3  A    between atoms: C_3  and  N_4
REMARK    4  A    between atoms: N_4  and  C_5
REMARK    5  A    between atoms: N_4  and  C_29
REMARK    6  A    between atoms: C_5  and  C_6
REMARK    7  A    between atoms: C_9  and  C_11
REMARK    8  A    between atoms: C_11  and  C_12
REMARK    9  A    between atoms: C_11  and  C_20
REMARK   10  A    between atoms: C_11  and  O_28
REMARK   11  A    between atoms: C_15  and  O_18
REMARK   12  A    between atoms: O_18  and  C_19
REMARK   13  A    between atoms: C_23  and  O_26
REMARK   14  A    between atoms: O_26  and  C_27
REMARK   15  A    between atoms: C_29  and  C_30
REMARK   16  A    between atoms: C_32  and  O_38
REMARK   17  A    between atoms: C_34  and  O_36
REMARK   18  A    between atoms: O_36  and  C_37
REMARK   19  A    between atoms: O_38  and  C_39
REMARK                            x       y       z     vdW  Elec       q    Type
REMARK                         _______ _______ _______ _____ _____    ______ ____
ROOT
ATOM      1  C   UNL     1      -3.404  -2.177  -3.137  0.00  0.00    +0.089 A 
ATOM      2  C   UNL     1      -3.294  -2.659  -4.388  0.00  0.00    +0.043 A 
ATOM      3  C   UNL     1      -3.556  -1.583  -5.267  0.00  0.00    +0.048 A 
ATOM      4  C   UNL     1      -3.810  -0.507  -4.500  0.00  0.00    +0.146 A 
ATOM      5  O   UNL     1      -3.722  -0.874  -3.212  0.00  0.00    -0.463 OA
ENDROOT
BRANCH   1   6
ATOM      6  C   UNL     1      -3.208  -2.965  -1.868  0.00  0.00    -0.003 C 
BRANCH   6   7
ATOM      7  N   UNL     1      -1.800  -2.894  -1.459  0.00  0.00    +0.387 N 
ATOM      8  H   UNL     1      -1.212  -3.203  -2.219  0.00  0.00    -0.081 HD
BRANCH   7   9
ATOM      9  C   UNL     1      -1.461  -1.507  -1.111  0.00  0.00    -0.078 C 
BRANCH   9  11
ATOM     10  C   UNL     1       0.419   0.060  -0.608  0.00  0.00    +0.002 C 
ATOM     11  C   UNL     1       0.037  -1.407  -0.817  0.00  0.00    -0.022 C 
ENDBRANCH   9  11
ENDBRANCH   7   9
BRANCH   7  12
ATOM     12  C   UNL     1      -1.584  -3.758  -0.291  0.00  0.00    -0.042 C 
BRANCH  12  13
ATOM     13  C   UNL     1      -1.793  -5.197  -0.686  0.00  0.00    -0.057 A 
ATOM     14  C   UNL     1      -3.013  -5.805  -0.459  0.00  0.00    +0.047 A 
ATOM     15  C   UNL     1      -3.208  -7.130  -0.822  0.00  0.00    +0.124 A 
ATOM     16  C   UNL     1      -2.177  -7.845  -1.413  0.00  0.00    +0.091 A 
ATOM     17  C   UNL     1      -0.954  -7.233  -1.639  0.00  0.00    +0.124 A 
ATOM     18  C   UNL     1      -0.766  -5.906  -1.280  0.00  0.00    +0.047 A 
BRANCH  17  19
ATOM     19  O   UNL     1       0.059  -7.931  -2.218  0.00  0.00    -0.495 OA
ATOM     20  C   UNL     1      -0.207  -9.290  -2.567  0.00  0.00    +0.277 C 
ENDBRANCH  17  19
BRANCH  15  21
ATOM     21  O   UNL     1      -4.408  -7.727  -0.599  0.00  0.00    -0.495 OA
ATOM     22  C   UNL     1      -4.538  -9.093  -0.998  0.00  0.00    +0.277 C 
ENDBRANCH  15  21
ENDBRANCH  12  13
ENDBRANCH   7  12
ENDBRANCH   6   7
ENDBRANCH   1   6
BRANCH   4  23
ATOM     23  C   UNL     1      -4.142   0.874  -5.003  0.00  0.00    +0.174 C 
BRANCH  23  24
ATOM     24  C   UNL     1      -5.035   1.570  -4.007  0.00  0.00    -0.004 A 
ATOM     25  C   UNL     1      -6.298   1.984  -4.385  0.00  0.00    +0.011 A 
ATOM     26  C   UNL     1      -7.118   2.622  -3.474  0.00  0.00    +0.046 A 
ATOM     27  C   UNL     1      -6.673   2.847  -2.180  0.00  0.00    +0.120 A 
ATOM     28  C   UNL     1      -5.404   2.430  -1.803  0.00  0.00    +0.046 A 
ATOM     29  C   UNL     1      -4.590   1.787  -2.716  0.00  0.00    +0.011 A 
BRANCH  27  30
ATOM     30  O   UNL     1      -7.477   3.475  -1.282  0.00  0.00    -0.495 OA
ATOM     31  C   UNL     1      -6.952   3.672   0.032  0.00  0.00    +0.277 C 
ENDBRANCH  27  30
ENDBRANCH  23  24
BRANCH  23  32
ATOM     32  C   UNL     1      -2.871   1.665  -5.176  0.00  0.00    -0.004 A 
ATOM     33  C   UNL     1      -1.828   1.499  -4.284  0.00  0.00    +0.011 A 
ATOM     34  C   UNL     1      -0.662   2.223  -4.441  0.00  0.00    +0.046 A 
ATOM     35  C   UNL     1      -0.538   3.117  -5.495  0.00  0.00    +0.120 A 
ATOM     36  C   UNL     1      -1.586   3.281  -6.389  0.00  0.00    +0.046 A 
ATOM     37  C   UNL     1      -2.748   2.551  -6.231  0.00  0.00    +0.011 A 
BRANCH  35  38
ATOM     38  O   UNL     1       0.608   3.831  -5.651  0.00  0.00    -0.495 OA
ATOM     39  C   UNL     1       0.665   4.732  -6.758  0.00  0.00    +0.277 C 
ENDBRANCH  35  38
ENDBRANCH  23  32
BRANCH  23  40
ATOM     40  O   UNL     1      -4.817   0.775  -6.259  0.00  0.00    -0.372 OA
ATOM     41  H   UNL     1      -5.645   0.278  -6.222  0.00  0.00    +0.212 HD
ENDBRANCH  23  40
ENDBRANCH   4  23
TORSDOF 14
