REMARK  Name = ZINC19354137
REMARK  6 active torsions:
REMARK  status: ('A' for Active; 'I' for Inactive)
REMARK    1  A    between atoms: C_1  and  C_2
REMARK    2  A    between atoms: C_2  and  C_3
REMARK    3  A    between atoms: C_3  and  C_4
REMARK    4  A    between atoms: C_4  and  N_5
REMARK    5  A    between atoms: C_7  and  C_11
REMARK    6  A    between atoms: C_8  and  C_10
REMARK                            x       y       z     vdW  Elec       q    Type
REMARK                         _______ _______ _______ _____ _____    ______ ____
ROOT
ATOM      1  C   UNL     1       1.604  -3.458  -5.976  0.00  0.00    +0.213 C 
ATOM      2  N   UNL     1       0.638  -2.518  -6.575  0.00  0.00    -0.294 N 
ATOM      3  C   UNL     1      -0.713  -2.759  -6.371  0.00  0.00    +0.159 C 
ATOM      4  N   UNL     1      -1.512  -1.836  -5.916  0.00  0.00    -0.375 N 
ATOM      5  N   UNL     1      -1.170  -4.040  -6.679  0.00  0.00    -0.259 N 
ATOM      6  C   UNL     1      -0.262  -5.067  -6.426  0.00  0.00    +0.205 A 
ATOM      7  N   UNL     1       1.049  -4.810  -6.102  0.00  0.00    -0.288 N 
ATOM      8  C   UNL     1       1.678  -6.024  -5.926  0.00  0.00    +0.076 A 
ATOM      9  C   UNL     1       2.974  -6.403  -5.601  0.00  0.00    +0.077 A 
ATOM     10  C   UNL     1       3.289  -7.743  -5.491  0.00  0.00    +0.164 A 
ATOM     11  C   UNL     1       2.319  -8.717  -5.707  0.00  0.00    +0.164 A 
ATOM     12  C   UNL     1       1.028  -8.357  -6.036  0.00  0.00    +0.079 A 
ATOM     13  C   UNL     1       0.695  -7.004  -6.148  0.00  0.00    +0.095 A 
ATOM     14  N   UNL     1      -0.466  -6.351  -6.450  0.00  0.00    -0.214 NA
ATOM     15  O   UNL     1       2.650 -10.037  -5.589  0.00  0.00    -0.488 OA
ATOM     16  C   UNL     1       3.534 -10.551  -6.587  0.00  0.00    +0.232 C 
ATOM     17  C   UNL     1       4.983 -10.270  -6.220  0.00  0.00    +0.082 C 
ATOM     18  C   UNL     1       5.298  -8.783  -6.199  0.00  0.00    +0.232 C 
ATOM     19  O   UNL     1       4.562  -8.122  -5.168  0.00  0.00    -0.488 OA
ATOM     20  H   UNL     1       0.938  -1.756  -7.096  0.00  0.00    +0.151 HD
ATOM     21  H   UNL     1      -2.055  -4.205  -7.042  0.00  0.00    +0.158 HD
ATOM     22  H   UNL     1      -1.167  -0.953  -5.711  0.00  0.00    +0.158 HD
ATOM     23  H   UNL     1      -2.453  -2.032  -5.783  0.00  0.00    +0.158 HD
ENDROOT
BRANCH   1  26
ATOM     24  N   UNL     1       1.429  -2.707  -2.411  0.00  0.00    -0.252 N 
ATOM     25  C   UNL     1       0.837  -3.021  -3.583  0.00  0.00    +0.134 A 
ATOM     26  C   UNL     1       1.808  -3.123  -4.521  0.00  0.00    +0.052 A 
ATOM     27  C   UNL     1       3.034  -2.862  -3.901  0.00  0.00    +0.068 A 
ATOM     28  N   UNL     1       2.808  -2.607  -2.638  0.00  0.00    -0.175 NA
ATOM     29  C   UNL     1       4.383  -2.868  -4.573  0.00  0.00    +0.068 C 
ATOM     30 CL   UNL     1      -0.864  -3.253  -3.841  0.00  0.00    -0.062 Cl
BRANCH  24  31
ATOM     31  C   UNL     1       0.749  -2.501  -1.130  0.00  0.00    +0.145 C 
BRANCH  31  32
ATOM     32  C   UNL     1       0.361  -1.027  -0.990  0.00  0.00    +0.023 C 
BRANCH  32  34
ATOM     33  C   UNL     1      -0.738   0.661   0.488  0.00  0.00    +0.004 C 
ATOM     34  C   UNL     1      -0.349  -0.812   0.348  0.00  0.00    -0.002 C 
ENDBRANCH  32  34
ENDBRANCH  31  32
ENDBRANCH  24  31
ENDBRANCH   1  26
TORSDOF 4
