REMARK  Name = ZINC39675019
REMARK  10 active torsions:
REMARK  status: ('A' for Active; 'I' for Inactive)
REMARK    1  A    between atoms: C_1  and  C_2
REMARK    2  A    between atoms: C_4  and  C_34
REMARK    3  A    between atoms: N_5  and  C_7
REMARK    4  A    between atoms: C_7  and  C_8
REMARK    5  A    between atoms: C_8  and  N_9
REMARK    6  A    between atoms: C_10  and  C_12
REMARK    7  A    between atoms: C_23  and  C_25
REMARK    8  A    between atoms: C_29  and  N_31
REMARK    9  A    between atoms: N_31  and  C_32
REMARK   10  A    between atoms: N_31  and  C_33
REMARK                            x       y       z     vdW  Elec       q    Type
REMARK                         _______ _______ _______ _____ _____    ______ ____
ROOT
ATOM      1  C   UNL     1       2.526  -7.137   4.340  0.00  0.00    +0.100 C 
ATOM      2  C   UNL     1       1.812  -8.079   3.345  0.00  0.00    +0.121 C 
ATOM      3  N   UNL     1       2.910  -8.799   2.658  0.00  0.00    -0.296 N 
ATOM      4  C   UNL     1       3.901  -9.068   3.727  0.00  0.00    +0.115 C 
ATOM      5  C   UNL     1       3.895  -7.791   4.591  0.00  0.00    -0.004 C 
ATOM      6  C   UNL     1       5.017  -6.854   4.153  0.00  0.00    -0.010 C 
ATOM      7  C   UNL     1       6.368  -7.503   4.465  0.00  0.00    -0.082 C 
ATOM      8  N   UNL     1       6.463  -7.773   5.904  0.00  0.00    +0.379 N 
ATOM      9  C   UNL     1       5.438  -8.747   6.300  0.00  0.00    -0.082 C 
ATOM     10  C   UNL     1       4.047  -8.151   6.066  0.00  0.00    -0.010 C 
ATOM     11  C   UNL     1       2.990  -9.133   1.355  0.00  0.00    +0.247 C 
ATOM     12  O   UNL     1       2.153  -8.729   0.571  0.00  0.00    -0.270 OA
ATOM     13  H   UNL     1       7.377  -8.145   6.116  0.00  0.00    -0.086 HD
ATOM     14  H   UNL     1       6.325  -6.915   6.416  0.00  0.00    -0.086 HD
ENDROOT
BRANCH  11  15
ATOM     15  C   UNL     1       4.095  -9.992   0.878  0.00  0.00    +0.039 A 
ATOM     16  C   UNL     1       4.797 -10.795   1.779  0.00  0.00    +0.013 A 
ATOM     17  C   UNL     1       5.828 -11.595   1.332  0.00  0.00    +0.003 A 
ATOM     18  C   UNL     1       6.170 -11.606  -0.007  0.00  0.00    +0.023 A 
ATOM     19  C   UNL     1       5.478 -10.811  -0.913  0.00  0.00    +0.030 A 
ATOM     20  C   UNL     1       4.436 -10.007  -0.474  0.00  0.00    +0.036 A 
BRANCH  19  21
ATOM     21  N   UNL     1       5.827 -10.825  -2.265  0.00  0.00    -0.336 N 
ATOM     22  C   UNL     1       7.011 -11.566  -2.708  0.00  0.00    +0.129 C 
ATOM     23  C   UNL     1       5.011 -10.098  -3.241  0.00  0.00    +0.129 C 
ENDBRANCH  19  21
ENDBRANCH  11  15
BRANCH   1  25
ATOM     24  N   UNL     1       2.730  -4.679   4.526  0.00  0.00    -0.313 N 
ATOM     25  C   UNL     1       2.702  -5.769   3.734  0.00  0.00    +0.218 C 
ATOM     26  O   UNL     1       2.817  -5.648   2.532  0.00  0.00    -0.275 OA
ATOM     27  H   UNL     1       2.637  -4.775   5.487  0.00  0.00    +0.149 HD
BRANCH  24  28
ATOM     28  C   UNL     1       2.901  -3.349   3.936  0.00  0.00    +0.127 C 
BRANCH  28  29
ATOM     29  C   UNL     1       2.898  -2.295   5.045  0.00  0.00    +0.162 C 
BRANCH  29  34
ATOM     30  C   UNL     1       5.062   1.873   3.273  0.00  0.00    +0.067 C 
ATOM     31  C   UNL     1       4.036   0.849   3.686  0.00  0.00    +0.060 A 
ATOM     32  C   UNL     1       2.649   0.982   3.560  0.00  0.00    +0.047 A 
ATOM     33  C   UNL     1       2.078  -0.147   4.041  0.00  0.00    +0.036 A 
ATOM     34  N   UNL     1       3.069  -0.965   4.455  0.00  0.00    -0.267 N 
ATOM     35  N   UNL     1       4.289  -0.319   4.217  0.00  0.00    -0.176 NA
ATOM     36  C   UNL     1       0.601  -0.438   4.103  0.00  0.00    +0.065 C 
ENDBRANCH  29  34
ENDBRANCH  28  29
ENDBRANCH  24  28
ENDBRANCH   1  25
TORSDOF 6
