REMARK  Name = ZINC20438588
REMARK  11 active torsions:
REMARK  status: ('A' for Active; 'I' for Inactive)
REMARK    1  A    between atoms: C_1  and  C_2
REMARK    2  A    between atoms: C_2  and  C_3
REMARK    3  A    between atoms: C_3  and  N_4
REMARK    4  A    between atoms: C_5  and  C_7
REMARK    5  A    between atoms: C_7  and  N_24
REMARK    6  A    between atoms: C_8  and  C_9
REMARK    7  A    between atoms: N_11  and  S_18
REMARK    8  A    between atoms: S_18  and  N_21
REMARK    9  A    between atoms: N_21  and  C_22
REMARK   10  A    between atoms: N_21  and  C_23
REMARK   11  A    between atoms: C_25  and  C_27
REMARK                            x       y       z     vdW  Elec       q    Type
REMARK                         _______ _______ _______ _____ _____    ______ ____
ROOT
ATOM      1  C   UNL     1      -5.399   4.051   2.410  0.00  0.00    +0.097 C 
ATOM      2  C   UNL     1      -4.046   3.992   2.498  0.00  0.00    +0.038 C 
ENDROOT
BRANCH   2   3
ATOM      3  C   UNL     1      -3.321   2.872   1.893  0.00  0.00    +0.004 A 
ATOM      4  C   UNL     1      -3.805   1.988   0.972  0.00  0.00    +0.122 A 
ATOM      5  N   UNL     1      -2.837   1.090   0.647  0.00  0.00    -0.208 N 
ATOM      6  C   UNL     1      -1.676   1.364   1.339  0.00  0.00    +0.074 A 
ATOM      7  C   UNL     1      -1.920   2.487   2.147  0.00  0.00    +0.009 A 
ATOM      8  C   UNL     1      -0.910   2.996   2.958  0.00  0.00    +0.010 A 
ATOM      9  C   UNL     1       0.328   2.390   2.969  0.00  0.00    +0.001 A 
ATOM     10  C   UNL     1       0.569   1.278   2.176  0.00  0.00    +0.002 A 
ATOM     11  C   UNL     1      -0.422   0.763   1.368  0.00  0.00    +0.028 A 
BRANCH   5  12
ATOM     12  S   UNL     1      -3.026  -0.155  -0.428  0.00  0.00    +0.123 S 
ATOM     13  O   UNL     1      -4.386  -0.136  -0.837  0.00  0.00    -0.136 OA
ATOM     14  O   UNL     1      -1.950  -0.061  -1.352  0.00  0.00    -0.136 OA
BRANCH  12  15
ATOM     15  N   UNL     1      -2.804  -1.565   0.413  0.00  0.00    -0.168 NA
ATOM     16  C   UNL     1      -3.901  -2.124   1.207  0.00  0.00    +0.133 C 
ATOM     17  C   UNL     1      -1.512  -2.253   0.363  0.00  0.00    +0.133 C 
ENDBRANCH  12  15
ENDBRANCH   5  12
ENDBRANCH   2   3
BRANCH   1  19
ATOM     18  N   UNL     1      -5.423   6.295   3.358  0.00  0.00    -0.310 N 
ATOM     19  C   UNL     1      -6.113   5.234   2.893  0.00  0.00    +0.258 C 
ATOM     20  O   UNL     1      -7.330   5.261   2.876  0.00  0.00    -0.269 OA
ATOM     21  H   UNL     1      -4.323   6.271   3.374  0.00  0.00    +0.149 HD
BRANCH  18  22
ATOM     22  C   UNL     1      -6.137   7.479   3.843  0.00  0.00    +0.104 C 
BRANCH  22  24
ATOM     23  C   UNL     1      -5.873   9.764   4.816  0.00  0.00    +0.005 C 
ATOM     24  C   UNL     1      -5.127   8.528   4.311  0.00  0.00    +0.015 C 
ENDBRANCH  22  24
ENDBRANCH  18  22
ENDBRANCH   1  19
BRANCH   1  25
ATOM     25  N   UNL     1      -6.114   2.980   1.855  0.00  0.00    -0.277 N 
ATOM     26  C   UNL     1      -6.932   3.187   0.804  0.00  0.00    +0.250 C 
ATOM     27  O   UNL     1      -6.986   4.285   0.283  0.00  0.00    -0.270 OA
ATOM     28  H   UNL     1      -6.006   1.970   2.277  0.00  0.00    +0.155 HD
BRANCH  26  29
ATOM     29  C   UNL     1      -7.763   2.082   0.285  0.00  0.00    +0.055 A 
ATOM     30  C   UNL     1      -7.699   0.819   0.877  0.00  0.00    +0.014 A 
ATOM     31  C   UNL     1      -8.481  -0.208   0.391  0.00  0.00    +0.001 A 
ATOM     32  C   UNL     1      -9.320   0.008  -0.689  0.00  0.00    +0.001 A 
ATOM     33  C   UNL     1      -9.385   1.254  -1.284  0.00  0.00    +0.021 A 
ATOM     34  C   UNL     1      -8.612   2.293  -0.804  0.00  0.00    +0.053 A 
ATOM     35 CL   UNL     1      -8.694   3.857  -1.553  0.00  0.00    -0.083 Cl
ENDBRANCH  26  29
ENDBRANCH   1  25
TORSDOF 8
