REMARK  Name = ZINC43773361
REMARK  7 active torsions:
REMARK  status: ('A' for Active; 'I' for Inactive)
REMARK    1  A    between atoms: C_1  and  C_2
REMARK    2  A    between atoms: C_7  and  C_8
REMARK    3  A    between atoms: C_8  and  C_9
REMARK    4  A    between atoms: C_8  and  C_10
REMARK    5  A    between atoms: C_11  and  C_14
REMARK    6  A    between atoms: C_14  and  C_15
REMARK    7  A    between atoms: N_17  and  C_18
REMARK                            x       y       z     vdW  Elec       q    Type
REMARK                         _______ _______ _______ _____ _____    ______ ____
ROOT
ATOM      1  C   UNL     1      -1.256  -5.834   0.978  0.00  0.00    +0.222 C 
ATOM      2  O   UNL     1      -2.219  -5.156   0.688  0.00  0.00    -0.275 OA
ATOM      3  N   UNL     1      -1.405  -6.905   1.783  0.00  0.00    -0.284 N 
ATOM      4  H   UNL     1      -0.627  -7.411   2.065  0.00  0.00    +0.155 HD
ENDROOT
BRANCH   3   5
ATOM      5  C   UNL     1      -2.683  -7.288   2.211  0.00  0.00    +0.055 A 
ATOM      6  C   UNL     1      -3.648  -6.322   2.463  0.00  0.00    +0.072 A 
ATOM      7  C   UNL     1      -4.909  -6.703   2.885  0.00  0.00    +0.144 A 
ATOM      8  C   UNL     1      -5.207  -8.054   3.057  0.00  0.00    +0.077 A 
ATOM      9  C   UNL     1      -4.243  -9.016   2.805  0.00  0.00    +0.048 A 
ATOM     10  C   UNL     1      -2.984  -8.634   2.377  0.00  0.00    +0.064 A 
ATOM     11 CL   UNL     1      -1.776  -9.839   2.054  0.00  0.00    -0.082 Cl
ATOM     12  N   UNL     1      -6.491  -8.423   3.487  0.00  0.00    -0.280 N 
ATOM     13  C   UNL     1      -7.490  -7.516   3.421  0.00  0.00    +0.255 C 
ATOM     14  O   UNL     1      -8.600  -7.803   3.816  0.00  0.00    -0.272 OA
ATOM     15  C   UNL     1      -7.218  -6.145   2.857  0.00  0.00    +0.325 C 
ATOM     16  O   UNL     1      -5.866  -5.770   3.135  0.00  0.00    -0.481 OA
ATOM     17  H   UNL     1      -6.659  -9.317   3.826  0.00  0.00    +0.155 HD
ENDBRANCH   3   5
BRANCH   1  18
ATOM     18  C   UNL     1       0.106  -5.479   0.440  0.00  0.00    +0.135 C 
BRANCH  18  26
ATOM     19  C   UNL     1       0.005   1.412   0.278  0.00  0.00    +0.044 C 
ATOM     20  C   UNL     1       0.013  -0.092   0.182  0.00  0.00    -0.044 A 
ATOM     21  C   UNL     1      -0.110  -0.697  -1.051  0.00  0.00    +0.050 A 
ATOM     22  C   UNL     1      -0.104  -2.082  -1.147  0.00  0.00    +0.135 A 
ATOM     23  C   UNL     1       0.029  -2.852   0.021  0.00  0.00    +0.024 A 
ATOM     24  C   UNL     1       0.153  -2.228   1.261  0.00  0.00    +0.016 A 
ATOM     25  C   UNL     1       0.149  -0.853   1.334  0.00  0.00    -0.041 A 
ATOM     26  C   UNL     1      -0.001  -4.250  -0.426  0.00  0.00    +0.007 A 
ATOM     27  C   UNL     1      -0.143  -4.214  -1.758  0.00  0.00    +0.200 A 
ATOM     28  O   UNL     1      -0.203  -2.940  -2.183  0.00  0.00    -0.463 OA
BRANCH  25  29
ATOM     29  C   UNL     1       0.289  -0.172   2.671  0.00  0.00    +0.013 C 
ATOM     30  C   UNL     1      -0.792  -0.688   3.622  0.00  0.00    +0.012 C 
ATOM     31  C   UNL     1       1.670  -0.475   3.256  0.00  0.00    +0.012 C 
ENDBRANCH  25  29
ENDBRANCH  18  26
ENDBRANCH   1  18
TORSDOF 4
