REMARK  Name = ZINC13063802
REMARK  19 active torsions:
REMARK  status: ('A' for Active; 'I' for Inactive)
REMARK    1  A    between atoms: C_1  and  C_2
REMARK    2  A    between atoms: C_2  and  C_3
REMARK    3  A    between atoms: C_3  and  C_5
REMARK    4  A    between atoms: C_3  and  N_79
REMARK    5  A    between atoms: N_9  and  C_10
REMARK    6  A    between atoms: C_10  and  C_11
REMARK    7  A    between atoms: C_10  and  C_12
REMARK    8  A    between atoms: C_10  and  C_13
REMARK    9  A    between atoms: C_13  and  C_14
REMARK   10  A    between atoms: C_15  and  C_16
REMARK   11  A    between atoms: C_15  and  N_79
REMARK   12  A    between atoms: C_16  and  C_17
REMARK   13  A    between atoms: C_20  and  O_25
REMARK   14  A    between atoms: C_21  and  O_23
REMARK   15  A    between atoms: O_23  and  C_24
REMARK   16  A    between atoms: O_25  and  C_26
REMARK   17  A    between atoms: C_27  and  C_28
REMARK   18  A    between atoms: C_27  and  N_79
REMARK   19  A    between atoms: C_33  and  C_40
REMARK                            x       y       z     vdW  Elec       q    Type
REMARK                         _______ _______ _______ _____ _____    ______ ____
ROOT
ATOM      1  N   UNL     1      -0.165   1.564  -0.379  0.00  0.00    +0.389 N 
ATOM      2  H   UNL     1      -0.440   1.583   0.610  0.00  0.00    -0.080 HD
ENDROOT
BRANCH   1   3
ATOM      3  C   UNL     1       1.208   2.097  -0.505  0.00  0.00    +0.003 C 
BRANCH   3   4
ATOM      4  C   UNL     1       1.942   1.841   0.786  0.00  0.00    +0.139 A 
ATOM      5  N   UNL     1       1.787   0.813   1.584  0.00  0.00    -0.115 NA
ATOM      6  N   UNL     1       2.593   0.957   2.579  0.00  0.00    -0.023 NA
ATOM      7  N   UNL     1       3.257   2.050   2.437  0.00  0.00    -0.043 NA
ATOM      8  N   UNL     1       2.889   2.621   1.340  0.00  0.00    -0.225 N 
BRANCH   8   9
ATOM      9  C   UNL     1       3.402   3.884   0.802  0.00  0.00    +0.061 C 
ATOM     10  C   UNL     1       3.855   3.674  -0.644  0.00  0.00    +0.036 C 
ATOM     11  C   UNL     1       2.297   4.941   0.842  0.00  0.00    +0.036 C 
BRANCH   9  12
ATOM     12  C   UNL     1       4.588   4.353   1.645  0.00  0.00    +0.026 C 
ATOM     13  C   UNL     1       5.056   5.723   1.149  0.00  0.00    +0.006 C 
ENDBRANCH   9  12
ENDBRANCH   8   9
ENDBRANCH   3   4
BRANCH   3  15
ATOM     14  C   UNL     1       1.288   1.792  -2.983  0.00  0.00    +0.002 C 
ATOM     15  C   UNL     1       1.944   1.408  -1.656  0.00  0.00    -0.011 C 
ENDBRANCH   3  15
ENDBRANCH   1   3
BRANCH   1  16
ATOM     16  C   UNL     1      -0.210   0.168  -0.862  0.00  0.00    -0.073 C 
BRANCH  16  17
ATOM     17  C   UNL     1       0.499  -0.729   0.154  0.00  0.00    +0.017 C 
BRANCH  17  18
ATOM     18  C   UNL     1       0.305  -2.173  -0.228  0.00  0.00    -0.045 A 
ATOM     19  C   UNL     1      -0.779  -2.877   0.263  0.00  0.00    +0.007 A 
ATOM     20  C   UNL     1      -0.965  -4.201  -0.089  0.00  0.00    +0.049 A 
ATOM     21  C   UNL     1      -0.057  -4.829  -0.926  0.00  0.00    +0.161 A 
ATOM     22  C   UNL     1       1.037  -4.122  -1.416  0.00  0.00    +0.162 A 
ATOM     23  C   UNL     1       1.214  -2.794  -1.064  0.00  0.00    +0.053 A 
BRANCH  22  24
ATOM     24  O   UNL     1       1.931  -4.734  -2.239  0.00  0.00    -0.491 OA
ATOM     25  C   UNL     1       3.030  -3.947  -2.703  0.00  0.00    +0.277 C 
ENDBRANCH  22  24
BRANCH  21  26
ATOM     26  O   UNL     1      -0.236  -6.133  -1.270  0.00  0.00    -0.491 OA
ATOM     27  C   UNL     1      -1.381  -6.795  -0.730  0.00  0.00    +0.277 C 
ENDBRANCH  21  26
ENDBRANCH  17  18
ENDBRANCH  16  17
ENDBRANCH   1  16
BRANCH   1  28
ATOM     28  C   UNL     1      -1.105   2.398  -1.156  0.00  0.00    -0.037 C 
BRANCH  28  29
ATOM     29  C   UNL     1      -1.239   3.738  -0.478  0.00  0.00    +0.001 A 
ATOM     30  C   UNL     1      -0.559   4.809  -0.958  0.00  0.00    +0.017 A 
ATOM     31  C   UNL     1      -0.711   6.096  -0.277  0.00  0.00    -0.001 A 
ATOM     32  C   UNL     1      -0.036   7.236  -0.725  0.00  0.00    +0.010 A 
ATOM     33  C   UNL     1      -0.199   8.422  -0.068  0.00  0.00    +0.004 A 
ATOM     34  C   UNL     1      -1.029   8.506   1.042  0.00  0.00    -0.048 A 
ATOM     35  C   UNL     1      -1.704   7.396   1.501  0.00  0.00    +0.029 A 
ATOM     36  C   UNL     1      -1.553   6.177   0.848  0.00  0.00    +0.049 A 
ATOM     37  N   UNL     1      -2.217   5.051   1.286  0.00  0.00    -0.322 N 
ATOM     38  H   UNL     1      -2.797   5.109   2.061  0.00  0.00    +0.169 HD
ATOM     39  C   UNL     1      -2.075   3.874   0.650  0.00  0.00    +0.251 A 
ATOM     40  O   UNL     1      -2.681   2.900   1.062  0.00  0.00    -0.268 OA
ATOM     41  C   UNL     1      -1.194   9.826   1.751  0.00  0.00    +0.044 C 
ENDBRANCH  28  29
ENDBRANCH   1  28
TORSDOF 12
