REMARK  Name = ZINC24215272
REMARK  7 active torsions:
REMARK  status: ('A' for Active; 'I' for Inactive)
REMARK    1  A    between atoms: C_1  and  C_2
REMARK    2  A    between atoms: C_3  and  C_14
REMARK    3  A    between atoms: C_4  and  C_13
REMARK    4  A    between atoms: N_5  and  C_7
REMARK    5  A    between atoms: N_21  and  C_22
REMARK    6  A    between atoms: C_22  and  C_23
REMARK    7  A    between atoms: N_25  and  C_26
REMARK                            x       y       z     vdW  Elec       q    Type
REMARK                         _______ _______ _______ _____ _____    ______ ____
ROOT
ATOM      1  C   UNL     1       4.710   5.513   1.069  0.00  0.00    +0.054 C 
ATOM      2  C   UNL     1       6.136   5.978   0.993  0.00  0.00    +0.204 C 
ATOM      3  O   UNL     1       6.812   5.946   1.999  0.00  0.00    -0.277 OA
ATOM      4  N   UNL     1       6.692   6.426  -0.138  0.00  0.00    -0.318 N 
ATOM      5  C   UNL     1       5.955   6.538  -1.394  0.00  0.00    +0.085 C 
ATOM      6  C   UNL     1       4.688   5.683  -1.337  0.00  0.00    -0.058 C 
ATOM      7  N   UNL     1       3.960   6.000  -0.097  0.00  0.00    +0.397 N 
ATOM      8  H   UNL     1       7.752   6.716  -0.094  0.00  0.00    +0.149 HD
ATOM      9  H   UNL     1       3.863   7.092  -0.017  0.00  0.00    -0.079 HD
ENDROOT
BRANCH   1  12
ATOM     10  C   UNL     1       3.749   8.493   1.554  0.00  0.00    +0.068 C 
ATOM     11  C   UNL     1       3.651   7.361   2.543  0.00  0.00    +0.063 A 
ATOM     12  C   UNL     1       4.076   6.045   2.328  0.00  0.00    -0.009 A 
ATOM     13  C   UNL     1       3.813   5.333   3.449  0.00  0.00    +0.044 A 
ATOM     14  N   UNL     1       3.248   6.173   4.346  0.00  0.00    -0.237 N 
ATOM     15  N   UNL     1       3.155   7.438   3.752  0.00  0.00    -0.171 NA
ATOM     16  C   UNL     1       4.100   3.869   3.660  0.00  0.00    +0.066 C 
BRANCH  14  17
ATOM     17  C   UNL     1       2.824   5.835   5.639  0.00  0.00    +0.066 A 
ATOM     18  C   UNL     1       1.630   6.341   6.134  0.00  0.00    +0.028 A 
ATOM     19  C   UNL     1       1.213   6.003   7.407  0.00  0.00    +0.002 A 
ATOM     20  C   UNL     1       1.989   5.170   8.191  0.00  0.00    +0.000 A 
ATOM     21  C   UNL     1       3.182   4.669   7.703  0.00  0.00    +0.002 A 
ATOM     22  C   UNL     1       3.602   4.999   6.429  0.00  0.00    +0.028 A 
ENDBRANCH  14  17
ENDBRANCH   1  12
BRANCH   7  23
ATOM     23  C   UNL     1       2.604   5.435  -0.125  0.00  0.00    +0.020 C 
BRANCH  23  24
ATOM     24  C   UNL     1       1.793   6.128  -1.190  0.00  0.00    +0.201 C 
ATOM     25  O   UNL     1       2.307   6.976  -1.887  0.00  0.00    -0.278 OA
ATOM     26  N   UNL     1       0.497   5.804  -1.366  0.00  0.00    -0.285 N 
ATOM     27  H   UNL     1       0.008   5.096  -0.681  0.00  0.00    +0.155 HD
BRANCH  26  28
ATOM     28  C   UNL     1      -0.226   6.368  -2.420  0.00  0.00    +0.062 A 
ATOM     29  C   UNL     1       0.032   7.644  -2.818  0.00  0.00    +0.025 A 
ATOM     30  C   UNL     1      -0.672   8.235  -3.865  0.00  0.00    +0.004 A 
ATOM     31  C   UNL     1      -1.644   7.569  -4.533  0.00  0.00    +0.031 A 
ATOM     32  C   UNL     1      -1.969   6.234  -4.175  0.00  0.00    +0.102 A 
ATOM     33  C   UNL     1      -1.236   5.609  -3.079  0.00  0.00    +0.121 A 
ATOM     34  N   UNL     1      -1.638   4.361  -2.856  0.00  0.00    -0.189 NA
ATOM     35  S   UNL     1      -2.778   4.075  -3.892  0.00  0.00    +0.117 S 
ATOM     36  N   UNL     1      -2.879   5.415  -4.699  0.00  0.00    -0.191 NA
ENDBRANCH  26  28
ENDBRANCH  23  24
ENDBRANCH   7  23
TORSDOF 5
