REMARK  Name = ZINC12833098
REMARK  9 active torsions:
REMARK  status: ('A' for Active; 'I' for Inactive)
REMARK    1  A    between atoms: C_1  and  C_2
REMARK    2  A    between atoms: C_5  and  C_32
REMARK    3  A    between atoms: C_9  and  C_14
REMARK    4  A    between atoms: C_14  and  N_60
REMARK    5  A    between atoms: C_15  and  C_16
REMARK    6  A    between atoms: C_15  and  N_60
REMARK    7  A    between atoms: C_21  and  C_22
REMARK    8  A    between atoms: C_21  and  N_60
REMARK    9  A    between atoms: N_26  and  C_27
REMARK                            x       y       z     vdW  Elec       q    Type
REMARK                         _______ _______ _______ _____ _____    ______ ____
ROOT
ATOM      1  N   UNL     1       2.174  -2.166  -1.120  0.00  0.00    +0.390 N 
ATOM      2  H   UNL     1       1.562  -1.550  -1.667  0.00  0.00    -0.080 HD
ENDROOT
BRANCH   1   3
ATOM      3  C   UNL     1       1.718  -3.563  -1.281  0.00  0.00    -0.036 C 
BRANCH   3  12
ATOM      4  C   UNL     1      -2.109  -3.352  -4.806  0.00  0.00    +0.044 C 
ATOM      5  C   UNL     1      -2.755  -3.462  -3.449  0.00  0.00    -0.041 A 
ATOM      6  C   UNL     1      -4.117  -3.490  -3.338  0.00  0.00    +0.004 A 
ATOM      7  C   UNL     1      -4.722  -3.592  -2.093  0.00  0.00    +0.005 A 
ATOM      8  C   UNL     1      -3.962  -3.668  -0.945  0.00  0.00    -0.026 A 
ATOM      9  C   UNL     1      -2.575  -3.641  -1.034  0.00  0.00    +0.052 A 
ATOM     10  C   UNL     1      -1.964  -3.538  -2.298  0.00  0.00    +0.002 A 
ATOM     11  C   UNL     1      -0.503  -3.511  -2.381  0.00  0.00    +0.017 A 
ATOM     12  C   UNL     1       0.212  -3.588  -1.231  0.00  0.00    +0.001 A 
ATOM     13  C   UNL     1      -0.449  -3.696   0.011  0.00  0.00    +0.251 A 
ATOM     14  O   UNL     1       0.214  -3.769   1.032  0.00  0.00    -0.268 OA
ATOM     15  N   UNL     1      -1.790  -3.716   0.098  0.00  0.00    -0.322 N 
ATOM     16  H   UNL     1      -2.212  -3.787   0.968  0.00  0.00    +0.169 HD
ATOM     17  C   UNL     1      -4.633  -3.779   0.400  0.00  0.00    +0.046 C 
ENDBRANCH   3  12
ENDBRANCH   1   3
BRANCH   1  18
ATOM     18  C   UNL     1       3.560  -2.028  -1.614  0.00  0.00    -0.035 C 
BRANCH  18  19
ATOM     19  C   UNL     1       3.545  -2.081  -3.120  0.00  0.00    -0.027 A 
ATOM     20  C   UNL     1       3.309  -1.084  -4.008  0.00  0.00    +0.009 A 
ATOM     21  C   UNL     1       3.351  -1.367  -5.360  0.00  0.00    +0.008 A 
ATOM     22  C   UNL     1       3.616  -2.635  -5.759  0.00  0.00    +0.045 A 
ATOM     23  S   UNL     1       3.825  -3.477  -4.198  0.00  0.00    -0.103 S 
ENDBRANCH  18  19
ENDBRANCH   1  18
BRANCH   1  24
ATOM     24  C   UNL     1       2.104  -1.773   0.303  0.00  0.00    +0.001 C 
BRANCH  24  25
ATOM     25  C   UNL     1       2.360  -0.291   0.411  0.00  0.00    +0.135 A 
ATOM     26  N   UNL     1       3.521   0.292   0.582  0.00  0.00    -0.115 NA
ATOM     27  N   UNL     1       3.325   1.564   0.629  0.00  0.00    -0.023 NA
ATOM     28  N   UNL     1       2.068   1.808   0.487  0.00  0.00    -0.044 NA
ATOM     29  N   UNL     1       1.441   0.690   0.346  0.00  0.00    -0.228 N 
BRANCH  29  30
ATOM     30  C   UNL     1      -0.002   0.519   0.159  0.00  0.00    +0.111 C 
ATOM     31  C   UNL     1      -0.767   1.153   1.339  0.00  0.00    +0.027 C 
ATOM     32  C   UNL     1      -1.144   2.568   0.830  0.00  0.00    +0.002 C 
ATOM     33  C   UNL     1      -1.487   2.317  -0.659  0.00  0.00    +0.002 C 
ATOM     34  C   UNL     1      -0.459   1.259  -1.111  0.00  0.00    +0.027 C 
ENDBRANCH  29  30
ENDBRANCH  24  25
ENDBRANCH   1  24
TORSDOF 7
