REMARK  Name = ZINC36065669
REMARK  14 active torsions:
REMARK  status: ('A' for Active; 'I' for Inactive)
REMARK    1  A    between atoms: C_1  and  C_2
REMARK    2  A    between atoms: C_2  and  C_3
REMARK    3  A    between atoms: C_3  and  C_5
REMARK    4  A    between atoms: C_3  and  N_6
REMARK    5  A    between atoms: C_7  and  C_9
REMARK    6  A    between atoms: C_12  and  C_14
REMARK    7  A    between atoms: C_14  and  N_15
REMARK    8  A    between atoms: N_15  and  C_16
REMARK    9  A    between atoms: N_15  and  C_28
REMARK   10  A    between atoms: C_16  and  C_17
REMARK   11  A    between atoms: C_17  and  C_18
REMARK   12  A    between atoms: C_28  and  C_29
REMARK   13  A    between atoms: C_31  and  C_36
REMARK   14  A    between atoms: C_34  and  C_35
REMARK                            x       y       z     vdW  Elec       q    Type
REMARK                         _______ _______ _______ _____ _____    ______ ____
ROOT
ATOM      1  N   UNL     1       8.125   0.364  -0.489  0.00  0.00    +0.388 N 
ATOM      2  H   UNL     1       7.360  -0.048   0.024  0.00  0.00    -0.081 HD
ENDROOT
BRANCH   1   3
ATOM      3  C   UNL     1       7.674   1.609  -1.125  0.00  0.00    +0.019 C 
BRANCH   3   7
ATOM      4  C   UNL     1       4.417   1.068  -2.615  0.00  0.00    +0.163 A 
ATOM      5  C   UNL     1       5.221   0.815  -3.684  0.00  0.00    +0.230 A 
ATOM      6  O   UNL     1       6.487   0.981  -3.270  0.00  0.00    -0.449 OA
ATOM      7  C   UNL     1       6.463   1.328  -1.976  0.00  0.00    +0.179 A 
ATOM      8  N   UNL     1       5.229   1.389  -1.572  0.00  0.00    -0.210 NA
BRANCH   4  10
ATOM      9  N   UNL     1       2.275   1.294  -1.459  0.00  0.00    -0.307 N 
ATOM     10  C   UNL     1       2.944   1.011  -2.594  0.00  0.00    +0.266 C 
ATOM     11  O   UNL     1       2.333   0.708  -3.600  0.00  0.00    -0.268 OA
ATOM     12  H   UNL     1       2.763   1.536  -0.656  0.00  0.00    +0.149 HD
BRANCH   9  13
ATOM     13  C   UNL     1       0.812   1.238  -1.437  0.00  0.00    +0.070 C 
ATOM     14  C   UNL     1       0.361  -0.200  -1.171  0.00  0.00    +0.028 C 
BRANCH  13  16
ATOM     15  C   UNL     1       0.626   3.606  -0.662  0.00  0.00    +0.005 C 
ATOM     16  C   UNL     1       0.282   2.152  -0.331  0.00  0.00    +0.018 C 
ENDBRANCH  13  16
ENDBRANCH   9  13
ENDBRANCH   4  10
ENDBRANCH   3   7
ENDBRANCH   1   3
BRANCH   1  17
ATOM     17  C   UNL     1       9.230   0.657   0.433  0.00  0.00    -0.073 C 
BRANCH  17  18
ATOM     18  C   UNL     1       8.715   1.514   1.591  0.00  0.00    +0.019 C 
BRANCH  18  19
ATOM     19  C   UNL     1       9.863   1.875   2.498  0.00  0.00    -0.024 A 
ATOM     20  C   UNL     1      10.239   1.223   3.609  0.00  0.00    +0.087 A 
ATOM     21  N   UNL     1      11.322   1.843   4.171  0.00  0.00    -0.360 N 
ATOM     22  H   UNL     1      11.771   1.554   4.981  0.00  0.00    +0.165 HD
ATOM     23  C   UNL     1      11.679   2.937   3.415  0.00  0.00    +0.047 A 
ATOM     24  C   UNL     1      10.785   3.002   2.331  0.00  0.00    +0.003 A 
ATOM     25  C   UNL     1      10.911   4.020   1.384  0.00  0.00    +0.010 A 
ATOM     26  C   UNL     1      11.906   4.947   1.513  0.00  0.00    +0.001 A 
ATOM     27  C   UNL     1      12.793   4.885   2.579  0.00  0.00    +0.002 A 
ATOM     28  C   UNL     1      12.681   3.894   3.530  0.00  0.00    +0.026 A 
ENDBRANCH  18  19
ENDBRANCH  17  18
ENDBRANCH   1  17
BRANCH   1  29
ATOM     29  C   UNL     1       8.584  -0.575  -1.521  0.00  0.00    -0.042 C 
BRANCH  29  30
ATOM     30  C   UNL     1       8.939  -1.892  -0.880  0.00  0.00    -0.061 A 
ATOM     31  C   UNL     1      10.261  -2.200  -0.619  0.00  0.00    +0.005 A 
ATOM     32  C   UNL     1      10.587  -3.407  -0.031  0.00  0.00    -0.050 A 
ATOM     33  C   UNL     1       9.590  -4.308   0.296  0.00  0.00    +0.003 A 
ATOM     34  C   UNL     1       8.268  -4.000   0.035  0.00  0.00    +0.004 A 
ATOM     35  C   UNL     1       7.942  -2.790  -0.549  0.00  0.00    -0.049 A 
ATOM     36  C   UNL     1       6.500  -2.452  -0.828  0.00  0.00    +0.044 C 
ATOM     37  C   UNL     1      12.028  -3.743   0.253  0.00  0.00    +0.044 C 
ENDBRANCH  29  30
ENDBRANCH   1  29
TORSDOF 10
