REMARK  Name = ZINC10405577
REMARK  4 active torsions:
REMARK  status: ('A' for Active; 'I' for Inactive)
REMARK    1  A    between atoms: C_1  and  C_2
REMARK    2  A    between atoms: C_2  and  C_4
REMARK    3  A    between atoms: C_2  and  N_13
REMARK    4  A    between atoms: N_16  and  N_17
REMARK                            x       y       z     vdW  Elec       q    Type
REMARK                         _______ _______ _______ _____ _____    ______ ____
ROOT
ATOM      1  N   UNL     1      -1.372  -0.511   0.012  0.00  0.00    -0.289 N 
ATOM      2  C   UNL     1      -2.051  -0.643  -1.145  0.00  0.00    +0.319 C 
ATOM      3  O   UNL     1      -1.522  -0.341  -2.197  0.00  0.00    -0.251 OA
ATOM      4  N   UNL     1      -3.315  -1.109  -1.135  0.00  0.00    -0.205 N 
ATOM      5  H   UNL     1      -1.794  -0.752   0.852  0.00  0.00    +0.151 HD
ATOM      6  H   UNL     1      -3.737  -1.350  -0.295  0.00  0.00    +0.177 HD
ENDROOT
BRANCH   4   7
ATOM      7  N   UNL     1      -4.021  -1.246  -2.338  0.00  0.00    -0.245 N 
ATOM      8  C   UNL     1      -3.556  -0.954  -3.583  0.00  0.00    +0.219 A 
ATOM      9  N   UNL     1      -4.474  -1.200  -4.472  0.00  0.00    -0.234 NA
ATOM     10  C   UNL     1      -5.591  -1.666  -3.857  0.00  0.00    +0.091 A 
ATOM     11  C   UNL     1      -5.314  -1.708  -2.480  0.00  0.00    +0.088 A 
ATOM     12  C   UNL     1      -6.284  -2.155  -1.593  0.00  0.00    +0.030 A 
ATOM     13  C   UNL     1      -7.512  -2.558  -2.072  0.00  0.00    +0.002 A 
ATOM     14  C   UNL     1      -7.785  -2.520  -3.432  0.00  0.00    +0.002 A 
ATOM     15  C   UNL     1      -6.845  -2.076  -4.319  0.00  0.00    +0.030 A 
ENDBRANCH   4   7
BRANCH   1  17
ATOM     16  C   UNL     1      -0.019   1.526   0.010  0.00  0.00    +0.036 C 
ATOM     17  C   UNL     1       0.002  -0.004   0.002  0.00  0.00    +0.137 C 
BRANCH  17  18
ATOM     18  C   UNL     1       0.731  -0.503   1.223  0.00  0.00    +0.126 A 
ATOM     19  C   UNL     1       2.005  -0.917   1.240  0.00  0.00    +0.055 A 
ATOM     20  C   UNL     1       2.290  -1.308   2.626  0.00  0.00    +0.020 A 
ATOM     21  C   UNL     1       3.410  -1.812   3.286  0.00  0.00    +0.011 A 
ATOM     22  C   UNL     1       3.343  -2.081   4.625  0.00  0.00    +0.001 A 
ATOM     23  C   UNL     1       2.169  -1.856   5.329  0.00  0.00    +0.004 A 
ATOM     24  C   UNL     1       1.052  -1.359   4.693  0.00  0.00    +0.047 A 
ATOM     25  C   UNL     1       1.098  -1.078   3.333  0.00  0.00    +0.135 A 
ATOM     26  O   UNL     1       0.199  -0.593   2.454  0.00  0.00    -0.458 OA
ENDBRANCH  17  18
ENDBRANCH   1  17
TORSDOF 3
