REMARK  Name = ZINC12146892
REMARK  6 active torsions:
REMARK  status: ('A' for Active; 'I' for Inactive)
REMARK    1  A    between atoms: C_1  and  C_2
REMARK    2  A    between atoms: C_4  and  C_8
REMARK    3  A    between atoms: C_8  and  N_9
REMARK    4  A    between atoms: N_9  and  C_10
REMARK    5  A    between atoms: C_11  and  C_13
REMARK    6  A    between atoms: C_21  and  C_24
REMARK                            x       y       z     vdW  Elec       q    Type
REMARK                         _______ _______ _______ _____ _____    ______ ____
ROOT
ATOM      1  N   UNL     1       1.077   1.866  -0.199  0.00  0.00    -0.293 N 
ATOM      2  C   UNL     1       0.987   3.279  -0.574  0.00  0.00    +0.133 C 
ATOM      3  C   UNL     1      -0.031   1.198   0.179  0.00  0.00    +0.265 C 
ATOM      4  O   UNL     1       0.029   0.006   0.417  0.00  0.00    -0.268 OA
ENDROOT
BRANCH   3   5
ATOM      5  C   UNL     1      -1.314   1.908   0.299  0.00  0.00    +0.124 A 
ATOM      6  C   UNL     1      -2.547   1.355   0.537  0.00  0.00    +0.006 A 
ATOM      7  C   UNL     1      -3.449   2.426   0.565  0.00  0.00    +0.067 A 
ATOM      8  N   UNL     1      -2.775   3.518   0.352  0.00  0.00    -0.178 NA
ATOM      9  N   UNL     1      -1.523   3.258   0.191  0.00  0.00    -0.272 N 
ATOM     10  H   UNL     1      -0.812   3.938   0.014  0.00  0.00    +0.189 HD
ATOM     11  C   UNL     1      -4.929   2.253   0.801  0.00  0.00    +0.058 C 
ATOM     12  C   UNL     1      -5.281   0.777   0.578  0.00  0.00    +0.010 C 
ATOM     13  C   UNL     1      -4.332  -0.111   1.387  0.00  0.00    -0.009 C 
ATOM     14  C   UNL     1      -2.933  -0.082   0.756  0.00  0.00    +0.042 C 
ATOM     15  C   UNL     1      -4.858  -1.548   1.390  0.00  0.00    +0.008 C 
ENDBRANCH   3   5
BRANCH   1  16
ATOM     16  C   UNL     1       2.370   1.179  -0.234  0.00  0.00    +0.165 C 
BRANCH  16  20
ATOM     17  C   UNL     1       3.861   0.517  -5.059  0.00  0.00    +0.065 C 
ATOM     18  C   UNL     1       3.237   0.296  -3.705  0.00  0.00    +0.033 A 
ATOM     19  C   UNL     1       3.274   1.154  -2.659  0.00  0.00    +0.049 A 
ATOM     20  C   UNL     1       2.578   0.569  -1.597  0.00  0.00    +0.080 A 
ATOM     21  N   UNL     1       2.143  -0.601  -1.989  0.00  0.00    -0.177 NA
ATOM     22  N   UNL     1       2.541  -0.794  -3.318  0.00  0.00    -0.282 N 
ATOM     23  H   UNL     1       2.344  -1.597  -3.880  0.00  0.00    +0.189 HD
ENDBRANCH  16  20
ENDBRANCH   1  16
TORSDOF 3
