REMARK  Name = ZINC22455149
REMARK  4 active torsions:
REMARK  status: ('A' for Active; 'I' for Inactive)
REMARK    1  A    between atoms: C_1  and  C_2
REMARK    2  A    between atoms: C_2  and  C_3
REMARK    3  A    between atoms: C_8  and  N_9
REMARK    4  A    between atoms: C_17  and  C_22
REMARK                            x       y       z     vdW  Elec       q    Type
REMARK                         _______ _______ _______ _____ _____    ______ ____
ROOT
ATOM      1  N   UNL     1      -1.197  -0.721   0.010  0.00  0.00    -0.297 N 
ATOM      2  C   UNL     1      -1.180  -2.110  -0.103  0.00  0.00    +0.155 A 
ATOM      3  C   UNL     1      -2.330  -2.985  -0.212  0.00  0.00    +0.080 A 
ATOM      4  C   UNL     1      -1.844  -4.288  -0.305  0.00  0.00    +0.049 A 
ATOM      5  N   UNL     1      -0.517  -4.221  -0.254  0.00  0.00    -0.279 N 
ATOM      6  H   UNL     1       0.082  -5.142  -0.305  0.00  0.00    +0.189 HD
ATOM      7  N   UNL     1      -0.116  -2.884  -0.137  0.00  0.00    -0.158 NA
ATOM      8  C   UNL     1      -2.744  -5.489  -0.437  0.00  0.00    +0.059 C 
ATOM      9  C   UNL     1      -4.114  -5.037  -0.952  0.00  0.00    -0.001 C 
ATOM     10  C   UNL     1      -4.674  -3.906  -0.084  0.00  0.00    +0.083 C 
ATOM     11  C   UNL     1      -3.767  -2.693  -0.231  0.00  0.00    +0.168 C 
ATOM     12  O   UNL     1      -4.201  -1.566  -0.353  0.00  0.00    -0.292 OA
ATOM     13  C   UNL     1      -5.081  -6.223  -0.920  0.00  0.00    +0.008 C 
ATOM     14  H   UNL     1      -2.155  -0.188   0.104  0.00  0.00    +0.154 HD
ENDROOT
BRANCH   1  20
ATOM     15  C   UNL     1      -0.002   1.363   0.252  0.00  0.00    -0.026 A 
ATOM     16  C   UNL     1       1.186   2.067   0.246  0.00  0.00    +0.005 A 
ATOM     17  C   UNL     1       2.378   1.414  -0.006  0.00  0.00    +0.000 A 
ATOM     18  C   UNL     1       2.386   0.054  -0.254  0.00  0.00    +0.002 A 
ATOM     19  C   UNL     1       1.202  -0.657  -0.249  0.00  0.00    +0.023 A 
ATOM     20  C   UNL     1       0.002  -0.004   0.004  0.00  0.00    +0.036 A 
BRANCH  15  22
ATOM     21  C   UNL     1      -1.652   1.955   2.006  0.00  0.00    +0.009 C 
ATOM     22  C   UNL     1      -1.302   2.076   0.522  0.00  0.00    +0.033 C 
ENDBRANCH  15  22
ENDBRANCH   1  20
TORSDOF 2
