REMARK  Name = ZINC08962109
REMARK  5 active torsions:
REMARK  status: ('A' for Active; 'I' for Inactive)
REMARK    1  A    between atoms: C_1  and  C_2
REMARK    2  A    between atoms: C_2  and  C_3
REMARK    3  A    between atoms: C_10  and  N_16
REMARK    4  A    between atoms: N_16  and  S_17
REMARK    5  A    between atoms: S_17  and  C_20
REMARK                            x       y       z     vdW  Elec       q    Type
REMARK                         _______ _______ _______ _____ _____    ______ ____
ROOT
ATOM      1  C   UNL     1      -0.729   1.579   1.267  0.00  0.00    +0.110 C 
ATOM      2  C   UNL     1       0.030   1.098   2.496  0.00  0.00    +0.251 C 
ATOM      3  O   UNL     1      -0.187  -0.286   2.738  0.00  0.00    -0.489 OA
ATOM      4  C   UNL     1      -0.126  -1.119   1.667  0.00  0.00    +0.133 A 
ATOM      5  C   UNL     1       0.961  -1.955   1.477  0.00  0.00    +0.048 A 
ATOM      6  C   UNL     1       1.008  -2.787   0.376  0.00  0.00    +0.028 A 
ATOM      7  C   UNL     1      -0.033  -2.794  -0.548  0.00  0.00    +0.049 A 
ATOM      8  C   UNL     1      -1.127  -1.964  -0.369  0.00  0.00    +0.041 A 
ATOM      9  C   UNL     1      -1.181  -1.123   0.741  0.00  0.00    +0.080 A 
ATOM     10  C   UNL     1      -2.333  -0.230   0.965  0.00  0.00    +0.248 C 
ATOM     11  O   UNL     1      -3.470  -0.651   0.877  0.00  0.00    -0.270 OA
ATOM     12  N   UNL     1      -2.101   1.069   1.272  0.00  0.00    -0.305 N 
ATOM     13  H   UNL     1      -2.840   1.658   1.493  0.00  0.00    +0.149 HD
ENDROOT
BRANCH   1  15
ATOM     14  C   UNL     1       1.347   1.778  -0.110  0.00  0.00    +0.006 C 
ATOM     15  C   UNL     1      -0.013   1.086   0.008  0.00  0.00    +0.022 C 
ENDBRANCH   1  15
BRANCH   7  16
ATOM     16  N   UNL     1       0.027  -3.641  -1.661  0.00  0.00    -0.216 N 
ATOM     17  H   UNL     1      -0.207  -3.304  -2.540  0.00  0.00    +0.174 HD
BRANCH  16  18
ATOM     18  S   UNL     1       0.497  -5.218  -1.477  0.00  0.00    +0.072 S 
ATOM     19  O   UNL     1       0.431  -5.814  -2.765  0.00  0.00    -0.150 OA
ATOM     20  O   UNL     1       1.691  -5.199  -0.707  0.00  0.00    -0.150 OA
BRANCH  18  21
ATOM     21  C   UNL     1      -0.726  -6.014  -0.490  0.00  0.00    +0.109 A 
ATOM     22  C   UNL     1      -0.596  -6.036   0.887  0.00  0.00    +0.030 A 
ATOM     23  C   UNL     1      -1.558  -6.656   1.662  0.00  0.00    +0.017 A 
ATOM     24  C   UNL     1      -2.644  -7.265   1.060  0.00  0.00    +0.018 A 
ATOM     25  C   UNL     1      -2.771  -7.248  -0.318  0.00  0.00    +0.017 A 
ATOM     26  C   UNL     1      -1.811  -6.623  -1.092  0.00  0.00    +0.030 A 
ATOM     27 BR   UNL     1      -3.956  -8.121   2.119  0.00  0.00    -0.050 Br
ENDBRANCH  18  21
ENDBRANCH  16  18
ENDBRANCH   7  16
TORSDOF 4
