REMARK  Name = ZINC38501805
REMARK  4 active torsions:
REMARK  status: ('A' for Active; 'I' for Inactive)
REMARK    1  A    between atoms: C_1  and  C_2
REMARK    2  A    between atoms: C_2  and  C_3
REMARK    3  A    between atoms: C_2  and  N_4
REMARK    4  A    between atoms: C_5  and  C_9
REMARK                            x       y       z     vdW  Elec       q    Type
REMARK                         _______ _______ _______ _____ _____    ______ ____
ROOT
ATOM      1  C   UNL     1      -1.123  -2.003   2.085  0.00  0.00    +0.268 C 
ATOM      2  O   UNL     1      -1.499  -2.659   3.037  0.00  0.00    -0.268 OA
ATOM      3  N   UNL     1      -1.924  -1.854   1.011  0.00  0.00    -0.259 N 
ATOM      4  C   UNL     1      -3.214  -2.358   1.034  0.00  0.00    +0.166 A 
ATOM      5  N   UNL     1      -4.134  -2.319   0.096  0.00  0.00    -0.224 NA
ATOM      6  C   UNL     1      -5.351  -2.853   0.255  0.00  0.00    +0.088 A 
ATOM      7  C   UNL     1      -6.478  -2.889  -0.697  0.00  0.00    +0.009 A 
ATOM      8  C   UNL     1      -6.416  -2.333  -1.979  0.00  0.00    +0.010 A 
ATOM      9  C   UNL     1      -7.517  -2.420  -2.786  0.00  0.00    +0.001 A 
ATOM     10  C   UNL     1      -8.693  -3.043  -2.369  0.00  0.00    +0.004 A 
ATOM     11  C   UNL     1      -8.780  -3.593  -1.125  0.00  0.00    -0.039 A 
ATOM     12  C   UNL     1      -7.666  -3.512  -0.295  0.00  0.00    -0.009 A 
ATOM     13  C   UNL     1      -7.841  -4.101   0.958  0.00  0.00    -0.038 A 
ATOM     14  C   UNL     1      -6.804  -4.071   1.838  0.00  0.00    +0.021 A 
ATOM     15  C   UNL     1      -5.601  -3.469   1.498  0.00  0.00    +0.042 A 
ATOM     16  S   UNL     1      -4.054  -3.237   2.344  0.00  0.00    -0.052 S 
ATOM     17  C   UNL     1      -9.244  -4.658   1.007  0.00  0.00    +0.040 C 
ATOM     18  C   UNL     1      -9.863  -4.322  -0.367  0.00  0.00    +0.040 C 
ATOM     19  H   UNL     1      -1.597  -1.394   0.222  0.00  0.00    +0.157 HD
ENDROOT
BRANCH   1  21
ATOM     20  N   UNL     1       1.164  -1.508   3.068  0.00  0.00    -0.257 N 
ATOM     21  C   UNL     1       0.205  -1.371   2.105  0.00  0.00    +0.124 A 
ATOM     22  C   UNL     1       0.734  -0.519   1.150  0.00  0.00    +0.054 A 
ATOM     23  C   UNL     1       2.010  -0.191   1.615  0.00  0.00    +0.135 A 
ATOM     24  N   UNL     1       2.193  -0.807   2.755  0.00  0.00    -0.179 NA
BRANCH  20  26
ATOM     25  C   UNL     1       2.051  -3.466   4.233  0.00  0.00    +0.032 C 
ATOM     26  C   UNL     1       1.035  -2.324   4.278  0.00  0.00    +0.102 C 
ATOM     27  C   UNL     1       1.297  -1.455   5.510  0.00  0.00    +0.032 C 
ENDBRANCH  20  26
ENDBRANCH   1  21
TORSDOF 2
