REMARK  Name = ZINC03792944
REMARK  3 active torsions:
REMARK  status: ('A' for Active; 'I' for Inactive)
REMARK    1  A    between atoms: C_1  and  C_2
REMARK    2  A    between atoms: C_9  and  C_10
REMARK    3  A    between atoms: C_17  and  C_20
REMARK                            x       y       z     vdW  Elec       q    Type
REMARK                         _______ _______ _______ _____ _____    ______ ____
ROOT
ATOM      1  C   UNL     1      -1.312   2.208   0.020  0.00  0.00    -0.001 A 
ATOM      2  C   UNL     1      -2.510   1.478   0.016  0.00  0.00    +0.012 A 
ATOM      3  C   UNL     1      -3.715   2.117   0.032  0.00  0.00    +0.027 A 
ATOM      4  C   UNL     1      -3.772   3.509   0.039  0.00  0.00    +0.047 A 
ATOM      5  C   UNL     1      -2.577   4.255   0.037  0.00  0.00    +0.001 A 
ATOM      6  C   UNL     1      -1.345   3.599   0.028  0.00  0.00    +0.019 A 
ATOM      7  C   UNL     1      -2.972   5.663   0.046  0.00  0.00    +0.036 A 
ATOM      8  C   UNL     1      -4.328   5.692   0.053  0.00  0.00    +0.048 A 
ATOM      9  N   UNL     1      -4.816   4.405   0.048  0.00  0.00    -0.354 N 
ATOM     10  H   UNL     1      -5.756   4.166   0.051  0.00  0.00    +0.166 HD
ENDROOT
BRANCH   1  18
ATOM     11  C   UNL     1       0.107  -0.520   1.439  0.00  0.00    +0.014 C 
ATOM     12  C   UNL     1       0.002  -0.004   0.002  0.00  0.00    +0.046 C 
ATOM     13  C   UNL     1       1.205  -0.499  -0.804  0.00  0.00    +0.107 C 
ATOM     14  C   UNL     1       2.434   0.263  -0.376  0.00  0.00    +0.233 C 
ATOM     15  O   UNL     1       3.513  -0.291  -0.338  0.00  0.00    -0.274 OA
ATOM     16  N   UNL     1       2.328   1.562  -0.038  0.00  0.00    -0.207 N 
ATOM     17  N   UNL     1       1.078   2.185   0.004  0.00  0.00    -0.184 NA
ATOM     18  C   UNL     1      -0.018   1.502   0.010  0.00  0.00    +0.070 C 
ATOM     19  H   UNL     1       3.126   2.070   0.178  0.00  0.00    +0.177 HD
ENDBRANCH   1  18
BRANCH   8  20
ATOM     20  C   UNL     1      -5.154   6.918   0.062  0.00  0.00    +0.001 A 
ATOM     21  C   UNL     1      -4.561   8.186   0.071  0.00  0.00    +0.029 A 
ATOM     22  C   UNL     1      -5.370   9.303   0.074  0.00  0.00    +0.111 A 
ATOM     23  N   UNL     1      -6.684   9.187   0.080  0.00  0.00    -0.263 NA
ATOM     24  C   UNL     1      -7.284   8.012   0.077  0.00  0.00    +0.111 A 
ATOM     25  C   UNL     1      -6.552   6.843   0.068  0.00  0.00    +0.029 A 
ENDBRANCH   8  20
TORSDOF 2
