REMARK  Name = ZINC14356581
REMARK  19 active torsions:
REMARK  status: ('A' for Active; 'I' for Inactive)
REMARK    1  A    between atoms: C_1  and  C_2
REMARK    2  A    between atoms: C_2  and  O_3
REMARK    3  A    between atoms: O_3  and  C_4
REMARK    4  A    between atoms: C_7  and  C_13
REMARK    5  A    between atoms: C_9  and  O_10
REMARK    6  A    between atoms: O_10  and  C_11
REMARK    7  A    between atoms: C_11  and  C_12
REMARK    8  A    between atoms: C_13  and  C_14
REMARK    9  A    between atoms: C_14  and  N_15
REMARK   10  A    between atoms: C_16  and  C_29
REMARK   11  A    between atoms: C_19  and  S_20
REMARK   12  A    between atoms: S_20  and  C_21
REMARK   13  A    between atoms: C_21  and  C_22
REMARK   14  A    between atoms: N_24  and  C_25
REMARK   15  A    between atoms: C_25  and  C_26
REMARK   16  A    between atoms: C_25  and  C_27
REMARK   17  A    between atoms: C_25  and  C_28
REMARK   18  A    between atoms: C_32  and  O_35
REMARK   19  A    between atoms: O_35  and  C_36
REMARK                            x       y       z     vdW  Elec       q    Type
REMARK                         _______ _______ _______ _____ _____    ______ ____
ROOT
ATOM      1  N   UNL     1       5.332  -0.615   3.718  0.00  0.00    -0.302 N 
ATOM      2  C   UNL     1       5.876  -1.320   2.670  0.00  0.00    +0.165 A 
ATOM      3  N   UNL     1       6.798  -2.108   3.173  0.00  0.00    -0.128 NA
ATOM      4  N   UNL     1       6.866  -1.947   4.446  0.00  0.00    -0.122 NA
ATOM      5  C   UNL     1       5.996  -1.042   4.834  0.00  0.00    +0.192 A 
ENDROOT
BRANCH   2   6
ATOM      6  C   UNL     1       5.496  -1.211   1.246  0.00  0.00    +0.020 A 
ATOM      7  C   UNL     1       6.369  -1.657   0.252  0.00  0.00    +0.015 A 
ATOM      8  C   UNL     1       6.008  -1.557  -1.075  0.00  0.00    +0.046 A 
ATOM      9  C   UNL     1       4.783  -1.005  -1.424  0.00  0.00    +0.120 A 
ATOM     10  C   UNL     1       3.914  -0.555  -0.439  0.00  0.00    +0.046 A 
ATOM     11  C   UNL     1       4.265  -0.655   0.891  0.00  0.00    +0.015 A 
BRANCH   9  12
ATOM     12  O   UNL     1       4.433  -0.904  -2.733  0.00  0.00    -0.495 OA
ATOM     13  C   UNL     1       5.374  -1.387  -3.695  0.00  0.00    +0.277 C 
ENDBRANCH   9  12
ENDBRANCH   2   6
BRANCH   1  14
ATOM     14  C   UNL     1       4.266   0.389   3.652  0.00  0.00    +0.130 C 
BRANCH  14  15
ATOM     15  C   UNL     1       2.916  -0.284   3.905  0.00  0.00    +0.057 C 
BRANCH  15  19
ATOM     16  C   UNL     1      -0.189   2.651   3.716  0.00  0.00    +0.162 A 
ATOM     17  C   UNL     1       0.433   2.373   4.923  0.00  0.00    +0.050 A 
ATOM     18  C   UNL     1       1.438   1.425   4.981  0.00  0.00    +0.007 A 
ATOM     19  C   UNL     1       1.820   0.749   3.837  0.00  0.00    -0.042 A 
ATOM     20  C   UNL     1       1.200   1.017   2.631  0.00  0.00    +0.053 A 
ATOM     21  C   UNL     1       0.192   1.966   2.567  0.00  0.00    +0.162 A 
BRANCH  16  22
ATOM     22  O   UNL     1      -1.173   3.588   3.657  0.00  0.00    -0.489 OA
BRANCH  22  24
ATOM     23  C   UNL     1      -2.630   5.262   4.614  0.00  0.00    +0.048 C 
ATOM     24  C   UNL     1      -1.511   4.252   4.876  0.00  0.00    +0.226 C 
ENDBRANCH  22  24
ENDBRANCH  16  22
BRANCH  21  25
ATOM     25  O   UNL     1      -0.419   2.231   1.381  0.00  0.00    -0.489 OA
BRANCH  25  26
ATOM     26  C   UNL     1       0.027   1.494   0.242  0.00  0.00    +0.226 C 
ATOM     27  C   UNL     1      -0.771   1.926  -0.990  0.00  0.00    +0.048 C 
ENDBRANCH  25  26
ENDBRANCH  21  25
ENDBRANCH  15  19
ENDBRANCH  14  15
ENDBRANCH   1  14
BRANCH   5  28
ATOM     28  S   UNL     1       5.731  -0.485   6.484  0.00  0.00    -0.077 S 
BRANCH  28  29
ATOM     29  C   UNL     1       6.957  -1.492   7.356  0.00  0.00    +0.173 C 
BRANCH  29  30
ATOM     30  C   UNL     1       6.911  -1.176   8.829  0.00  0.00    +0.224 C 
ATOM     31  O   UNL     1       6.127  -0.352   9.248  0.00  0.00    -0.275 OA
ATOM     32  N   UNL     1       7.742  -1.810   9.680  0.00  0.00    -0.310 N 
ATOM     33  H   UNL     1       8.369  -2.470   9.345  0.00  0.00    +0.149 HD
BRANCH  32  34
ATOM     34  C   UNL     1       7.697  -1.504  11.112  0.00  0.00    +0.026 C 
ATOM     35  C   UNL     1       6.302  -1.814  11.657  0.00  0.00    +0.031 C 
ATOM     36  C   UNL     1       8.733  -2.355  11.848  0.00  0.00    +0.031 C 
ATOM     37  C   UNL     1       8.010  -0.021  11.326  0.00  0.00    +0.031 C 
ENDBRANCH  32  34
ENDBRANCH  29  30
ENDBRANCH  28  29
ENDBRANCH   5  28
TORSDOF 13
