REMARK  Name = ZINC58033063
REMARK  9 active torsions:
REMARK  status: ('A' for Active; 'I' for Inactive)
REMARK    1  A    between atoms: C_1  and  C_2
REMARK    2  A    between atoms: C_2  and  C_3
REMARK    3  A    between atoms: C_2  and  C_4
REMARK    4  A    between atoms: C_4  and  C_5
REMARK    5  A    between atoms: C_7  and  C_10
REMARK    6  A    between atoms: C_10  and  O_12
REMARK    7  A    between atoms: O_12  and  C_13
REMARK    8  A    between atoms: C_13  and  C_14
REMARK    9  A    between atoms: C_14  and  C_15
REMARK                            x       y       z     vdW  Elec       q    Type
REMARK                         _______ _______ _______ _____ _____    ______ ____
ROOT
ATOM      1  C   UNL     1      -1.314  -5.290   1.501  0.00  0.00    +0.358 C 
ATOM      2  O   UNL     1      -1.309  -6.454   1.151  0.00  0.00    -0.243 OA
ENDROOT
BRANCH   1   5
ATOM      3  C   UNL     1      -1.416  -2.035  -0.119  0.00  0.00    +0.079 A 
ATOM      4  N   UNL     1      -1.371  -2.926   0.833  0.00  0.00    -0.237 NA
ATOM      5  C   UNL     1      -1.364  -4.219   0.493  0.00  0.00    +0.155 A 
ATOM      6  C   UNL     1      -1.405  -4.488  -0.850  0.00  0.00    +0.082 A 
ATOM      7  S   UNL     1      -1.457  -2.951  -1.525  0.00  0.00    -0.080 S 
BRANCH   3   8
ATOM      8  C   UNL     1      -1.433  -0.534   0.013  0.00  0.00    +0.066 C 
BRANCH   8  10
ATOM      9  C   UNL     1      -0.019   1.526   0.010  0.00  0.00    +0.007 C 
ATOM     10  C   UNL     1       0.002  -0.004   0.002  0.00  0.00    -0.011 C 
ATOM     11  C   UNL     1       0.742  -0.511   1.242  0.00  0.00    +0.007 C 
ENDBRANCH   8  10
ENDBRANCH   3   8
ENDBRANCH   1   5
BRANCH   1  12
ATOM     12  O   UNL     1      -1.274  -4.979   2.812  0.00  0.00    -0.460 OA
BRANCH  12  13
ATOM     13  C   UNL     1      -1.227  -6.069   3.735  0.00  0.00    +0.237 C 
BRANCH  13  14
ATOM     14  C   UNL     1      -1.187  -5.525   5.165  0.00  0.00    +0.083 C 
BRANCH  14  15
ATOM     15  C   UNL     1      -1.137  -6.674   6.138  0.00  0.00    -0.007 A 
ATOM     16  C   UNL     1      -0.057  -7.306   6.659  0.00  0.00    +0.011 A 
ATOM     17  C   UNL     1      -0.252  -8.348   7.546  0.00  0.00    +0.008 A 
ATOM     18  C   UNL     1      -1.519  -8.707   7.870  0.00  0.00    +0.045 A 
ATOM     19  S   UNL     1      -2.486  -7.551   6.912  0.00  0.00    -0.101 S 
ENDBRANCH  14  15
ENDBRANCH  13  14
ENDBRANCH  12  13
ENDBRANCH   1  12
TORSDOF 7
