REMARK  Name = ZINC12493649
REMARK  5 active torsions:
REMARK  status: ('A' for Active; 'I' for Inactive)
REMARK    1  A    between atoms: C_1  and  C_2
REMARK    2  A    between atoms: N_8  and  S_9
REMARK    3  A    between atoms: S_9  and  C_12
REMARK    4  A    between atoms: C_15  and  C_18
REMARK    5  A    between atoms: C_23  and  C_26
REMARK                            x       y       z     vdW  Elec       q    Type
REMARK                         _______ _______ _______ _____ _____    ______ ____
ROOT
ATOM      1  C   UNL     1       2.114  -0.095  -1.118  0.00  0.00    +0.250 C 
ATOM      2  O   UNL     1       3.309  -0.314  -1.113  0.00  0.00    -0.270 OA
ATOM      3  N   UNL     1       1.245  -1.102  -1.338  0.00  0.00    -0.261 N 
ATOM      4  C   UNL     1       1.716  -2.389  -1.561  0.00  0.00    +0.165 A 
ATOM      5  N   UNL     1       1.037  -3.497  -1.788  0.00  0.00    -0.221 NA
ATOM      6  C   UNL     1       1.659  -4.658  -1.987  0.00  0.00    +0.115 A 
ATOM      7  C   UNL     1       3.027  -4.699  -1.942  0.00  0.00    +0.080 A 
ATOM      8  S   UNL     1       3.401  -2.982  -1.608  0.00  0.00    -0.060 S 
ATOM      9  H   UNL     1       0.291  -0.927  -1.341  0.00  0.00    +0.157 HD
ENDROOT
BRANCH   6  10
ATOM     10  C   UNL     1       0.882  -5.887  -2.246  0.00  0.00    +0.155 A 
ATOM     11  C   UNL     1      -0.470  -5.957  -2.305  0.00  0.00    +0.060 A 
ATOM     12  C   UNL     1      -0.793  -7.358  -2.584  0.00  0.00    +0.021 A 
ATOM     13  C   UNL     1      -1.983  -8.066  -2.762  0.00  0.00    +0.011 A 
ATOM     14  C   UNL     1      -1.941  -9.409  -3.012  0.00  0.00    +0.001 A 
ATOM     15  C   UNL     1      -0.725 -10.072  -3.088  0.00  0.00    +0.004 A 
ATOM     16  C   UNL     1       0.461  -9.389  -2.915  0.00  0.00    +0.047 A 
ATOM     17  C   UNL     1       0.443  -8.024  -2.661  0.00  0.00    +0.136 A 
ATOM     18  O   UNL     1       1.411  -7.109  -2.453  0.00  0.00    -0.453 OA
ENDBRANCH   6  10
BRANCH   1  22
ATOM     19  C   UNL     1       0.673   3.842  -0.438  0.00  0.00    +0.106 A 
ATOM     20  C   UNL     1       2.035   3.596  -0.432  0.00  0.00    +0.029 A 
ATOM     21  C   UNL     1       2.509   2.320  -0.652  0.00  0.00    +0.015 A 
ATOM     22  C   UNL     1       1.612   1.275  -0.881  0.00  0.00    +0.037 A 
ATOM     23  C   UNL     1       0.240   1.531  -0.890  0.00  0.00    +0.015 A 
ATOM     24  C   UNL     1      -0.221   2.811  -0.664  0.00  0.00    +0.029 A 
BRANCH  19  25
ATOM     25  S   UNL     1       0.076   5.475  -0.156  0.00  0.00    +0.061 S 
ATOM     26  O   UNL     1      -1.253   5.344   0.329  0.00  0.00    -0.153 OA
ATOM     27  O   UNL     1       1.088   6.158   0.571  0.00  0.00    -0.153 OA
BRANCH  25  34
ATOM     28  C   UNL     1       2.308   6.839  -1.239  0.00  0.00    +0.026 C 
ATOM     29  C   UNL     1       1.148   6.855  -2.236  0.00  0.00    +0.077 C 
ATOM     30  C   UNL     1       0.804   8.300  -2.596  0.00  0.00    +0.020 C 
ATOM     31  C   UNL     1      -0.444   8.320  -3.481  0.00  0.00    +0.003 C 
ATOM     32  C   UNL     1      -1.624   7.717  -2.714  0.00  0.00    +0.017 C 
ATOM     33  C   UNL     1      -1.307   6.261  -2.359  0.00  0.00    +0.110 C 
ATOM     34  N   UNL     1      -0.031   6.219  -1.632  0.00  0.00    -0.174 NA
ENDBRANCH  25  34
ENDBRANCH  19  25
ENDBRANCH   1  22
TORSDOF 4
