REMARK  Name = ZINC39666955
REMARK  11 active torsions:
REMARK  status: ('A' for Active; 'I' for Inactive)
REMARK    1  A    between atoms: C_1  and  C_2
REMARK    2  A    between atoms: C_5  and  C_9
REMARK    3  A    between atoms: C_6  and  C_8
REMARK    4  A    between atoms: C_9  and  C_10
REMARK    5  A    between atoms: C_10  and  N_11
REMARK    6  A    between atoms: C_12  and  C_14
REMARK    7  A    between atoms: C_25  and  C_27
REMARK    8  A    between atoms: C_29  and  O_35
REMARK    9  A    between atoms: C_31  and  O_33
REMARK   10  A    between atoms: O_33  and  C_34
REMARK   11  A    between atoms: O_35  and  C_36
REMARK                            x       y       z     vdW  Elec       q    Type
REMARK                         _______ _______ _______ _____ _____    ______ ____
ROOT
ATOM      1  C   UNL     1      -2.682  -8.118  -0.376  0.00  0.00    +0.100 C 
ATOM      2  C   UNL     1      -2.083  -8.895  -1.570  0.00  0.00    +0.121 C 
ATOM      3  N   UNL     1      -2.923 -10.110  -1.686  0.00  0.00    -0.296 N 
ATOM      4  C   UNL     1      -4.301  -9.633  -1.415  0.00  0.00    +0.115 C 
ATOM      5  C   UNL     1      -4.138  -8.605  -0.278  0.00  0.00    -0.004 C 
ATOM      6  C   UNL     1      -5.099  -7.438  -0.480  0.00  0.00    -0.010 C 
ATOM      7  C   UNL     1      -6.539  -7.936  -0.321  0.00  0.00    -0.082 C 
ATOM      8  N   UNL     1      -6.713  -8.514   1.017  0.00  0.00    +0.379 N 
ATOM      9  C   UNL     1      -5.851  -9.693   1.170  0.00  0.00    -0.082 C 
ATOM     10  C   UNL     1      -4.383  -9.269   1.073  0.00  0.00    -0.010 C 
ATOM     11  C   UNL     1      -2.525 -11.365  -1.972  0.00  0.00    +0.247 C 
ATOM     12  O   UNL     1      -1.340 -11.626  -2.042  0.00  0.00    -0.270 OA
ATOM     13  H   UNL     1      -6.467  -7.827   1.714  0.00  0.00    -0.086 HD
ATOM     14  H   UNL     1      -7.677  -8.786   1.142  0.00  0.00    -0.086 HD
ENDROOT
BRANCH  11  15
ATOM     15  C   UNL     1      -3.530 -12.426  -2.199  0.00  0.00    +0.044 A 
ATOM     16  C   UNL     1      -4.837 -12.088  -2.548  0.00  0.00    +0.059 A 
ATOM     17  C   UNL     1      -5.775 -13.085  -2.761  0.00  0.00    +0.124 A 
ATOM     18  C   UNL     1      -5.416 -14.418  -2.627  0.00  0.00    +0.091 A 
ATOM     19  C   UNL     1      -4.117 -14.759  -2.280  0.00  0.00    +0.124 A 
ATOM     20  C   UNL     1      -3.171 -13.768  -2.071  0.00  0.00    +0.059 A 
BRANCH  19  21
ATOM     21  O   UNL     1      -3.770 -16.066  -2.150  0.00  0.00    -0.495 OA
ATOM     22  C   UNL     1      -4.793 -17.035  -2.385  0.00  0.00    +0.277 C 
ENDBRANCH  19  21
BRANCH  17  23
ATOM     23  O   UNL     1      -7.049 -12.756  -3.101  0.00  0.00    -0.495 OA
ATOM     24  C   UNL     1      -7.965 -13.834  -3.305  0.00  0.00    +0.277 C 
ENDBRANCH  17  23
ENDBRANCH  11  15
BRANCH   1  26
ATOM     25  N   UNL     1      -2.522  -5.771   0.387  0.00  0.00    -0.315 N 
ATOM     26  C   UNL     1      -2.641  -6.635  -0.640  0.00  0.00    +0.218 C 
ATOM     27  O   UNL     1      -2.715  -6.220  -1.777  0.00  0.00    -0.275 OA
ATOM     28  H   UNL     1      -2.463  -6.103   1.296  0.00  0.00    +0.149 HD
BRANCH  25  29
ATOM     29  C   UNL     1      -2.483  -4.329   0.129  0.00  0.00    +0.109 C 
BRANCH  29  30
ATOM     30  C   UNL     1      -2.345  -3.578   1.455  0.00  0.00    +0.054 C 
BRANCH  30  35
ATOM     31  C   UNL     1      -2.188   2.108   0.437  0.00  0.00    +0.044 C 
ATOM     32  C   UNL     1      -2.229   0.625   0.703  0.00  0.00    -0.050 A 
ATOM     33  C   UNL     1      -1.051  -0.086   0.832  0.00  0.00    +0.003 A 
ATOM     34  C   UNL     1      -1.088  -1.446   1.076  0.00  0.00    +0.004 A 
ATOM     35  C   UNL     1      -2.304  -2.095   1.190  0.00  0.00    -0.043 A 
ATOM     36  C   UNL     1      -3.482  -1.383   1.062  0.00  0.00    -0.047 A 
ATOM     37  C   UNL     1      -3.444  -0.022   0.823  0.00  0.00    +0.007 A 
ATOM     38  C   UNL     1      -4.807  -2.090   1.186  0.00  0.00    +0.044 C 
ENDBRANCH  30  35
ENDBRANCH  29  30
ENDBRANCH  25  29
ENDBRANCH   1  26
TORSDOF 7
