REMARK  Name = ZINC40985850
REMARK  17 active torsions:
REMARK  status: ('A' for Active; 'I' for Inactive)
REMARK    1  A    between atoms: C_1  and  C_2
REMARK    2  A    between atoms: C_2  and  N_3
REMARK    3  A    between atoms: N_3  and  C_4
REMARK    4  A    between atoms: N_3  and  C_6
REMARK    5  A    between atoms: C_4  and  C_5
REMARK    6  A    between atoms: C_6  and  C_8
REMARK    7  A    between atoms: C_6  and  C_28
REMARK    8  A    between atoms: C_8  and  N_9
REMARK    9  A    between atoms: C_10  and  C_12
REMARK   10  A    between atoms: C_15  and  S_19
REMARK   11  A    between atoms: S_19  and  C_20
REMARK   12  A    between atoms: C_20  and  C_21
REMARK   13  A    between atoms: C_24  and  C_27
REMARK   14  A    between atoms: C_31  and  C_34
REMARK   15  A    between atoms: C_34  and  C_35
REMARK   16  A    between atoms: C_34  and  C_36
REMARK   17  A    between atoms: C_34  and  C_37
REMARK                            x       y       z     vdW  Elec       q    Type
REMARK                         _______ _______ _______ _____ _____    ______ ____
ROOT
ATOM      1  N   UNL     1      -1.674  -2.418   0.794  0.00  0.00    -0.312 N 
ATOM      2  C   UNL     1      -1.306  -3.458   0.020  0.00  0.00    +0.248 C 
ATOM      3  O   UNL     1      -1.101  -3.291  -1.167  0.00  0.00    -0.270 OA
ATOM      4  H   UNL     1      -1.767  -2.536   1.752  0.00  0.00    +0.149 HD
ENDROOT
BRANCH   2   5
ATOM      5  C   UNL     1      -1.152  -4.800   0.612  0.00  0.00    +0.092 A 
ATOM      6  C   UNL     1      -1.494  -5.038   1.950  0.00  0.00    +0.129 A 
ATOM      7  N   UNL     1      -1.342  -6.253   2.443  0.00  0.00    -0.229 NA
ATOM      8  C   UNL     1      -0.874  -7.241   1.690  0.00  0.00    +0.190 A 
ATOM      9  N   UNL     1      -0.538  -7.057   0.419  0.00  0.00    -0.209 NA
ATOM     10  C   UNL     1      -0.665  -5.872  -0.150  0.00  0.00    +0.146 A 
ATOM     11 CL   UNL     1      -0.231  -5.644  -1.816  0.00  0.00    -0.061 Cl
BRANCH   8  12
ATOM     12  S   UNL     1      -0.690  -8.844   2.400  0.00  0.00    -0.081 S 
BRANCH  12  13
ATOM     13  C   UNL     1      -0.035  -9.852   1.042  0.00  0.00    +0.112 C 
BRANCH  13  14
ATOM     14  C   UNL     1       0.170 -11.266   1.520  0.00  0.00    -0.037 A 
ATOM     15  C   UNL     1       1.379 -11.638   2.079  0.00  0.00    +0.005 A 
ATOM     16  C   UNL     1       1.567 -12.935   2.518  0.00  0.00    +0.003 A 
ATOM     17  C   UNL     1       0.547 -13.861   2.399  0.00  0.00    -0.050 A 
ATOM     18  C   UNL     1      -0.662 -13.489   1.841  0.00  0.00    +0.003 A 
ATOM     19  C   UNL     1      -0.852 -12.190   1.406  0.00  0.00    +0.005 A 
ATOM     20  C   UNL     1       0.753 -15.275   2.877  0.00  0.00    +0.044 C 
ENDBRANCH  13  14
ENDBRANCH  12  13
ENDBRANCH   8  12
ENDBRANCH   2   5
BRANCH   1  21
ATOM     21  C   UNL     1      -1.934  -1.110   0.188  0.00  0.00    +0.094 C 
BRANCH  21  22
ATOM     22  C   UNL     1      -2.192  -0.080   1.289  0.00  0.00    -0.020 C 
BRANCH  22  23
ATOM     23  C   UNL     1      -2.337   1.288   0.673  0.00  0.00    -0.059 A 
ATOM     24  C   UNL     1      -2.694   1.413  -0.657  0.00  0.00    +0.002 A 
ATOM     25  C   UNL     1      -2.827   2.668  -1.221  0.00  0.00    +0.004 A 
ATOM     26  C   UNL     1      -2.605   3.797  -0.456  0.00  0.00    -0.042 A 
ATOM     27  C   UNL     1      -2.249   3.672   0.874  0.00  0.00    +0.004 A 
ATOM     28  C   UNL     1      -2.120   2.418   1.440  0.00  0.00    +0.002 A 
BRANCH  26  29
ATOM     29  C   UNL     1      -2.749   5.165  -1.072  0.00  0.00    -0.013 C 
ATOM     30  C   UNL     1      -4.179   5.344  -1.588  0.00  0.00    +0.015 C 
ATOM     31  C   UNL     1      -2.450   6.233  -0.019  0.00  0.00    +0.015 C 
ATOM     32  C   UNL     1      -1.766   5.307  -2.236  0.00  0.00    +0.015 C 
ENDBRANCH  26  29
ENDBRANCH  22  23
BRANCH  22  33
ATOM     33  N   UNL     1      -1.063  -0.075   2.230  0.00  0.00    +0.385 N 
ATOM     34  H   UNL     1      -0.678  -1.006   2.297  0.00  0.00    -0.081 HD
BRANCH  33  36
ATOM     35  C   UNL     1       0.401   0.444   0.337  0.00  0.00    -0.017 C 
ATOM     36  C   UNL     1      -0.028   0.849   1.749  0.00  0.00    -0.081 C 
ENDBRANCH  33  36
BRANCH  33  37
ATOM     37  C   UNL     1      -1.531   0.358   3.553  0.00  0.00    -0.081 C 
ATOM     38  C   UNL     1      -2.447  -0.714   4.147  0.00  0.00    -0.017 C 
ENDBRANCH  33  37
ENDBRANCH  22  33
ENDBRANCH  21  22
ENDBRANCH   1  21
TORSDOF 11
