REMARK  Name = ZINC35746129
REMARK  14 active torsions:
REMARK  status: ('A' for Active; 'I' for Inactive)
REMARK    1  A    between atoms: C_1  and  C_2
REMARK    2  A    between atoms: C_2  and  O_3
REMARK    3  A    between atoms: O_3  and  C_4
REMARK    4  A    between atoms: C_4  and  C_5
REMARK    5  A    between atoms: C_5  and  C_7
REMARK    6  A    between atoms: C_5  and  O_35
REMARK    7  A    between atoms: C_7  and  N_8
REMARK    8  A    between atoms: N_8  and  C_9
REMARK    9  A    between atoms: N_8  and  C_15
REMARK   10  A    between atoms: C_9  and  C_10
REMARK   11  A    between atoms: C_15  and  C_16
REMARK   12  A    between atoms: C_22  and  C_27
REMARK   13  A    between atoms: C_30  and  O_33
REMARK   14  A    between atoms: O_33  and  C_34
REMARK                            x       y       z     vdW  Elec       q    Type
REMARK                         _______ _______ _______ _____ _____    ______ ____
ROOT
ATOM      1  C   UNL     1       2.821  -5.802  -5.540  0.00  0.00    +0.094 A 
ATOM      2  N   UNL     1       2.858  -7.086  -5.979  0.00  0.00    -0.312 N 
ATOM      3  H   UNL     1       2.435  -7.782  -5.451  0.00  0.00    +0.170 HD
ATOM      4  C   UNL     1       3.469  -7.414  -7.133  0.00  0.00    +0.260 A 
ATOM      5  O   UNL     1       3.492  -8.571  -7.514  0.00  0.00    -0.267 OA
ATOM      6  C   UNL     1       4.090  -6.381  -7.906  0.00  0.00    +0.080 A 
ATOM      7  C   UNL     1       4.804  -6.481  -9.173  0.00  0.00    +0.004 A 
ATOM      8  C   UNL     1       5.313  -5.353  -9.725  0.00  0.00    +0.056 A 
ATOM      9  S   UNL     1       4.856  -4.082  -8.561  0.00  0.00    -0.076 S 
ATOM     10  C   UNL     1       4.001  -5.085  -7.373  0.00  0.00    +0.116 A 
ATOM     11  N   UNL     1       3.374  -4.838  -6.226  0.00  0.00    -0.229 NA
ENDROOT
BRANCH   7  12
ATOM     12  C   UNL     1       4.971  -7.792  -9.845  0.00  0.00    -0.016 A 
ATOM     13  C   UNL     1       5.446  -8.889  -9.128  0.00  0.00    +0.012 A 
ATOM     14  C   UNL     1       5.600 -10.107  -9.756  0.00  0.00    +0.046 A 
ATOM     15  C   UNL     1       5.282 -10.242 -11.101  0.00  0.00    +0.120 A 
ATOM     16  C   UNL     1       4.809  -9.151 -11.818  0.00  0.00    +0.046 A 
ATOM     17  C   UNL     1       4.647  -7.932 -11.194  0.00  0.00    +0.012 A 
BRANCH  15  18
ATOM     18  O   UNL     1       5.434 -11.444 -11.717  0.00  0.00    -0.495 OA
ATOM     19  C   UNL     1       5.088 -11.512 -13.101  0.00  0.00    +0.277 C 
ENDBRANCH  15  18
ENDBRANCH   7  12
BRANCH   1  20
ATOM     20  C   UNL     1       2.124  -5.483  -4.242  0.00  0.00    -0.003 C 
BRANCH  20  21
ATOM     21  N   UNL     1       2.210  -4.039  -3.983  0.00  0.00    +0.391 N 
ATOM     22  H   UNL     1       3.176  -3.749  -4.016  0.00  0.00    -0.080 HD
BRANCH  21  23
ATOM     23  C   UNL     1       1.656  -3.747  -2.654  0.00  0.00    -0.044 C 
BRANCH  23  24
ATOM     24  C   UNL     1       2.568  -4.341  -1.579  0.00  0.00    +0.124 C 
BRANCH  24  25
ATOM     25  O   UNL     1       2.501  -5.768  -1.632  0.00  0.00    -0.391 OA
ATOM     26  H   UNL     1       1.614  -6.125  -1.484  0.00  0.00    +0.210 HD
ENDBRANCH  24  25
BRANCH  24  27
ATOM     27  C   UNL     1       2.112  -3.860  -0.200  0.00  0.00    +0.189 C 
BRANCH  27  28
ATOM     28  O   UNL     1       3.032  -4.320   0.793  0.00  0.00    -0.378 OA
BRANCH  28  30
ATOM     29  C   UNL     1       3.743  -4.467   3.098  0.00  0.00    +0.034 C 
ATOM     30  C   UNL     1       2.696  -3.923   2.124  0.00  0.00    +0.156 C 
ENDBRANCH  28  30
ENDBRANCH  27  28
ENDBRANCH  24  27
ENDBRANCH  23  24
ENDBRANCH  21  23
BRANCH  21  31
ATOM     31  C   UNL     1       1.445  -3.312  -5.004  0.00  0.00    -0.002 C 
BRANCH  31  32
ATOM     32  C   UNL     1       1.650  -1.830  -4.824  0.00  0.00    +0.089 A 
ATOM     33  C   UNL     1       2.556  -1.077  -5.473  0.00  0.00    +0.042 A 
ATOM     34  C   UNL     1       2.402   0.247  -5.001  0.00  0.00    +0.041 A 
ATOM     35  C   UNL     1       1.412   0.224  -4.092  0.00  0.00    +0.195 A 
ATOM     36  O   UNL     1       0.956  -1.035  -3.993  0.00  0.00    -0.470 OA
ENDBRANCH  31  32
ENDBRANCH  21  31
ENDBRANCH  20  21
ENDBRANCH   1  20
TORSDOF 12
