REMARK  Name = ZINC52569828
REMARK  7 active torsions:
REMARK  status: ('A' for Active; 'I' for Inactive)
REMARK    1  A    between atoms: C_3  and  N_31
REMARK    2  A    between atoms: C_7  and  C_11
REMARK    3  A    between atoms: C_11  and  O_12
REMARK    4  A    between atoms: O_12  and  C_13
REMARK    5  A    between atoms: C_15  and  O_21
REMARK    6  A    between atoms: O_21  and  C_22
REMARK    7  A    between atoms: C_24  and  C_29
REMARK                            x       y       z     vdW  Elec       q    Type
REMARK                         _______ _______ _______ _____ _____    ______ ____
ROOT
ATOM      1  C   UNL     1      -4.043  -1.597   2.036  0.00  0.00    +0.145 A 
ATOM      2  C   UNL     1      -3.734  -0.995   3.246  0.00  0.00    +0.093 A 
ATOM      3  C   UNL     1      -4.666  -0.985   4.273  0.00  0.00    +0.135 A 
ATOM      4  C   UNL     1      -5.907  -1.577   4.088  0.00  0.00    +0.086 A 
ATOM      5  C   UNL     1      -6.215  -2.178   2.880  0.00  0.00    +0.149 A 
ATOM      6  C   UNL     1      -5.287  -2.184   1.852  0.00  0.00    +0.118 A 
ATOM      7 CL   UNL     1      -5.678  -2.932   0.335  0.00  0.00    -0.077 Cl
ATOM      8  F   UNL     1      -7.424  -2.755   2.702  0.00  0.00    -0.204 F 
ENDROOT
BRANCH   1   9
ATOM      9  O   UNL     1      -3.131  -1.608   1.029  0.00  0.00    -0.488 OA
BRANCH   9  10
ATOM     10  C   UNL     1      -1.871  -0.985   1.288  0.00  0.00    +0.260 C 
BRANCH  10  17
ATOM     11  C   UNL     1       0.645   0.972   0.483  0.00  0.00    +0.013 A 
ATOM     12  C   UNL     1       1.988   1.292   0.616  0.00  0.00    +0.044 A 
ATOM     13  C   UNL     1       2.937   0.277   0.506  0.00  0.00    +0.119 A 
ATOM     14  N   UNL     1       2.579  -0.974   0.280  0.00  0.00    -0.212 NA
ATOM     15  C   UNL     1       1.300  -1.322   0.147  0.00  0.00    +0.179 A 
ATOM     16  C   UNL     1       0.310  -0.341   0.249  0.00  0.00    +0.025 A 
ATOM     17  C   UNL     1      -0.982  -1.096   0.048  0.00  0.00    +0.170 C 
ATOM     18  N   UNL     1      -0.533  -2.484  -0.152  0.00  0.00    -0.296 N 
ATOM     19  N   UNL     1       0.696  -2.526  -0.086  0.00  0.00    -0.158 NA
ATOM     20  H   UNL     1      -1.113  -3.245  -0.311  0.00  0.00    +0.183 HD
BRANCH  13  21
ATOM     21  N   UNL     1       4.285   0.587   0.638  0.00  0.00    -0.343 N 
ATOM     22  H   UNL     1       4.558   1.503   0.803  0.00  0.00    +0.144 HD
ATOM     23  H   UNL     1       4.953  -0.112   0.563  0.00  0.00    +0.144 HD
ENDBRANCH  13  21
ENDBRANCH  10  17
ENDBRANCH   9  10
ENDBRANCH   1   9
BRANCH   3  24
ATOM     24  O   UNL     1      -4.364  -0.396   5.459  0.00  0.00    -0.456 OA
BRANCH  24  25
ATOM     25  C   UNL     1      -5.305  -0.417   6.440  0.00  0.00    +0.131 A 
ATOM     26  C   UNL     1      -5.339  -1.466   7.343  0.00  0.00    +0.065 A 
ATOM     27  C   UNL     1      -6.306  -1.484   8.349  0.00  0.00    +0.057 A 
ATOM     28  C   UNL     1      -7.233  -0.444   8.438  0.00  0.00    +0.039 A 
ATOM     29  C   UNL     1      -7.190   0.597   7.532  0.00  0.00    +0.046 A 
ATOM     30  C   UNL     1      -6.227   0.616   6.539  0.00  0.00    +0.066 A 
ATOM     31 CL   UNL     1      -8.343   1.890   7.644  0.00  0.00    -0.083 Cl
BRANCH  27  32
ATOM     32  C   UNL     1      -6.347  -2.566   9.287  0.00  0.00    +0.099 C 
ATOM     33  N   UNL     1      -6.380  -3.425  10.030  0.00  0.00    -0.191 NA
ENDBRANCH  27  32
ENDBRANCH  24  25
ENDBRANCH   3  24
TORSDOF 7
