REMARK  Name = ZINC35486197
REMARK  17 active torsions:
REMARK  status: ('A' for Active; 'I' for Inactive)
REMARK    1  A    between atoms: C_1  and  C_2
REMARK    2  A    between atoms: C_2  and  C_3
REMARK    3  A    between atoms: C_3  and  C_4
REMARK    4  A    between atoms: C_4  and  O_5
REMARK    5  A    between atoms: O_5  and  C_6
REMARK    6  A    between atoms: C_9  and  C_15
REMARK    7  A    between atoms: C_11  and  O_12
REMARK    8  A    between atoms: O_12  and  C_13
REMARK    9  A    between atoms: C_13  and  C_14
REMARK   10  A    between atoms: C_22  and  C_38
REMARK   11  A    between atoms: N_30  and  C_31
REMARK   12  A    between atoms: C_31  and  C_32
REMARK   13  A    between atoms: C_32  and  N_33
REMARK   14  A    between atoms: N_33  and  C_34
REMARK   15  A    between atoms: N_33  and  C_36
REMARK   16  A    between atoms: C_34  and  C_35
REMARK   17  A    between atoms: C_36  and  C_37
REMARK                            x       y       z     vdW  Elec       q    Type
REMARK                         _______ _______ _______ _____ _____    ______ ____
ROOT
ATOM      1  C   UNL     1       1.537  -7.208  -2.791  0.00  0.00    +0.145 C 
ATOM      2  C   UNL     1       2.522  -7.451  -1.695  0.00  0.00    +0.072 A 
ATOM      3  C   UNL     1       3.935  -7.080  -1.565  0.00  0.00    +0.199 A 
ATOM      4  O   UNL     1       4.498  -6.319  -2.332  0.00  0.00    -0.287 OA
ATOM      5  C   UNL     1       4.614  -7.719  -0.410  0.00  0.00    +0.065 A 
ATOM      6  C   UNL     1       5.998  -7.627  -0.264  0.00  0.00    +0.018 A 
ATOM      7  C   UNL     1       6.609  -8.225   0.802  0.00  0.00    -0.050 A 
ATOM      8  C   UNL     1       5.857  -8.922   1.737  0.00  0.00    +0.007 A 
ATOM      9  C   UNL     1       4.489  -9.022   1.610  0.00  0.00    +0.047 A 
ATOM     10  C   UNL     1       3.842  -8.418   0.532  0.00  0.00    +0.139 A 
ATOM     11  O   UNL     1       2.497  -8.520   0.432  0.00  0.00    -0.450 OA
ATOM     12  C   UNL     1       1.883  -8.147  -0.708  0.00  0.00    +0.199 A 
ATOM     13  C   UNL     1       0.491  -8.377  -1.131  0.00  0.00    +0.283 C 
ATOM     14  O   UNL     1      -0.345  -8.971  -0.480  0.00  0.00    -0.267 OA
ATOM     15  N   UNL     1       0.280  -7.832  -2.348  0.00  0.00    -0.285 N 
ATOM     16  C   UNL     1       8.104  -8.127   0.963  0.00  0.00    +0.044 C 
ENDROOT
BRANCH   1  20
ATOM     17  C   UNL     1       0.975  -3.007  -3.363  0.00  0.00    +0.162 A 
ATOM     18  C   UNL     1       0.365  -3.653  -2.299  0.00  0.00    +0.050 A 
ATOM     19  C   UNL     1       0.548  -5.011  -2.117  0.00  0.00    +0.009 A 
ATOM     20  C   UNL     1       1.341  -5.728  -2.994  0.00  0.00    -0.019 A 
ATOM     21  C   UNL     1       1.953  -5.090  -4.057  0.00  0.00    +0.055 A 
ATOM     22  C   UNL     1       1.768  -3.731  -4.249  0.00  0.00    +0.162 A 
BRANCH  17  23
ATOM     23  O   UNL     1       0.795  -1.672  -3.543  0.00  0.00    -0.488 OA
BRANCH  23  24
ATOM     24  C   UNL     1      -0.031  -0.994  -2.595  0.00  0.00    +0.229 C 
BRANCH  24  25
ATOM     25  C   UNL     1      -0.115   0.490  -2.959  0.00  0.00    +0.041 C 
BRANCH  25  27
ATOM     26  C   UNL     1      -1.084   2.699  -2.308  0.00  0.00    +0.004 C 
ATOM     27  C   UNL     1      -1.000   1.215  -1.944  0.00  0.00    -0.000 C 
ENDBRANCH  25  27
ENDBRANCH  24  25
ENDBRANCH  23  24
ENDBRANCH  17  23
BRANCH  22  28
ATOM     28  O   UNL     1       2.365  -3.103  -5.297  0.00  0.00    -0.489 OA
BRANCH  28  29
ATOM     29  C   UNL     1       3.164  -3.908  -6.166  0.00  0.00    +0.226 C 
ATOM     30  C   UNL     1       3.749  -3.034  -7.277  0.00  0.00    +0.048 C 
ENDBRANCH  28  29
ENDBRANCH  22  28
ENDBRANCH   1  20
BRANCH  15  31
ATOM     31  C   UNL     1      -0.980  -7.855  -3.097  0.00  0.00    +0.090 C 
BRANCH  31  32
ATOM     32  C   UNL     1      -1.024  -9.102  -3.982  0.00  0.00    -0.060 C 
BRANCH  32  33
ATOM     33  N   UNL     1      -2.286  -9.126  -4.732  0.00  0.00    +0.380 N 
ATOM     34  H   UNL     1      -3.061  -9.061  -4.089  0.00  0.00    -0.082 HD
BRANCH  33  35
ATOM     35  C   UNL     1      -2.325  -7.988  -5.661  0.00  0.00    -0.082 C 
ATOM     36  C   UNL     1      -3.696  -7.930  -6.339  0.00  0.00    -0.017 C 
ENDBRANCH  33  35
BRANCH  33  37
ATOM     37  C   UNL     1      -2.382 -10.380  -5.491  0.00  0.00    -0.082 C 
ATOM     38  C   UNL     1      -2.485 -11.557  -4.518  0.00  0.00    -0.017 C 
ENDBRANCH  33  37
ENDBRANCH  32  33
ENDBRANCH  31  32
ENDBRANCH  15  31
TORSDOF 12
