REMARK  Name = ZINC12532756
REMARK  9 active torsions:
REMARK  status: ('A' for Active; 'I' for Inactive)
REMARK    1  A    between atoms: C_1  and  C_2
REMARK    2  A    between atoms: C_2  and  C_4
REMARK    3  A    between atoms: C_2  and  O_23
REMARK    4  A    between atoms: N_6  and  C_7
REMARK    5  A    between atoms: C_9  and  S_14
REMARK    6  A    between atoms: S_14  and  N_17
REMARK    7  A    between atoms: O_23  and  C_24
REMARK    8  A    between atoms: C_24  and  C_26
REMARK    9  A    between atoms: C_27  and  C_28
REMARK                            x       y       z     vdW  Elec       q    Type
REMARK                         _______ _______ _______ _____ _____    ______ ____
ROOT
ATOM      1  C   UNL     1       6.583   1.329  -2.116  0.00  0.00    +0.258 C 
ATOM      2  O   UNL     1       6.199   1.601  -0.999  0.00  0.00    -0.271 OA
ATOM      3  N   UNL     1       6.215   0.167  -2.692  0.00  0.00    -0.281 N 
ATOM      4  H   UNL     1       6.586  -0.087  -3.551  0.00  0.00    +0.155 HD
ENDROOT
BRANCH   3   5
ATOM      5  C   UNL     1       5.298  -0.672  -2.049  0.00  0.00    +0.054 A 
ATOM      6  C   UNL     1       4.393  -0.145  -1.137  0.00  0.00    +0.053 A 
ATOM      7  C   UNL     1       3.489  -0.976  -0.504  0.00  0.00    +0.107 A 
ATOM      8  C   UNL     1       3.487  -2.332  -0.775  0.00  0.00    +0.030 A 
ATOM      9  C   UNL     1       4.382  -2.860  -1.687  0.00  0.00    +0.024 A 
ATOM     10  C   UNL     1       5.289  -2.034  -2.323  0.00  0.00    +0.062 A 
ATOM     11 CL   UNL     1       6.417  -2.698  -3.464  0.00  0.00    -0.082 Cl
BRANCH   7  12
ATOM     12  S   UNL     1       2.341  -0.308   0.654  0.00  0.00    +0.061 S 
ATOM     13  O   UNL     1       2.912   0.898   1.141  0.00  0.00    -0.153 OA
ATOM     14  O   UNL     1       1.965  -1.375   1.514  0.00  0.00    -0.153 OA
BRANCH  12  15
ATOM     15  N   UNL     1       0.984   0.119  -0.193  0.00  0.00    -0.177 NA
ATOM     16  C   UNL     1      -0.111  -0.842  -0.387  0.00  0.00    +0.109 C 
ATOM     17  C   UNL     1      -0.418  -0.944  -1.884  0.00  0.00    +0.017 C 
ATOM     18  C   UNL     1      -0.703   0.454  -2.438  0.00  0.00    +0.003 C 
ATOM     19  C   UNL     1       0.533   1.338  -2.258  0.00  0.00    +0.017 C 
ATOM     20  C   UNL     1       0.851   1.466  -0.765  0.00  0.00    +0.109 C 
ENDBRANCH  12  15
ENDBRANCH   7  12
ENDBRANCH   3   5
BRANCH   1  22
ATOM     21  C   UNL     1       6.734   2.818  -4.094  0.00  0.00    +0.062 C 
ATOM     22  C   UNL     1       7.473   2.290  -2.862  0.00  0.00    +0.259 C 
BRANCH  22  23
ATOM     23  O   UNL     1       7.815   3.383  -2.007  0.00  0.00    -0.449 OA
BRANCH  23  24
ATOM     24  C   UNL     1       9.010   3.974  -2.217  0.00  0.00    +0.333 C 
ATOM     25  O   UNL     1       9.741   3.571  -3.102  0.00  0.00    -0.246 OA
BRANCH  24  26
ATOM     26  C   UNL     1       9.414   5.064  -1.406  0.00  0.00    +0.092 C 
ATOM     27  C   UNL     1      10.610   5.656  -1.616  0.00  0.00    +0.015 C 
BRANCH  27  28
ATOM     28  C   UNL     1      11.028   6.786  -0.775  0.00  0.00    -0.021 A 
ATOM     29  C   UNL     1      10.189   7.252   0.244  0.00  0.00    +0.012 A 
ATOM     30  C   UNL     1      10.584   8.311   1.031  0.00  0.00    +0.050 A 
ATOM     31  C   UNL     1      11.814   8.920   0.818  0.00  0.00    +0.166 A 
ATOM     32  C   UNL     1      12.656   8.461  -0.197  0.00  0.00    +0.167 A 
ATOM     33  C   UNL     1      12.270   7.397  -0.987  0.00  0.00    +0.057 A 
ATOM     34  O   UNL     1      13.791   9.221  -0.197  0.00  0.00    -0.453 OA
ATOM     35  C   UNL     1      13.813   9.879   1.083  0.00  0.00    +0.466 C 
ATOM     36  O   UNL     1      12.423   9.965   1.448  0.00  0.00    -0.453 OA
ENDBRANCH  27  28
ENDBRANCH  24  26
ENDBRANCH  23  24
ENDBRANCH  22  23
ENDBRANCH   1  22
TORSDOF 8
