REMARK  Name = ZINC40138564
REMARK  11 active torsions:
REMARK  status: ('A' for Active; 'I' for Inactive)
REMARK    1  A    between atoms: C_1  and  C_2
REMARK    2  A    between atoms: N_9  and  N_10
REMARK    3  A    between atoms: C_11  and  C_13
REMARK    4  A    between atoms: C_17  and  O_19
REMARK    5  A    between atoms: N_22  and  C_23
REMARK    6  A    between atoms: C_23  and  C_24
REMARK    7  A    between atoms: C_24  and  C_25
REMARK    8  A    between atoms: C_25  and  O_26
REMARK    9  A    between atoms: O_26  and  C_27
REMARK   10  A    between atoms: C_30  and  O_33
REMARK   11  A    between atoms: O_33  and  C_34
REMARK                            x       y       z     vdW  Elec       q    Type
REMARK                         _______ _______ _______ _____ _____    ______ ____
ROOT
ATOM      1  C   UNL     1      -0.018   1.503   0.010  0.00  0.00    +0.044 C 
ATOM      2  C   UNL     1       0.002  -0.004   0.002  0.00  0.00    -0.050 A 
ATOM      3  C   UNL     1       0.006  -0.689  -1.201  0.00  0.00    +0.005 A 
ATOM      4  C   UNL     1       0.024  -2.069  -1.225  0.00  0.00    +0.024 A 
ATOM      5  C   UNL     1       0.039  -2.787  -0.034  0.00  0.00    +0.046 A 
ATOM      6  C   UNL     1       0.036  -2.090   1.181  0.00  0.00    +0.029 A 
ATOM      7  C   UNL     1       0.023  -0.700   1.194  0.00  0.00    +0.015 A 
ATOM      8  C   UNL     1       0.056  -3.115   2.251  0.00  0.00    +0.153 C 
ATOM      9  N   UNL     1       0.060  -2.916   3.547  0.00  0.00    -0.174 NA
ATOM     10  C   UNL     1       0.070  -4.409   1.540  0.00  0.00    +0.271 C 
ATOM     11  O   UNL     1       0.088  -5.510   2.056  0.00  0.00    -0.268 OA
ATOM     12  N   UNL     1       0.059  -4.154   0.220  0.00  0.00    -0.265 N 
ENDROOT
BRANCH   9  13
ATOM     13  N   UNL     1       0.079  -4.009   4.423  0.00  0.00    -0.202 N 
ATOM     14  C   UNL     1       0.083  -3.804   5.755  0.00  0.00    +0.263 C 
ATOM     15  O   UNL     1       0.070  -2.672   6.196  0.00  0.00    -0.268 OA
ATOM     16  H   UNL     1       0.090  -4.913   4.071  0.00  0.00    +0.178 HD
BRANCH  14  17
ATOM     17  C   UNL     1       0.104  -4.957   6.679  0.00  0.00    +0.042 A 
ATOM     18  C   UNL     1       0.125  -6.259   6.175  0.00  0.00    +0.013 A 
ATOM     19  C   UNL     1       0.145  -7.333   7.041  0.00  0.00    +0.004 A 
ATOM     20  C   UNL     1       0.143  -7.125   8.409  0.00  0.00    +0.045 A 
ATOM     21  C   UNL     1       0.122  -5.834   8.919  0.00  0.00    +0.118 A 
ATOM     22  C   UNL     1       0.108  -4.748   8.059  0.00  0.00    +0.058 A 
BRANCH  21  23
ATOM     23  O   UNL     1       0.120  -5.635  10.264  0.00  0.00    -0.507 OA
ATOM     24  H   UNL     1       1.003  -5.563  10.652  0.00  0.00    +0.292 HD
ENDBRANCH  21  23
ENDBRANCH  14  17
ENDBRANCH   9  13
BRANCH  12  25
ATOM     25  C   UNL     1       0.068  -5.187  -0.820  0.00  0.00    +0.117 C 
BRANCH  25  26
ATOM     26  C   UNL     1       1.513  -5.526  -1.189  0.00  0.00    +0.060 C 
BRANCH  26  27
ATOM     27  C   UNL     1       1.522  -6.604  -2.275  0.00  0.00    +0.230 C 
BRANCH  27  28
ATOM     28  O   UNL     1       2.872  -6.921  -2.620  0.00  0.00    -0.492 OA
BRANCH  28  29
ATOM     29  C   UNL     1       3.057  -7.869  -3.578  0.00  0.00    +0.121 A 
ATOM     30  C   UNL     1       1.962  -8.475  -4.175  0.00  0.00    +0.049 A 
ATOM     31  C   UNL     1       2.151  -9.438  -5.148  0.00  0.00    +0.049 A 
ATOM     32  C   UNL     1       3.436  -9.798  -5.527  0.00  0.00    +0.120 A 
ATOM     33  C   UNL     1       4.531  -9.191  -4.931  0.00  0.00    +0.049 A 
ATOM     34  C   UNL     1       4.342  -8.225  -3.961  0.00  0.00    +0.049 A 
BRANCH  32  35
ATOM     35  O   UNL     1       3.622 -10.746  -6.484  0.00  0.00    -0.495 OA
ATOM     36  C   UNL     1       4.971 -11.067  -6.826  0.00  0.00    +0.277 C 
ENDBRANCH  32  35
ENDBRANCH  28  29
ENDBRANCH  27  28
ENDBRANCH  26  27
ENDBRANCH  25  26
ENDBRANCH  12  25
TORSDOF 9
