REMARK  Name = ZINC02546658
REMARK  3 active torsions:
REMARK  status: ('A' for Active; 'I' for Inactive)
REMARK    1  A    between atoms: C_1  and  C_2
REMARK    2  A    between atoms: C_5  and  C_8
REMARK    3  A    between atoms: N_14  and  C_15
REMARK                            x       y       z     vdW  Elec       q    Type
REMARK                         _______ _______ _______ _____ _____    ______ ____
ROOT
ATOM      1  C   UNL     1      -0.668   3.634   0.027  0.00  0.00    +0.143 C 
ATOM      2  N   UNL     1       0.635   3.502   0.014  0.00  0.00    -0.143 NA
ATOM      3  N   UNL     1       1.021   2.164   0.004  0.00  0.00    -0.130 NA
ATOM      4  C   UNL     1      -0.017   1.362   0.009  0.00  0.00    +0.191 C 
ATOM      5  C   UNL     1      -1.232   2.251   0.019  0.00  0.00    +0.248 C 
ATOM      6  O   UNL     1      -2.395   1.922   0.022  0.00  0.00    -0.282 OA
ATOM      7  N   UNL     1       0.002  -0.004   0.002  0.00  0.00    -0.322 N 
ATOM      8  H   UNL     1      -0.831  -0.500   0.007  0.00  0.00    +0.148 HD
ENDROOT
BRANCH   1  13
ATOM      9  C   UNL     1      -3.632   8.564   0.079  0.00  0.00    +0.044 C 
ATOM     10  C   UNL     1      -2.856   7.272   0.066  0.00  0.00    -0.050 A 
ATOM     11  C   UNL     1      -1.471   7.301   0.054  0.00  0.00    +0.004 A 
ATOM     12  C   UNL     1      -0.754   6.123   0.041  0.00  0.00    +0.010 A 
ATOM     13  C   UNL     1      -1.428   4.898   0.041  0.00  0.00    +0.006 A 
ATOM     14  C   UNL     1      -2.826   4.878   0.047  0.00  0.00    +0.010 A 
ATOM     15  C   UNL     1      -3.530   6.063   0.066  0.00  0.00    +0.004 A 
ENDBRANCH   1  13
BRANCH   7  16
ATOM     16  C   UNL     1       1.281  -0.719  -0.013  0.00  0.00    +0.072 C 
ATOM     17  C   UNL     1       1.774  -0.851  -1.456  0.00  0.00    +0.022 C 
ATOM     18  C   UNL     1       3.109  -1.598  -1.472  0.00  0.00    +0.002 C 
ATOM     19  C   UNL     1       2.921  -2.991  -0.868  0.00  0.00    +0.000 C 
ATOM     20  C   UNL     1       2.428  -2.859   0.574  0.00  0.00    +0.002 C 
ATOM     21  C   UNL     1       1.093  -2.112   0.590  0.00  0.00    +0.022 C 
ENDBRANCH   7  16
TORSDOF 2
