REMARK  Name = ZINC64006455
REMARK  4 active torsions:
REMARK  status: ('A' for Active; 'I' for Inactive)
REMARK    1  A    between atoms: C_8  and  C_16
REMARK    2  A    between atoms: N_18  and  C_19
REMARK    3  A    between atoms: C_19  and  C_20
REMARK    4  A    between atoms: C_25  and  C_31
REMARK                            x       y       z     vdW  Elec       q    Type
REMARK                         _______ _______ _______ _____ _____    ______ ____
ROOT
ATOM      1  C   UNL     1       5.158  -3.121   0.866  0.00  0.00    +0.219 C 
ATOM      2  O   UNL     1       5.742  -2.639  -0.081  0.00  0.00    -0.275 OA
ATOM      3  N   UNL     1       5.834  -3.853   1.774  0.00  0.00    -0.311 N 
ATOM      4  H   UNL     1       5.366  -4.239   2.531  0.00  0.00    +0.149 HD
ENDROOT
BRANCH   1  11
ATOM      5  C   UNL     1      -0.016   1.347   0.009  0.00  0.00    +0.001 A 
ATOM      6  C   UNL     1       1.165   2.101   0.002  0.00  0.00    +0.002 A 
ATOM      7  C   UNL     1       2.390   1.534  -0.016  0.00  0.00    +0.026 A 
ATOM      8  C   UNL     1       2.529   0.120  -0.029  0.00  0.00    +0.043 A 
ATOM      9  N   UNL     1       3.592  -0.653  -0.026  0.00  0.00    -0.377 N 
ATOM     10  C   UNL     1       3.154  -2.043  -0.127  0.00  0.00    +0.118 C 
ATOM     11  C   UNL     1       3.676  -2.901   1.028  0.00  0.00    +0.101 C 
ATOM     12  C   UNL     1       2.946  -4.248   1.003  0.00  0.00    +0.015 C 
ATOM     13  C   UNL     1       1.455  -4.072   1.288  0.00  0.00    +0.005 C 
ATOM     14  C   UNL     1       0.801  -3.240   0.172  0.00  0.00    +0.033 C 
ATOM     15  C   UNL     1       1.639  -1.997  -0.017  0.00  0.00    -0.038 C 
ATOM     16  C   UNL     1       1.294  -0.702  -0.014  0.00  0.00    -0.001 A 
ATOM     17  C   UNL     1       0.002  -0.004   0.002  0.00  0.00    +0.010 A 
ATOM     18  H   UNL     1       4.512  -0.352   0.034  0.00  0.00    +0.160 HD
ENDBRANCH   1  11
BRANCH   3  19
ATOM     19  C   UNL     1       7.274  -4.067   1.616  0.00  0.00    +0.149 C 
BRANCH  19  20
ATOM     20  C   UNL     1       7.792  -4.926   2.772  0.00  0.00    +0.195 C 
ATOM     21  C   UNL     1       9.323  -5.118   2.669  0.00  0.00    +0.085 C 
ATOM     22  C   UNL     1       9.494  -6.543   3.161  0.00  0.00    +0.001 A 
ATOM     23  C   UNL     1      10.600  -7.246   3.580  0.00  0.00    +0.016 A 
ATOM     24  C   UNL     1      10.465  -8.570   3.997  0.00  0.00    -0.013 A 
ATOM     25  C   UNL     1       9.206  -9.170   3.984  0.00  0.00    +0.050 A 
ATOM     26  C   UNL     1       8.104  -8.459   3.560  0.00  0.00    +0.166 A 
ATOM     27  C   UNL     1       8.238  -7.135   3.139  0.00  0.00    +0.159 A 
ATOM     28  O   UNL     1       7.291  -6.269   2.673  0.00  0.00    -0.484 OA
ATOM     29  F   UNL     1       6.888  -9.047   3.551  0.00  0.00    -0.202 F 
BRANCH  24  30
ATOM     30  C   UNL     1      11.652  -9.335   4.450  0.00  0.00    +0.000 A 
ATOM     31  C   UNL     1      11.525 -10.664   4.863  0.00  0.00    +0.011 A 
ATOM     32  C   UNL     1      12.664 -11.335   5.277  0.00  0.00    +0.020 A 
ATOM     33  C   UNL     1      13.879 -10.674   5.268  0.00  0.00    +0.111 A 
ATOM     34  N   UNL     1      13.967  -9.419   4.873  0.00  0.00    -0.263 NA
ATOM     35  C   UNL     1      12.913  -8.742   4.466  0.00  0.00    +0.119 A 
ENDBRANCH  24  30
ENDBRANCH  19  20
ENDBRANCH   3  19
TORSDOF 4
