REMARK  Name = ZINC05265836
REMARK  5 active torsions:
REMARK  status: ('A' for Active; 'I' for Inactive)
REMARK    1  A    between atoms: C_1  and  C_2
REMARK    2  A    between atoms: C_5  and  C_22
REMARK    3  A    between atoms: C_6  and  N_8
REMARK    4  A    between atoms: N_11  and  C_12
REMARK    5  A    between atoms: N_14  and  C_21
REMARK                            x       y       z     vdW  Elec       q    Type
REMARK                         _______ _______ _______ _____ _____    ______ ____
ROOT
ATOM      1  N   UNL     1       2.356   3.889   0.001  0.00  0.00    -0.269 N 
ATOM      2  C   UNL     1       2.336   5.233  -0.093  0.00  0.00    +0.308 C 
ATOM      3  O   UNL     1       1.276   5.828  -0.081  0.00  0.00    -0.252 OA
ATOM      4  N   UNL     1       3.492   5.918  -0.202  0.00  0.00    -0.267 N 
ATOM      5  H   UNL     1       3.202   3.420   0.073  0.00  0.00    +0.156 HD
ATOM      6  H   UNL     1       4.338   5.443  -0.212  0.00  0.00    +0.156 HD
ENDROOT
BRANCH   4   7
ATOM      7  C   UNL     1       3.472   7.321  -0.300  0.00  0.00    +0.060 A 
ATOM      8  C   UNL     1       2.380   8.109  -0.299  0.00  0.00    +0.109 A 
ATOM      9  N   UNL     1       2.756   9.426  -0.412  0.00  0.00    -0.348 N 
ATOM     10  C   UNL     1       4.128   9.515  -0.490  0.00  0.00    +0.051 A 
ATOM     11  C   UNL     1       4.637   8.206  -0.418  0.00  0.00    +0.021 A 
ATOM     12  C   UNL     1       6.015   7.990  -0.480  0.00  0.00    +0.012 A 
ATOM     13  C   UNL     1       6.864   9.054  -0.600  0.00  0.00    +0.001 A 
ATOM     14  C   UNL     1       6.367  10.348  -0.666  0.00  0.00    +0.002 A 
ATOM     15  C   UNL     1       5.011  10.584  -0.612  0.00  0.00    +0.026 A 
ATOM     16  C   UNL     1       1.835  10.565  -0.446  0.00  0.00    +0.149 C 
ENDBRANCH   4   7
BRANCH   1  22
ATOM     17  C   UNL     1      -2.388   3.583  -1.252  0.00  0.00    +0.044 C 
ATOM     18  C   UNL     1      -1.160   2.998  -0.605  0.00  0.00    -0.049 A 
ATOM     19  C   UNL     1      -1.217   1.745  -0.021  0.00  0.00    +0.004 A 
ATOM     20  C   UNL     1      -0.093   1.207   0.579  0.00  0.00    +0.005 A 
ATOM     21  C   UNL     1       1.093   1.914   0.586  0.00  0.00    -0.029 A 
ATOM     22  C   UNL     1       1.155   3.169  -0.005  0.00  0.00    +0.038 A 
ATOM     23  C   UNL     1       0.024   3.710  -0.602  0.00  0.00    +0.027 A 
ATOM     24  C   UNL     1       2.319   1.324   1.234  0.00  0.00    +0.045 C 
ENDBRANCH   1  22
TORSDOF 2
