REMARK  Name = ZINC31002653
REMARK  6 active torsions:
REMARK  status: ('A' for Active; 'I' for Inactive)
REMARK    1  A    between atoms: C_1  and  C_2
REMARK    2  A    between atoms: C_7  and  N_12
REMARK    3  A    between atoms: C_9  and  C_11
REMARK    4  A    between atoms: C_13  and  C_15
REMARK    5  A    between atoms: C_15  and  N_16
REMARK    6  A    between atoms: N_25  and  C_28
REMARK                            x       y       z     vdW  Elec       q    Type
REMARK                         _______ _______ _______ _____ _____    ______ ____
ROOT
ATOM      1  C   UNL     1      -2.476   1.522  -0.131  0.00  0.00    +0.213 C 
ENDROOT
BRANCH   1   2
ATOM      2  N   UNL     1      -1.097   2.009  -0.048  0.00  0.00    -0.215 N 
ATOM      3  C   UNL     1      -0.016   1.209   0.061  0.00  0.00    +0.247 C 
ATOM      4  O   UNL     1      -0.001  -0.002   0.108  0.00  0.00    -0.273 OA
ATOM      5  C   UNL     1       1.173   2.141   0.106  0.00  0.00    +0.115 C 
ATOM      6  C   UNL     1       2.096   1.883  -1.080  0.00  0.00    +0.035 C 
ATOM      7  C   UNL     1       3.277   2.857  -1.032  0.00  0.00    +0.003 C 
ATOM      8  C   UNL     1       4.040   2.666   0.281  0.00  0.00    +0.000 C 
ATOM      9  C   UNL     1       3.108   2.951   1.460  0.00  0.00    +0.003 C 
ATOM     10  C   UNL     1       1.926   1.978   1.422  0.00  0.00    +0.035 C 
ATOM     11  N   UNL     1       0.579   3.481   0.015  0.00  0.00    -0.274 N 
ATOM     12  C   UNL     1      -0.753   3.303  -0.068  0.00  0.00    +0.312 C 
ATOM     13  O   UNL     1      -1.553   4.213  -0.156  0.00  0.00    -0.252 OA
ATOM     14  C   UNL     1       1.295   4.760   0.016  0.00  0.00    +0.134 C 
ENDBRANCH   1   2
BRANCH   1  16
ATOM     15  N   UNL     1      -4.319   0.978   1.427  0.00  0.00    -0.311 N 
ATOM     16  C   UNL     1      -3.053   1.409   1.257  0.00  0.00    +0.231 C 
ATOM     17  O   UNL     1      -2.378   1.706   2.220  0.00  0.00    -0.274 OA
ATOM     18  H   UNL     1      -4.931   0.710   0.554  0.00  0.00    +0.149 HD
BRANCH  15  24
ATOM     19  C   UNL     1      -8.223  -0.776   1.806  0.00  0.00    +0.008 C 
ATOM     20  C   UNL     1      -7.100   0.263   1.804  0.00  0.00    -0.009 C 
ATOM     21  C   UNL     1      -7.659   1.620   2.236  0.00  0.00    +0.003 C 
ATOM     22  C   UNL     1      -6.535   2.658   2.234  0.00  0.00    +0.002 C 
ATOM     23  C   UNL     1      -5.438   2.225   3.209  0.00  0.00    +0.022 C 
ATOM     24  C   UNL     1      -4.879   0.868   2.776  0.00  0.00    +0.076 C 
ATOM     25  C   UNL     1      -6.003  -0.171   2.779  0.00  0.00    +0.009 C 
ATOM     26  C   UNL     1      -5.443  -1.528   2.346  0.00  0.00    +0.009 C 
ENDBRANCH  15  24
ENDBRANCH   1  16
TORSDOF 3
