REMARK  Name = ZINC22665529
REMARK  8 active torsions:
REMARK  status: ('A' for Active; 'I' for Inactive)
REMARK    1  A    between atoms: C_1  and  C_2
REMARK    2  A    between atoms: C_2  and  C_3
REMARK    3  A    between atoms: C_3  and  N_4
REMARK    4  A    between atoms: N_4  and  C_5
REMARK    5  A    between atoms: C_6  and  C_8
REMARK    6  A    between atoms: C_11  and  N_14
REMARK    7  A    between atoms: N_14  and  N_15
REMARK    8  A    between atoms: C_20  and  C_26
REMARK                            x       y       z     vdW  Elec       q    Type
REMARK                         _______ _______ _______ _____ _____    ______ ____
ROOT
ATOM      1  N   UNL     1       3.173   3.860  -0.830  0.00  0.00    -0.237 N 
ATOM      2  H   UNL     1       3.708   2.901  -0.899  0.00  0.00    +0.174 HD
ENDROOT
BRANCH   1   3
ATOM      3  N   UNL     1       1.886   3.888  -0.901  0.00  0.00    -0.177 NA
ATOM      4  C   UNL     1       1.212   2.771  -1.056  0.00  0.00    +0.152 C 
ATOM      5  C   UNL     1      -0.257   2.610  -1.157  0.00  0.00    +0.029 A 
ATOM      6  C   UNL     1      -1.318   3.509  -1.124  0.00  0.00    +0.026 A 
ATOM      7  C   UNL     1      -2.611   3.046  -1.262  0.00  0.00    +0.017 A 
ATOM      8  C   UNL     1      -2.850   1.690  -1.420  0.00  0.00    -0.036 A 
ATOM      9  C   UNL     1      -1.804   0.791  -1.449  0.00  0.00    +0.028 A 
ATOM     10  C   UNL     1      -0.494   1.239  -1.319  0.00  0.00    +0.043 A 
ATOM     11  N   UNL     1       0.719   0.560  -1.315  0.00  0.00    -0.280 N 
ATOM     12  C   UNL     1       1.754   1.405  -1.168  0.00  0.00    +0.269 C 
ATOM     13  O   UNL     1       2.931   1.097  -1.132  0.00  0.00    -0.268 OA
ATOM     14  C   UNL     1      -4.266   1.193  -1.560  0.00  0.00    +0.045 C 
ATOM     15  I   UNL     1      -4.215   4.393  -1.219  0.00  0.00    -0.044 I 
ATOM     16  H   UNL     1       0.737  -0.534  -1.425  0.00  0.00    +0.155 HD
ENDBRANCH   1   3
BRANCH   1  20
ATOM     17  C   UNL     1       5.307   7.400  -0.340  0.00  0.00    +0.037 A 
ATOM     18  C   UNL     1       5.985   6.181  -0.427  0.00  0.00    +0.015 A 
ATOM     19  C   UNL     1       5.276   5.012  -0.589  0.00  0.00    +0.025 A 
ATOM     20  C   UNL     1       3.886   5.043  -0.666  0.00  0.00    +0.048 A 
ATOM     21  C   UNL     1       3.209   6.257  -0.584  0.00  0.00    +0.025 A 
ATOM     22  C   UNL     1       3.912   7.429  -0.416  0.00  0.00    +0.015 A 
BRANCH  17  25
ATOM     23  N   UNL     1       7.139   8.687   0.647  0.00  0.00    -0.301 N 
ATOM     24  C   UNL     1       7.621   7.453   1.273  0.00  0.00    +0.132 C 
ATOM     25  C   UNL     1       6.064   8.656  -0.165  0.00  0.00    +0.246 C 
ATOM     26  O   UNL     1       5.718   9.661  -0.754  0.00  0.00    -0.270 OA
BRANCH  23  27
ATOM     27  C   UNL     1       7.827   9.955   0.903  0.00  0.00    +0.107 C 
BRANCH  27  29
ATOM     28  C   UNL     1       7.922  11.959   2.393  0.00  0.00    +0.005 C 
ATOM     29  C   UNL     1       7.204  10.634   2.125  0.00  0.00    +0.016 C 
ENDBRANCH  27  29
ENDBRANCH  23  27
ENDBRANCH  17  25
ENDBRANCH   1  20
TORSDOF 5
