REMARK  Name = ZINC13627152
REMARK  4 active torsions:
REMARK  status: ('A' for Active; 'I' for Inactive)
REMARK    1  A    between atoms: C_1  and  N_2
REMARK    2  A    between atoms: C_4  and  C_25
REMARK    3  A    between atoms: C_6  and  C_18
REMARK    4  A    between atoms: C_18  and  C_20
REMARK                            x       y       z     vdW  Elec       q    Type
REMARK                         _______ _______ _______ _____ _____    ______ ____
ROOT
ATOM      1  C   UNL     1       0.003   1.506   0.078  0.00  0.00    +0.106 C 
ATOM      2  N   UNL     1       0.045   0.038   0.041  0.00  0.00    -0.287 NA
ATOM      3  C   UNL     1      -1.321  -0.530  -0.017  0.00  0.00    +0.094 C 
ATOM      4  C   UNL     1      -1.235  -1.851   0.788  0.00  0.00    +0.046 C 
ATOM      5  C   UNL     1      -0.256  -1.462   1.929  0.00  0.00    +0.106 C 
ATOM      6  C   UNL     1       0.716  -0.498   1.230  0.00  0.00    +0.136 C 
ATOM      7  C   UNL     1       1.996  -1.202   0.868  0.00  0.00    +0.004 A 
ATOM      8  C   UNL     1       2.287  -2.277   0.058  0.00  0.00    +0.008 A 
ATOM      9  C   UNL     1       3.595  -2.706  -0.080  0.00  0.00    +0.000 A 
ATOM     10  C   UNL     1       4.609  -2.052   0.596  0.00  0.00    +0.002 A 
ATOM     11  C   UNL     1       4.322  -0.974   1.408  0.00  0.00    +0.023 A 
ATOM     12  C   UNL     1       3.007  -0.535   1.552  0.00  0.00    +0.039 A 
ATOM     13  N   UNL     1       2.473   0.515   2.301  0.00  0.00    -0.283 N 
ATOM     14  C   UNL     1       1.136   0.605   2.167  0.00  0.00    +0.243 C 
ATOM     15  O   UNL     1       0.410   1.419   2.697  0.00  0.00    -0.273 OA
ATOM     16  H   UNL     1       3.002   1.110   2.854  0.00  0.00    +0.155 HD
ENDROOT
BRANCH   4  17
ATOM     17  C   UNL     1      -2.584  -2.234   1.341  0.00  0.00    -0.042 A 
ATOM     18  C   UNL     1      -3.259  -1.366   2.180  0.00  0.00    +0.007 A 
ATOM     19  C   UNL     1      -4.496  -1.716   2.687  0.00  0.00    +0.038 A 
ATOM     20  C   UNL     1      -5.059  -2.936   2.355  0.00  0.00    +0.123 A 
ATOM     21  C   UNL     1      -4.383  -3.804   1.515  0.00  0.00    +0.038 A 
ATOM     22  C   UNL     1      -3.148  -3.450   1.005  0.00  0.00    +0.007 A 
ATOM     23  F   UNL     1      -6.269  -3.280   2.850  0.00  0.00    -0.205 F 
ENDBRANCH   4  17
BRANCH   5  24
ATOM     24  C   UNL     1       0.470  -2.677   2.447  0.00  0.00    +0.204 C 
ATOM     25  O   UNL     1       0.578  -3.663   1.747  0.00  0.00    -0.288 OA
BRANCH  24  26
ATOM     26  C   UNL     1       1.024  -2.668   3.747  0.00  0.00    +0.170 A 
ATOM     27  C   UNL     1       1.716  -3.703   4.343  0.00  0.00    +0.053 A 
ATOM     28  C   UNL     1       2.078  -3.257   5.621  0.00  0.00    +0.042 A 
ATOM     29  C   UNL     1       1.604  -1.996   5.754  0.00  0.00    +0.196 A 
ATOM     30  O   UNL     1       0.978  -1.644   4.625  0.00  0.00    -0.460 OA
ENDBRANCH  24  26
ENDBRANCH   5  24
TORSDOF 3
