REMARK  Name = ZINC09298047
REMARK  9 active torsions:
REMARK  status: ('A' for Active; 'I' for Inactive)
REMARK    1  A    between atoms: C_1  and  C_2
REMARK    2  A    between atoms: C_2  and  O_3
REMARK    3  A    between atoms: O_3  and  C_4
REMARK    4  A    between atoms: C_7  and  C_9
REMARK    5  A    between atoms: C_13  and  N_14
REMARK    6  A    between atoms: C_15  and  C_17
REMARK    7  A    between atoms: C_17  and  C_18
REMARK    8  A    between atoms: C_18  and  S_19
REMARK    9  A    between atoms: S_19  and  C_22
REMARK                            x       y       z     vdW  Elec       q    Type
REMARK                         _______ _______ _______ _____ _____    ______ ____
ROOT
ATOM      1  C   UNL     1      -0.558   0.998   2.575  0.00  0.00    +0.069 A 
ATOM      2  C   UNL     1      -0.732   1.580   1.257  0.00  0.00    -0.023 A 
ATOM      3  C   UNL     1      -1.601   2.615   1.194  0.00  0.00    -0.004 A 
ATOM      4  S   UNL     1      -2.179   2.821   2.854  0.00  0.00    -0.077 S 
ATOM      5  C   UNL     1      -1.284   1.551   3.622  0.00  0.00    +0.084 A 
ATOM      6  C   UNL     1      -1.979   3.405  -0.021  0.00  0.00    +0.043 C 
ATOM      7  C   UNL     1      -0.956   3.111  -1.127  0.00  0.00    +0.005 C 
ATOM      8  C   UNL     1      -0.758   1.595  -1.227  0.00  0.00    +0.005 C 
ATOM      9  C   UNL     1      -0.013   1.086   0.008  0.00  0.00    +0.037 C 
ENDROOT
BRANCH   1  13
ATOM     10  C   UNL     1       2.478  -0.943   3.305  0.00  0.00    +0.407 C 
ATOM     11  O   UNL     1       2.067  -2.082   3.205  0.00  0.00    -0.226 OA
ATOM     12  N   UNL     1       1.642   0.095   3.104  0.00  0.00    -0.217 N 
ATOM     13  C   UNL     1       0.350  -0.130   2.793  0.00  0.00    +0.255 C 
ATOM     14  O   UNL     1      -0.061  -1.271   2.693  0.00  0.00    -0.270 OA
ATOM     15  H   UNL     1       1.970   1.005   3.184  0.00  0.00    +0.161 HD
BRANCH  10  16
ATOM     16  O   UNL     1       3.768  -0.718   3.616  0.00  0.00    -0.450 OA
BRANCH  16  18
ATOM     17  C   UNL     1       6.032  -1.431   4.160  0.00  0.00    +0.048 C 
ATOM     18  C   UNL     1       4.611  -1.883   3.818  0.00  0.00    +0.230 C 
ENDBRANCH  16  18
ENDBRANCH  10  16
ENDBRANCH   1  13
BRANCH   5  19
ATOM     19  N   UNL     1      -1.290   1.179   4.957  0.00  0.00    -0.279 N 
ATOM     20  C   UNL     1      -2.067   1.840   5.838  0.00  0.00    +0.219 C 
ATOM     21  O   UNL     1      -2.760   2.761   5.462  0.00  0.00    -0.275 OA
ATOM     22  H   UNL     1      -0.735   0.442   5.258  0.00  0.00    +0.155 HD
BRANCH  20  23
ATOM     23  C   UNL     1      -2.074   1.435   7.290  0.00  0.00    +0.119 C 
BRANCH  23  24
ATOM     24  C   UNL     1      -3.032   2.339   8.067  0.00  0.00    +0.181 C 
BRANCH  24  25
ATOM     25  S   UNL     1      -3.041   1.851   9.814  0.00  0.00    -0.003 S 
ATOM     26  O   UNL     1      -3.632   0.568   9.961  0.00  0.00    -0.169 OA
ATOM     27  O   UNL     1      -1.783   2.142  10.409  0.00  0.00    -0.169 OA
BRANCH  25  28
ATOM     28  C   UNL     1      -4.171   2.959  10.588  0.00  0.00    +0.088 A 
ATOM     29  C   UNL     1      -3.717   4.154  11.114  0.00  0.00    +0.028 A 
ATOM     30  C   UNL     1      -4.605   5.026  11.716  0.00  0.00    +0.022 A 
ATOM     31  C   UNL     1      -5.946   4.697  11.803  0.00  0.00    +0.041 A 
ATOM     32  C   UNL     1      -6.399   3.498  11.281  0.00  0.00    +0.022 A 
ATOM     33  C   UNL     1      -5.511   2.630  10.674  0.00  0.00    +0.028 A 
ATOM     34 CL   UNL     1      -7.060   5.789  12.565  0.00  0.00    -0.084 Cl
ENDBRANCH  25  28
ENDBRANCH  24  25
ENDBRANCH  23  24
ENDBRANCH  20  23
ENDBRANCH   5  19
TORSDOF 8
