REMARK  Name = ZINC65152358
REMARK  9 active torsions:
REMARK  status: ('A' for Active; 'I' for Inactive)
REMARK    1  A    between atoms: C_1  and  C_2
REMARK    2  A    between atoms: C_2  and  C_3
REMARK    3  A    between atoms: C_3  and  N_4
REMARK    4  A    between atoms: C_6  and  C_19
REMARK    5  A    between atoms: C_7  and  S_9
REMARK    6  A    between atoms: S_9  and  N_12
REMARK    7  A    between atoms: C_15  and  C_18
REMARK    8  A    between atoms: N_21  and  C_22
REMARK    9  A    between atoms: C_22  and  C_23
REMARK                            x       y       z     vdW  Elec       q    Type
REMARK                         _______ _______ _______ _____ _____    ______ ____
ROOT
ATOM      1  N   UNL     1      -1.413  -1.998   0.005  0.00  0.00    -0.269 N 
ATOM      2  C   UNL     1      -2.024  -2.796   0.896  0.00  0.00    +0.123 A 
ATOM      3  C   UNL     1      -1.758  -4.101   0.532  0.00  0.00    +0.101 A 
ATOM      4  C   UNL     1      -0.954  -4.055  -0.629  0.00  0.00    +0.227 A 
ATOM      5  N   UNL     1      -0.760  -2.802  -0.936  0.00  0.00    -0.150 NA
ENDROOT
BRANCH   3   6
ATOM      6  C   UNL     1      -2.227  -5.315   1.224  0.00  0.00    +0.249 C 
ATOM      7  O   UNL     1      -1.921  -6.413   0.800  0.00  0.00    -0.270 OA
ATOM      8  N   UNL     1      -2.994  -5.209   2.328  0.00  0.00    -0.307 N 
ATOM      9  H   UNL     1      -3.237  -4.333   2.666  0.00  0.00    +0.149 HD
BRANCH   8  10
ATOM     10  C   UNL     1      -3.459  -6.415   3.016  0.00  0.00    +0.142 C 
BRANCH  10  11
ATOM     11  C   UNL     1      -4.291  -6.023   4.209  0.00  0.00    +0.005 A 
ATOM     12  C   UNL     1      -3.733  -6.029   5.474  0.00  0.00    +0.008 A 
ATOM     13  C   UNL     1      -4.496  -5.669   6.569  0.00  0.00    +0.000 A 
ATOM     14  C   UNL     1      -5.819  -5.304   6.401  0.00  0.00    +0.003 A 
ATOM     15  C   UNL     1      -6.379  -5.297   5.138  0.00  0.00    +0.038 A 
ATOM     16  C   UNL     1      -5.614  -5.652   4.039  0.00  0.00    +0.128 A 
ATOM     17  F   UNL     1      -6.160  -5.641   2.804  0.00  0.00    -0.205 F 
ENDBRANCH  10  11
ENDBRANCH   8  10
ENDBRANCH   3   6
BRANCH   4  18
ATOM     18  S   UNL     1      -0.329  -5.446  -1.511  0.00  0.00    +0.081 S 
ATOM     19  O   UNL     1       0.993  -5.667  -1.038  0.00  0.00    -0.151 OA
ATOM     20  O   UNL     1      -1.335  -6.448  -1.455  0.00  0.00    -0.151 OA
BRANCH  18  21
ATOM     21  N   UNL     1      -0.194  -4.998  -3.100  0.00  0.00    -0.175 NA
ATOM     22  C   UNL     1      -1.317  -5.187  -4.028  0.00  0.00    +0.110 C 
ATOM     23  C   UNL     1      -0.824  -5.978  -5.244  0.00  0.00    +0.020 C 
ATOM     24  C   UNL     1       0.385  -5.266  -5.855  0.00  0.00    -0.012 C 
ATOM     25  C   UNL     1       1.517  -5.205  -4.827  0.00  0.00    +0.020 C 
ATOM     26  C   UNL     1       1.048  -4.399  -3.606  0.00  0.00    +0.110 C 
ATOM     27  C   UNL     1       0.859  -6.035  -7.090  0.00  0.00    +0.007 C 
ENDBRANCH  18  21
ENDBRANCH   4  18
BRANCH   1  28
ATOM     28  C   UNL     1      -1.433  -0.534   0.013  0.00  0.00    +0.143 C 
BRANCH  28  30
ATOM     29  C   UNL     1      -0.019   1.526   0.010  0.00  0.00    +0.005 C 
ATOM     30  C   UNL     1       0.002  -0.004   0.002  0.00  0.00    +0.020 C 
ENDBRANCH  28  30
ENDBRANCH   1  28
TORSDOF 7
