REMARK  Name = ZINC20564849
REMARK  11 active torsions:
REMARK  status: ('A' for Active; 'I' for Inactive)
REMARK    1  A    between atoms: C_1  and  C_2
REMARK    2  A    between atoms: C_2  and  N_3
REMARK    3  A    between atoms: N_3  and  C_4
REMARK    4  A    between atoms: N_3  and  C_6
REMARK    5  A    between atoms: C_4  and  C_5
REMARK    6  A    between atoms: C_6  and  C_7
REMARK    7  A    between atoms: C_7  and  N_8
REMARK    8  A    between atoms: C_9  and  C_11
REMARK    9  A    between atoms: C_21  and  C_24
REMARK   10  A    between atoms: C_25  and  C_34
REMARK   11  A    between atoms: N_26  and  C_28
REMARK                            x       y       z     vdW  Elec       q    Type
REMARK                         _______ _______ _______ _____ _____    ______ ____
ROOT
ATOM      1  C   UNL     1      -3.455   2.040   1.938  0.00  0.00    +0.092 C 
ATOM      2  C   UNL     1      -3.343   2.775   0.599  0.00  0.00    +0.016 C 
ATOM      3  C   UNL     1      -3.622   1.790  -0.540  0.00  0.00    +0.020 C 
ATOM      4  C   UNL     1      -2.635   0.624  -0.453  0.00  0.00    +0.106 C 
ATOM      5  N   UNL     1      -2.783  -0.047   0.845  0.00  0.00    -0.311 N 
ATOM      6  C   UNL     1      -2.474   0.866   1.953  0.00  0.00    +0.119 C 
ATOM      7  C   UNL     1      -1.997  -1.187   0.907  0.00  0.00    +0.172 A 
ATOM      8  C   UNL     1      -0.557  -1.122   0.664  0.00  0.00    +0.137 A 
ATOM      9  C   UNL     1       0.182  -2.398   0.750  0.00  0.00    +0.049 A 
ATOM     10  C   UNL     1      -0.570  -3.553   1.056  0.00  0.00    +0.072 A 
ATOM     11  N   UNL     1      -1.860  -3.451   1.248  0.00  0.00    -0.152 NA
ATOM     12  N   UNL     1      -2.528  -2.364   1.182  0.00  0.00    -0.132 NA
ATOM     13  C   UNL     1       0.109  -4.894   1.161  0.00  0.00    +0.068 C 
ATOM     14  C   UNL     1       1.501  -2.100   0.490  0.00  0.00    +0.051 A 
ATOM     15  N   UNL     1       1.589  -0.778   0.264  0.00  0.00    -0.236 N 
ATOM     16  N   UNL     1       0.322  -0.190   0.374  0.00  0.00    -0.163 NA
ATOM     17  C   UNL     1       2.643  -3.083   0.464  0.00  0.00    +0.066 C 
ENDROOT
BRANCH  15  18
ATOM     18  C   UNL     1       2.772  -0.089  -0.036  0.00  0.00    +0.066 A 
ATOM     19  C   UNL     1       2.990   1.179   0.485  0.00  0.00    +0.028 A 
ATOM     20  C   UNL     1       4.159   1.853   0.192  0.00  0.00    +0.002 A 
ATOM     21  C   UNL     1       5.108   1.270  -0.629  0.00  0.00    +0.000 A 
ATOM     22  C   UNL     1       4.891   0.009  -1.154  0.00  0.00    +0.002 A 
ATOM     23  C   UNL     1       3.726  -0.672  -0.860  0.00  0.00    +0.028 A 
ENDBRANCH  15  18
BRANCH   1  25
ATOM     24  N   UNL     1      -3.860   4.103   3.240  0.00  0.00    -0.317 N 
ATOM     25  C   UNL     1      -3.125   2.988   3.062  0.00  0.00    +0.218 C 
ATOM     26  O   UNL     1      -2.198   2.747   3.805  0.00  0.00    -0.275 OA
ATOM     27  H   UNL     1      -4.701   4.321   2.566  0.00  0.00    +0.149 HD
BRANCH  24  28
ATOM     28  C   UNL     1      -3.539   5.024   4.333  0.00  0.00    +0.085 C 
BRANCH  28  29
ATOM     29  C   UNL     1      -4.519   6.200   4.313  0.00  0.00    -0.060 C 
BRANCH  29  30
ATOM     30  N   UNL     1      -4.197   7.124   5.409  0.00  0.00    +0.380 N 
ATOM     31  H   UNL     1      -4.144   6.539   6.339  0.00  0.00    -0.082 HD
BRANCH  30  33
ATOM     32  C   UNL     1      -2.922   8.579   3.908  0.00  0.00    -0.017 C 
ATOM     33  C   UNL     1      -2.888   7.756   5.197  0.00  0.00    -0.082 C 
ENDBRANCH  30  33
BRANCH  30  34
ATOM     34  C   UNL     1      -5.250   8.135   5.571  0.00  0.00    -0.082 C 
ATOM     35  C   UNL     1      -5.032   8.892   6.883  0.00  0.00    -0.017 C 
ENDBRANCH  30  34
ENDBRANCH  29  30
ENDBRANCH  28  29
ENDBRANCH  24  28
ENDBRANCH   1  25
TORSDOF 7
