REMARK  Name = ZINC16328405
REMARK  8 active torsions:
REMARK  status: ('A' for Active; 'I' for Inactive)
REMARK    1  A    between atoms: C_1  and  C_2
REMARK    2  A    between atoms: C_4  and  C_30
REMARK    3  A    between atoms: C_5  and  N_9
REMARK    4  A    between atoms: C_13  and  S_15
REMARK    5  A    between atoms: S_15  and  C_16
REMARK    6  A    between atoms: C_16  and  C_17
REMARK    7  A    between atoms: N_19  and  N_20
REMARK    8  A    between atoms: C_21  and  C_23
REMARK                            x       y       z     vdW  Elec       q    Type
REMARK                         _______ _______ _______ _____ _____    ______ ____
ROOT
ATOM      1  S   UNL     1      -3.596  -3.260   4.561  0.00  0.00    -0.088 S 
ENDROOT
BRANCH   1   6
ATOM      2  N   UNL     1      -1.966  -6.424  -0.016  0.00  0.00    -0.291 N 
ATOM      3  C   UNL     1      -2.161  -5.762   1.192  0.00  0.00    +0.187 A 
ATOM      4  N   UNL     1      -1.446  -5.814   2.298  0.00  0.00    -0.125 NA
ATOM      5  N   UNL     1      -1.818  -5.065   3.390  0.00  0.00    -0.133 NA
ATOM      6  C   UNL     1      -2.895  -4.306   3.329  0.00  0.00    +0.160 A 
ATOM      7  S   UNL     1      -3.448  -4.615   1.658  0.00  0.00    -0.024 S 
ATOM      8  H   UNL     1      -2.538  -6.228  -0.774  0.00  0.00    +0.154 HD
BRANCH   2  13
ATOM      9  C   UNL     1       2.179 -10.266  -0.506  0.00  0.00    +0.044 C 
ATOM     10  C   UNL     1       1.078  -9.245  -0.376  0.00  0.00    -0.049 A 
ATOM     11  C   UNL     1      -0.205  -9.650  -0.055  0.00  0.00    +0.008 A 
ATOM     12  C   UNL     1      -1.215  -8.717   0.070  0.00  0.00    -0.028 A 
ATOM     13  C   UNL     1      -0.945  -7.370  -0.137  0.00  0.00    +0.054 A 
ATOM     14  C   UNL     1       0.346  -6.966  -0.459  0.00  0.00    +0.063 A 
ATOM     15  C   UNL     1       1.353  -7.905  -0.578  0.00  0.00    +0.025 A 
ATOM     16 CL   UNL     1       0.691  -5.284  -0.713  0.00  0.00    -0.082 Cl
ATOM     17  C   UNL     1      -2.611  -9.160   0.426  0.00  0.00    +0.046 C 
ENDBRANCH   2  13
ENDBRANCH   1   6
BRANCH   1  18
ATOM     18  C   UNL     1      -2.493  -3.461   5.987  0.00  0.00    +0.173 C 
BRANCH  18  19
ATOM     19  C   UNL     1      -2.985  -2.608   7.128  0.00  0.00    +0.239 C 
ATOM     20  O   UNL     1      -3.979  -1.927   6.990  0.00  0.00    -0.273 OA
ATOM     21  N   UNL     1      -2.317  -2.598   8.298  0.00  0.00    -0.233 N 
ATOM     22  H   UNL     1      -1.520  -3.139   8.407  0.00  0.00    +0.173 HD
BRANCH  21  23
ATOM     23  N   UNL     1      -2.775  -1.805   9.359  0.00  0.00    -0.230 N 
ATOM     24  C   UNL     1      -2.107  -1.795  10.530  0.00  0.00    +0.260 C 
ATOM     25  O   UNL     1      -1.108  -2.473  10.665  0.00  0.00    -0.269 OA
ATOM     26  H   UNL     1      -3.573  -1.264   9.251  0.00  0.00    +0.173 HD
BRANCH  24  27
ATOM     27  C   UNL     1      -2.590  -0.959  11.648  0.00  0.00    +0.038 A 
ATOM     28  C   UNL     1      -3.735  -0.174  11.493  0.00  0.00    +0.016 A 
ATOM     29  C   UNL     1      -4.184   0.599  12.541  0.00  0.00    +0.039 A 
ATOM     30  C   UNL     1      -3.495   0.608  13.745  0.00  0.00    +0.123 A 
ATOM     31  C   UNL     1      -2.355  -0.165  13.902  0.00  0.00    +0.039 A 
ATOM     32  C   UNL     1      -1.900  -0.946  12.862  0.00  0.00    +0.016 A 
ATOM     33  F   UNL     1      -3.937   1.373  14.767  0.00  0.00    -0.205 F 
ENDBRANCH  24  27
ENDBRANCH  21  23
ENDBRANCH  18  19
ENDBRANCH   1  18
TORSDOF 6
