REMARK  Name = ZINC40363571
REMARK  11 active torsions:
REMARK  status: ('A' for Active; 'I' for Inactive)
REMARK    1  A    between atoms: C_1  and  C_2
REMARK    2  A    between atoms: C_7  and  C_8
REMARK    3  A    between atoms: C_8  and  S_9
REMARK    4  A    between atoms: S_9  and  C_10
REMARK    5  A    between atoms: C_13  and  C_24
REMARK    6  A    between atoms: N_14  and  C_15
REMARK    7  A    between atoms: C_18  and  N_21
REMARK    8  A    between atoms: C_24  and  C_26
REMARK    9  A    between atoms: C_24  and  N_27
REMARK   10  A    between atoms: C_28  and  C_30
REMARK   11  A    between atoms: C_34  and  N_36
REMARK                            x       y       z     vdW  Elec       q    Type
REMARK                         _______ _______ _______ _____ _____    ______ ____
ROOT
ATOM      1  C   UNL     1      -1.513   1.192   4.568  0.00  0.00    +0.196 A 
ATOM      2  N   UNL     1      -0.387   1.548   5.142  0.00  0.00    -0.122 NA
ATOM      3  N   UNL     1      -0.633   2.167   6.241  0.00  0.00    -0.131 NA
ATOM      4  C   UNL     1      -1.919   2.245   6.435  0.00  0.00    +0.159 A 
ATOM      5  N   UNL     1      -2.529   1.632   5.372  0.00  0.00    -0.273 N 
ENDROOT
BRANCH   5   6
ATOM      6  C   UNL     1      -3.906   1.483   5.156  0.00  0.00    +0.050 A 
ATOM      7  C   UNL     1      -4.701   2.600   4.938  0.00  0.00    +0.028 A 
ATOM      8  C   UNL     1      -6.057   2.450   4.725  0.00  0.00    +0.035 A 
ATOM      9  C   UNL     1      -6.624   1.189   4.729  0.00  0.00    +0.126 A 
ATOM     10  C   UNL     1      -5.835   0.075   4.946  0.00  0.00    +0.035 A 
ATOM     11  C   UNL     1      -4.477   0.217   5.154  0.00  0.00    +0.028 A 
BRANCH   9  12
ATOM     12  N   UNL     1      -8.078   1.032   4.502  0.00  0.00    +0.056 N 
ATOM     13  O   UNL     1      -8.769   2.006   4.312  0.00  0.00    -0.126 OA
ATOM     14  O   UNL     1      -8.575  -0.070   4.505  0.00  0.00    -0.126 OA
ENDBRANCH   9  12
ENDBRANCH   5   6
BRANCH   4  15
ATOM     15  C   UNL     1      -2.608   2.894   7.607  0.00  0.00    +0.139 C 
ATOM     16  C   UNL     1      -2.541   4.416   7.460  0.00  0.00    +0.036 C 
BRANCH  15  17
ATOM     17  N   UNL     1      -1.942   2.494   8.849  0.00  0.00    -0.302 N 
ATOM     18  C   UNL     1      -2.621   2.507  10.013  0.00  0.00    +0.245 C 
ATOM     19  O   UNL     1      -3.787   2.852  10.033  0.00  0.00    -0.270 OA
ATOM     20  H   UNL     1      -1.012   2.219   8.833  0.00  0.00    +0.150 HD
BRANCH  18  21
ATOM     21  C   UNL     1      -1.948   2.103  11.266  0.00  0.00    +0.039 A 
ATOM     22  C   UNL     1      -0.608   1.712  11.247  0.00  0.00    +0.013 A 
ATOM     23  C   UNL     1       0.013   1.337  12.420  0.00  0.00    +0.003 A 
ATOM     24  C   UNL     1      -0.688   1.346  13.613  0.00  0.00    +0.033 A 
ATOM     25  C   UNL     1      -2.017   1.732  13.638  0.00  0.00    +0.127 A 
ATOM     26  C   UNL     1      -2.649   2.116  12.473  0.00  0.00    +0.045 A 
BRANCH  25  27
ATOM     27  N   UNL     1      -2.760   1.738  14.918  0.00  0.00    +0.056 N 
ATOM     28  O   UNL     1      -2.206   1.407  15.940  0.00  0.00    -0.126 OA
ATOM     29  O   UNL     1      -3.921   2.075  14.941  0.00  0.00    -0.126 OA
ENDBRANCH  25  27
ENDBRANCH  18  21
ENDBRANCH  15  17
ENDBRANCH   4  15
BRANCH   1  30
ATOM     30  S   UNL     1      -1.684   0.321   3.046  0.00  0.00    -0.081 S 
BRANCH  30  31
ATOM     31  C   UNL     1       0.025   0.045   2.504  0.00  0.00    +0.112 C 
BRANCH  31  38
ATOM     32  C   UNL     1      -0.018   1.503   0.010  0.00  0.00    +0.044 C 
ATOM     33  C   UNL     1       0.002  -0.004   0.002  0.00  0.00    -0.046 A 
ATOM     34  C   UNL     1       0.006  -0.689  -1.199  0.00  0.00    +0.003 A 
ATOM     35  C   UNL     1       0.025  -2.071  -1.207  0.00  0.00    +0.000 A 
ATOM     36  C   UNL     1       0.040  -2.768  -0.013  0.00  0.00    +0.000 A 
ATOM     37  C   UNL     1       0.037  -2.084   1.188  0.00  0.00    +0.005 A 
ATOM     38  C   UNL     1       0.023  -0.702   1.195  0.00  0.00    -0.034 A 
ENDBRANCH  31  38
ENDBRANCH  30  31
ENDBRANCH   1  30
TORSDOF 9
