REMARK  Name = ZINC09134418
REMARK  9 active torsions:
REMARK  status: ('A' for Active; 'I' for Inactive)
REMARK    1  A    between atoms: C_1  and  C_2
REMARK    2  A    between atoms: N_4  and  C_5
REMARK    3  A    between atoms: C_8  and  N_11
REMARK    4  A    between atoms: C_19  and  C_25
REMARK    5  A    between atoms: N_27  and  C_28
REMARK    6  A    between atoms: C_30  and  C_35
REMARK    7  A    between atoms: C_30  and  C_36
REMARK    8  A    between atoms: C_31  and  C_33
REMARK    9  A    between atoms: C_31  and  C_34
REMARK                            x       y       z     vdW  Elec       q    Type
REMARK                         _______ _______ _______ _____ _____    ______ ____
ROOT
ATOM      1  N   UNL     1      -2.468   3.806   0.018  0.00  0.00    -0.268 N 
ATOM      2  C   UNL     1      -3.796   3.147   0.011  0.00  0.00    +0.153 C 
ATOM      3  C   UNL     1      -4.733   4.221   0.474  0.00  0.00    +0.116 C 
ATOM      4  C   UNL     1      -6.177   4.289   0.125  0.00  0.00    +0.008 C 
ATOM      5  C   UNL     1      -6.655   5.239   0.938  0.00  0.00    +0.004 C 
ATOM      6  C   UNL     1      -5.492   5.720   1.813  0.00  0.00    +0.155 C 
ATOM      7  O   UNL     1      -4.701   4.480   1.904  0.00  0.00    -0.359 OA
ATOM      8  C   UNL     1      -4.555   6.570   0.895  0.00  0.00    +0.122 C 
ATOM      9  C   UNL     1      -4.052   5.515  -0.106  0.00  0.00    +0.127 C 
ATOM     10  C   UNL     1      -2.599   5.157   0.027  0.00  0.00    +0.227 C 
ATOM     11  O   UNL     1      -1.687   5.950   0.128  0.00  0.00    -0.275 OA
ENDROOT
BRANCH   1  15
ATOM     12  C   UNL     1       1.178   1.782  -0.006  0.00  0.00    +0.033 A 
ATOM     13  C   UNL     1      -0.013   1.068  -0.008  0.00  0.00    +0.025 A 
ATOM     14  C   UNL     1      -1.220   1.738  -0.005  0.00  0.00    +0.025 A 
ATOM     15  C   UNL     1      -1.243   3.126   0.010  0.00  0.00    +0.036 A 
ATOM     16  C   UNL     1      -0.052   3.841   0.012  0.00  0.00    +0.025 A 
ATOM     17  C   UNL     1       1.155   3.171   0.004  0.00  0.00    +0.025 A 
BRANCH  12  21
ATOM     18  C   UNL     1       3.874  -0.743   0.727  0.00  0.00    +0.109 C 
ATOM     19  C   UNL     1       2.530  -0.064   0.648  0.00  0.00    +0.214 C 
ATOM     20  O   UNL     1       1.564  -0.568   1.181  0.00  0.00    -0.276 OA
ATOM     21  N   UNL     1       2.403   1.103  -0.015  0.00  0.00    -0.286 N 
ATOM     22  H   UNL     1       3.159   1.472  -0.497  0.00  0.00    +0.155 HD
ENDBRANCH  12  21
ENDBRANCH   1  15
BRANCH   8  23
ATOM     23  C   UNL     1      -5.329   7.655   0.192  0.00  0.00    +0.220 C 
ATOM     24  O   UNL     1      -5.479   7.611  -1.010  0.00  0.00    -0.275 OA
ATOM     25  N   UNL     1      -5.853   8.675   0.900  0.00  0.00    -0.312 N 
ATOM     26  H   UNL     1      -5.733   8.711   1.862  0.00  0.00    +0.149 HD
BRANCH  25  27
ATOM     27  C   UNL     1      -6.607   9.733   0.215  0.00  0.00    +0.070 C 
ATOM     28  C   UNL     1      -5.634  10.796  -0.294  0.00  0.00    +0.009 C 
ATOM     29  C   UNL     1      -6.394  11.920  -0.994  0.00  0.00    -0.072 C 
ATOM     30  C   UNL     1      -8.350  11.510   0.526  0.00  0.00    -0.072 C 
ATOM     31  C   UNL     1      -7.568  10.389   1.206  0.00  0.00    +0.009 C 
ATOM     32  C   UNL     1      -9.432  10.905  -0.377  0.00  0.00    -0.010 C 
ATOM     33  C   UNL     1      -9.074  12.309   1.633  0.00  0.00    -0.010 C 
ATOM     34  C   UNL     1      -6.861  11.442  -2.374  0.00  0.00    -0.010 C 
ATOM     35  C   UNL     1      -5.400  13.081  -1.224  0.00  0.00    -0.010 C 
ATOM     36  N   UNL     1      -7.518  12.499  -0.209  0.00  0.00    +0.386 N 
ATOM     37  H   UNL     1      -8.129  13.009  -0.858  0.00  0.00    -0.084 HD
ATOM     38  H   UNL     1      -7.123  13.154   0.475  0.00  0.00    -0.084 HD
ENDBRANCH  25  27
ENDBRANCH   8  23
TORSDOF 4
