REMARK  Name = ZINC06264871
REMARK  10 active torsions:
REMARK  status: ('A' for Active; 'I' for Inactive)
REMARK    1  A    between atoms: C_1  and  C_2
REMARK    2  A    between atoms: C_2  and  C_3
REMARK    3  A    between atoms: C_3  and  N_4
REMARK    4  A    between atoms: C_5  and  C_7
REMARK    5  A    between atoms: C_7  and  N_59
REMARK    6  A    between atoms: C_10  and  O_28
REMARK    7  A    between atoms: C_17  and  C_19
REMARK    8  A    between atoms: C_22  and  O_27
REMARK    9  A    between atoms: C_23  and  O_25
REMARK   10  A    between atoms: O_25  and  C_26
REMARK                            x       y       z     vdW  Elec       q    Type
REMARK                         _______ _______ _______ _____ _____    ______ ____
ROOT
ATOM      1  C   UNL     1      -0.018   1.464   0.010  0.00  0.00    -0.075 C 
ATOM      2  C   UNL     1       1.417   1.997  -0.001  0.00  0.00    +0.016 C 
ATOM      3  C   UNL     1       2.160   1.466   1.227  0.00  0.00    +0.066 C 
ATOM      4  C   UNL     1       3.608   1.956   1.206  0.00  0.00    +0.035 C 
ATOM      5  C   UNL     1       4.306   1.444  -0.055  0.00  0.00    +0.003 C 
ATOM      6  C   UNL     1       4.285  -0.086  -0.061  0.00  0.00    +0.000 C 
ATOM      7  C   UNL     1       2.835  -0.574  -0.050  0.00  0.00    +0.005 C 
ATOM      8  C   UNL     1       2.131  -0.065   1.210  0.00  0.00    +0.011 C 
ATOM      9  C   UNL     1       0.673  -0.535   1.195  0.00  0.00    -0.031 C 
ATOM     10  N   UNL     1       0.017  -0.014  -0.023  0.00  0.00    +0.390 N 
ATOM     11  H   UNL     1       0.553  -0.316  -0.845  0.00  0.00    -0.080 HD
ENDROOT
BRANCH   9  12
ATOM     12  C   UNL     1       0.631  -2.041   1.168  0.00  0.00    -0.057 A 
ATOM     13  C   UNL     1       0.822  -2.715  -0.025  0.00  0.00    +0.006 A 
ATOM     14  C   UNL     1       0.789  -4.096  -0.055  0.00  0.00    +0.049 A 
ATOM     15  C   UNL     1       0.555  -4.809   1.110  0.00  0.00    +0.158 A 
ATOM     16  C   UNL     1       0.358  -4.131   2.309  0.00  0.00    +0.161 A 
ATOM     17  C   UNL     1       0.398  -2.746   2.333  0.00  0.00    +0.051 A 
BRANCH  16  18
ATOM     18  O   UNL     1       0.128  -4.826   3.455  0.00  0.00    -0.491 OA
ATOM     19  C   UNL     1      -0.065  -4.064   4.649  0.00  0.00    +0.277 C 
ENDBRANCH  16  18
BRANCH  15  20
ATOM     20  O   UNL     1       0.517  -6.168   1.082  0.00  0.00    -0.503 OA
ATOM     21  H   UNL     1      -0.362  -6.534   0.916  0.00  0.00    +0.292 HD
ENDBRANCH  15  20
ENDBRANCH   9  12
BRANCH   3  22
ATOM     22  O   UNL     1       1.519   1.940   2.413  0.00  0.00    -0.388 OA
ATOM     23  H   UNL     1       1.500   2.904   2.491  0.00  0.00    +0.210 HD
ENDBRANCH   3  22
BRANCH  10  24
ATOM     24  C   UNL     1      -1.357  -0.548  -0.124  0.00  0.00    +0.019 C 
BRANCH  24  26
ATOM     25  N   UNL     1      -3.433  -0.607   1.219  0.00  0.00    -0.317 N 
ATOM     26  C   UNL     1      -2.151  -0.207   1.111  0.00  0.00    +0.196 C 
ATOM     27  O   UNL     1      -1.635   0.427   2.007  0.00  0.00    -0.278 OA
ATOM     28  H   UNL     1      -3.845  -1.114   0.502  0.00  0.00    +0.149 HD
BRANCH  25  29
ATOM     29  C   UNL     1      -4.205  -0.275   2.420  0.00  0.00    +0.104 C 
BRANCH  29  31
ATOM     30  C   UNL     1      -6.426  -0.496   3.542  0.00  0.00    +0.005 C 
ATOM     31  C   UNL     1      -5.620  -0.842   2.289  0.00  0.00    +0.015 C 
ENDBRANCH  29  31
ENDBRANCH  25  29
ENDBRANCH  24  26
ENDBRANCH  10  24
TORSDOF 8
