REMARK  Name = ZINC36642772
REMARK  11 active torsions:
REMARK  status: ('A' for Active; 'I' for Inactive)
REMARK    1  A    between atoms: C_1  and  C_2
REMARK    2  A    between atoms: C_2  and  N_3
REMARK    3  A    between atoms: N_3  and  C_4
REMARK    4  A    between atoms: N_3  and  C_6
REMARK    5  A    between atoms: C_4  and  C_5
REMARK    6  A    between atoms: C_6  and  C_7
REMARK    7  A    between atoms: C_7  and  N_8
REMARK    8  A    between atoms: C_12  and  C_19
REMARK    9  A    between atoms: C_14  and  C_18
REMARK   10  A    between atoms: C_20  and  C_22
REMARK   11  A    between atoms: C_24  and  C_27
REMARK                            x       y       z     vdW  Elec       q    Type
REMARK                         _______ _______ _______ _____ _____    ______ ____
ROOT
ATOM      1  N   UNL     1      -0.414  -3.575   2.110  0.00  0.00    -0.247 N 
ATOM      2  C   UNL     1       0.732  -4.279   1.781  0.00  0.00    +0.168 A 
ATOM      3  N   UNL     1       0.993  -5.554   1.952  0.00  0.00    -0.224 NA
ATOM      4  C   UNL     1       2.165  -6.112   1.579  0.00  0.00    +0.083 A 
ATOM      5  C   UNL     1       2.570  -7.461   1.706  0.00  0.00    -0.024 A 
ATOM      6  C   UNL     1       3.805  -7.865   1.273  0.00  0.00    +0.009 A 
ATOM      7  C   UNL     1       4.699  -6.973   0.698  0.00  0.00    -0.049 A 
ATOM      8  C   UNL     1       4.337  -5.646   0.558  0.00  0.00    +0.020 A 
ATOM      9  C   UNL     1       3.101  -5.232   0.988  0.00  0.00    +0.041 A 
ATOM     10  S   UNL     1       2.229  -3.684   1.007  0.00  0.00    -0.052 S 
ATOM     11  C   UNL     1       6.052  -7.446   0.231  0.00  0.00    +0.044 C 
ATOM     12  C   UNL     1       1.632  -8.465   2.326  0.00  0.00    +0.046 C 
ATOM     13  C   UNL     1      -1.449  -4.209   2.695  0.00  0.00    +0.274 C 
ATOM     14  O   UNL     1      -1.344  -5.377   3.015  0.00  0.00    -0.268 OA
ENDROOT
BRANCH  13  15
ATOM     15  C   UNL     1      -2.717  -3.482   2.947  0.00  0.00    +0.169 A 
ATOM     16  C   UNL     1      -3.835  -3.983   3.649  0.00  0.00    +0.086 A 
ATOM     17  C   UNL     1      -4.788  -3.014   3.662  0.00  0.00    +0.168 A 
ATOM     18  O   UNL     1      -4.303  -1.946   3.001  0.00  0.00    -0.354 OA
ATOM     19  N   UNL     1      -2.994  -2.259   2.563  0.00  0.00    -0.073 NA
BRANCH  17  20
ATOM     20  C   UNL     1      -6.123  -3.115   4.290  0.00  0.00    +0.020 A 
ATOM     21  C   UNL     1      -6.499  -4.285   4.952  0.00  0.00    +0.011 A 
ATOM     22  C   UNL     1      -7.746  -4.373   5.536  0.00  0.00    +0.001 A 
ATOM     23  C   UNL     1      -8.622  -3.304   5.468  0.00  0.00    +0.000 A 
ATOM     24  C   UNL     1      -8.255  -2.142   4.813  0.00  0.00    +0.001 A 
ATOM     25  C   UNL     1      -7.010  -2.039   4.229  0.00  0.00    +0.011 A 
ENDBRANCH  17  20
ENDBRANCH  13  15
BRANCH   1  26
ATOM     26  C   UNL     1      -0.501  -2.141   1.823  0.00  0.00    +0.097 C 
BRANCH  26  27
ATOM     27  C   UNL     1      -1.160  -1.934   0.458  0.00  0.00    -0.059 C 
BRANCH  27  28
ATOM     28  N   UNL     1      -1.248  -0.496   0.170  0.00  0.00    +0.380 N 
ATOM     29  H   UNL     1      -1.729  -0.030   0.924  0.00  0.00    -0.082 HD
BRANCH  28  31
ATOM     30  C   UNL     1       0.020   1.579  -0.123  0.00  0.00    -0.017 C 
ATOM     31  C   UNL     1       0.106   0.059   0.035  0.00  0.00    -0.082 C 
ENDBRANCH  28  31
BRANCH  28  32
ATOM     32  C   UNL     1      -1.987  -0.292  -1.083  0.00  0.00    -0.082 C 
ATOM     33  C   UNL     1      -3.438  -0.739  -0.898  0.00  0.00    -0.017 C 
ENDBRANCH  28  32
ENDBRANCH  27  28
ENDBRANCH  26  27
ENDBRANCH   1  26
TORSDOF 7
