REMARK  Name = ZINC35457614
REMARK  12 active torsions:
REMARK  status: ('A' for Active; 'I' for Inactive)
REMARK    1  A    between atoms: C_4  and  C_7
REMARK    2  A    between atoms: C_7  and  O_9
REMARK    3  A    between atoms: O_9  and  C_10
REMARK    4  A    between atoms: C_10  and  C_11
REMARK    5  A    between atoms: C_11  and  O_39
REMARK    6  A    between atoms: C_12  and  O_30
REMARK    7  A    between atoms: C_16  and  O_21
REMARK    8  A    between atoms: C_18  and  O_20
REMARK    9  A    between atoms: O_21  and  C_22
REMARK   10  A    between atoms: C_22  and  C_24
REMARK   11  A    between atoms: O_30  and  C_31
REMARK   12  A    between atoms: C_31  and  C_33
REMARK                            x       y       z     vdW  Elec       q    Type
REMARK                         _______ _______ _______ _____ _____    ______ ____
ROOT
ATOM      1  C   UNL     1       4.824  -4.178  -0.067  0.00  0.00    +0.170 C 
ATOM      2  C   UNL     1       3.978  -4.603   1.135  0.00  0.00    +0.237 C 
ATOM      3  C   UNL     1       4.017  -6.095   1.293  0.00  0.00    +0.019 C 
ATOM      4  C   UNL     1       4.902  -6.860   0.740  0.00  0.00    +0.019 C 
ATOM      5  C   UNL     1       6.008  -6.363  -0.145  0.00  0.00    +0.231 C 
ATOM      6  C   UNL     1       6.196  -4.857   0.042  0.00  0.00    +0.198 C 
ENDROOT
BRANCH   6   7
ATOM      7  O   UNL     1       6.758  -4.600   1.330  0.00  0.00    -0.385 OA
ATOM      8  H   UNL     1       7.627  -5.001   1.467  0.00  0.00    +0.210 HD
ENDBRANCH   6   7
BRANCH   1   9
ATOM      9  O   UNL     1       4.183  -4.583  -1.278  0.00  0.00    -0.379 OA
ATOM     10  H   UNL     1       3.307  -4.195  -1.408  0.00  0.00    +0.211 HD
ENDBRANCH   1   9
BRANCH   1  11
ATOM     11  C   UNL     1       5.000  -2.659  -0.061  0.00  0.00    +0.274 C 
BRANCH  11  12
ATOM     12  O   UNL     1       3.717  -2.031  -0.045  0.00  0.00    -0.458 OA
BRANCH  12  13
ATOM     13  C   UNL     1       3.695  -0.684  -0.037  0.00  0.00    +0.339 C 
ATOM     14  O   UNL     1       4.737  -0.059  -0.044  0.00  0.00    -0.245 OA
BRANCH  13  18
ATOM     15  C   UNL     1      -0.017   1.379   0.010  0.00  0.00    +0.000 A 
ATOM     16  C   UNL     1       1.168   2.094   0.002  0.00  0.00    +0.001 A 
ATOM     17  C   UNL     1       2.377   1.430  -0.013  0.00  0.00    +0.015 A 
ATOM     18  C   UNL     1       2.404   0.034  -0.021  0.00  0.00    +0.059 A 
ATOM     19  C   UNL     1       1.204  -0.681  -0.013  0.00  0.00    +0.015 A 
ATOM     20  C   UNL     1       0.002  -0.004   0.002  0.00  0.00    +0.001 A 
ENDBRANCH  13  18
ENDBRANCH  12  13
ENDBRANCH  11  12
ENDBRANCH   1  11
BRANCH   5  21
ATOM     21  O   UNL     1       7.223  -7.036   0.192  0.00  0.00    -0.451 OA
BRANCH  21  22
ATOM     22  C   UNL     1       7.489  -8.182  -0.463  0.00  0.00    +0.340 C 
ATOM     23  O   UNL     1       6.711  -8.600  -1.297  0.00  0.00    -0.245 OA
BRANCH  22  24
ATOM     24  C   UNL     1       8.727  -8.932  -0.167  0.00  0.00    +0.059 A 
ATOM     25  C   UNL     1       9.621  -8.457   0.796  0.00  0.00    +0.015 A 
ATOM     26  C   UNL     1      10.775  -9.162   1.068  0.00  0.00    +0.001 A 
ATOM     27  C   UNL     1      11.048 -10.336   0.389  0.00  0.00    +0.000 A 
ATOM     28  C   UNL     1      10.167 -10.812  -0.566  0.00  0.00    +0.001 A 
ATOM     29  C   UNL     1       9.006 -10.121  -0.843  0.00  0.00    +0.015 A 
ENDBRANCH  22  24
ENDBRANCH  21  22
ENDBRANCH   5  21
BRANCH   2  30
ATOM     30  O   UNL     1       2.626  -4.186   0.933  0.00  0.00    -0.451 OA
BRANCH  30  31
ATOM     31  C   UNL     1       1.904  -3.898   2.033  0.00  0.00    +0.340 C 
ATOM     32  O   UNL     1       2.408  -3.998   3.134  0.00  0.00    -0.245 OA
BRANCH  31  33
ATOM     33  C   UNL     1       0.499  -3.460   1.901  0.00  0.00    +0.059 A 
ATOM     34  C   UNL     1      -0.085  -3.350   0.638  0.00  0.00    +0.015 A 
ATOM     35  C   UNL     1      -1.397  -2.940   0.522  0.00  0.00    +0.001 A 
ATOM     36  C   UNL     1      -2.134  -2.640   1.654  0.00  0.00    +0.000 A 
ATOM     37  C   UNL     1      -1.561  -2.747   2.909  0.00  0.00    +0.001 A 
ATOM     38  C   UNL     1      -0.252  -3.161   3.040  0.00  0.00    +0.015 A 
ENDBRANCH  31  33
ENDBRANCH  30  31
ENDBRANCH   2  30
TORSDOF 12
