REMARK  Name = ZINC40309474
REMARK  5 active torsions:
REMARK  status: ('A' for Active; 'I' for Inactive)
REMARK    1  A    between atoms: C_1  and  C_2
REMARK    2  A    between atoms: C_2  and  C_4
REMARK    3  A    between atoms: C_2  and  N_11
REMARK    4  A    between atoms: C_12  and  C_14
REMARK    5  A    between atoms: C_19  and  N_20
REMARK                            x       y       z     vdW  Elec       q    Type
REMARK                         _______ _______ _______ _____ _____    ______ ____
ROOT
ATOM      1  N   UNL     1      -0.895  -0.556  -0.070  0.00  0.00    -0.305 N 
ATOM      2  C   UNL     1      -1.672  -0.779  -1.149  0.00  0.00    +0.246 C 
ATOM      3  O   UNL     1      -1.268  -0.490  -2.259  0.00  0.00    -0.270 OA
ATOM      4  H   UNL     1      -1.217  -0.786   0.816  0.00  0.00    +0.150 HD
ENDROOT
BRANCH   2   5
ATOM      5  C   UNL     1      -3.011  -1.372  -0.983  0.00  0.00    +0.059 A 
ATOM      6  C   UNL     1      -3.531  -1.586   0.297  0.00  0.00    +0.035 A 
ATOM      7  C   UNL     1      -4.784  -2.141   0.445  0.00  0.00    +0.042 A 
ATOM      8  C   UNL     1      -5.533  -2.489  -0.670  0.00  0.00    +0.022 A 
ATOM      9  C   UNL     1      -5.032  -2.283  -1.939  0.00  0.00    +0.025 A 
ATOM     10  C   UNL     1      -3.774  -1.719  -2.108  0.00  0.00    +0.037 A 
ATOM     11 CL   UNL     1      -5.428  -2.407   2.035  0.00  0.00    -0.084 Cl
BRANCH  10  12
ATOM     12  N   UNL     1      -3.271  -1.506  -3.385  0.00  0.00    -0.357 N 
ATOM     13  H   UNL     1      -2.428  -1.040  -3.503  0.00  0.00    +0.142 HD
ATOM     14  H   UNL     1      -3.762  -1.822  -4.159  0.00  0.00    +0.142 HD
ENDBRANCH  10  12
ENDBRANCH   2   5
BRANCH   1  16
ATOM     15  C   UNL     1       0.331   1.558  -0.167  0.00  0.00    +0.033 C 
ATOM     16  C   UNL     1       0.436   0.033  -0.235  0.00  0.00    +0.101 C 
BRANCH  16  17
ATOM     17  C   UNL     1       1.343  -0.457   0.864  0.00  0.00    -0.014 A 
ATOM     18  C   UNL     1       0.809  -0.846   2.079  0.00  0.00    +0.006 A 
ATOM     19  C   UNL     1       1.640  -1.297   3.087  0.00  0.00    +0.000 A 
ATOM     20  C   UNL     1       3.006  -1.358   2.881  0.00  0.00    +0.001 A 
ATOM     21  C   UNL     1       3.541  -0.969   1.668  0.00  0.00    +0.015 A 
ATOM     22  C   UNL     1       2.708  -0.523   0.657  0.00  0.00    +0.023 A 
ATOM     23 BR   UNL     1       3.439   0.002  -1.006  0.00  0.00    -0.050 Br
ENDBRANCH  16  17
ENDBRANCH   1  16
TORSDOF 4
