REMARK  Name = ZINC16208495
REMARK  6 active torsions:
REMARK  status: ('A' for Active; 'I' for Inactive)
REMARK    1  A    between atoms: C_1  and  N_2
REMARK    2  A    between atoms: C_6  and  C_7
REMARK    3  A    between atoms: C_10  and  C_12
REMARK    4  A    between atoms: C_12  and  S_13
REMARK    5  A    between atoms: S_13  and  C_14
REMARK    6  A    between atoms: N_27  and  C_28
REMARK                            x       y       z     vdW  Elec       q    Type
REMARK                         _______ _______ _______ _____ _____    ______ ____
ROOT
ATOM      1  C   UNL     1      -0.176  -5.048   0.087  0.00  0.00    +0.178 A 
ATOM      2  N   UNL     1      -1.104  -4.135   0.342  0.00  0.00    -0.215 NA
ATOM      3  C   UNL     1      -0.732  -2.862   0.302  0.00  0.00    +0.117 A 
ATOM      4  C   UNL     1       0.582  -2.431   0.008  0.00  0.00    +0.076 A 
ATOM      5  C   UNL     1       0.800  -0.994   0.011  0.00  0.00    -0.023 A 
ATOM      6  C   UNL     1      -0.271  -0.218   0.293  0.00  0.00    -0.004 A 
ATOM      7  S   UNL     1      -1.609  -1.353   0.566  0.00  0.00    -0.073 S 
ATOM      8  C   UNL     1      -0.316   1.277   0.360  0.00  0.00    +0.043 C 
ATOM      9  C   UNL     1       1.125   1.805   0.423  0.00  0.00    +0.005 C 
ATOM     10  C   UNL     1       1.950   1.105  -0.662  0.00  0.00    +0.005 C 
ATOM     11  C   UNL     1       2.157  -0.363  -0.288  0.00  0.00    +0.037 C 
ATOM     12  C   UNL     1       1.559  -3.444  -0.261  0.00  0.00    +0.268 A 
ATOM     13  O   UNL     1       2.718  -3.172  -0.523  0.00  0.00    -0.267 OA
ATOM     14  N   UNL     1       1.116  -4.722  -0.205  0.00  0.00    -0.255 N 
ENDROOT
BRANCH  14  15
ATOM     15  C   UNL     1       2.025  -5.758  -0.459  0.00  0.00    +0.052 A 
ATOM     16  C   UNL     1       2.551  -5.925  -1.733  0.00  0.00    +0.026 A 
ATOM     17  C   UNL     1       3.451  -6.943  -1.980  0.00  0.00    +0.002 A 
ATOM     18  C   UNL     1       3.821  -7.802  -0.961  0.00  0.00    +0.000 A 
ATOM     19  C   UNL     1       3.295  -7.641   0.308  0.00  0.00    +0.002 A 
ATOM     20  C   UNL     1       2.399  -6.621   0.562  0.00  0.00    +0.026 A 
ENDBRANCH  14  15
BRANCH   1  21
ATOM     21  S   UNL     1      -0.630  -6.750   0.130  0.00  0.00    -0.078 S 
BRANCH  21  22
ATOM     22  C   UNL     1      -2.384  -6.596   0.549  0.00  0.00    +0.173 C 
BRANCH  22  26
ATOM     23  C   UNL     1      -4.857  -9.329   1.028  0.00  0.00    +0.267 C 
ATOM     24  O   UNL     1      -4.156 -10.319   0.930  0.00  0.00    -0.268 OA
ATOM     25  N   UNL     1      -4.307  -8.102   0.945  0.00  0.00    -0.250 N 
ATOM     26  C   UNL     1      -3.000  -7.969   0.642  0.00  0.00    +0.230 C 
ATOM     27  O   UNL     1      -2.320  -8.953   0.444  0.00  0.00    -0.274 OA
ATOM     28  H   UNL     1      -4.851  -7.314   1.103  0.00  0.00    +0.158 HD
BRANCH  23  34
ATOM     29  C   UNL     1      -6.384 -11.988   1.463  0.00  0.00    +0.149 C 
ATOM     30  N   UNL     1      -6.983 -10.652   1.429  0.00  0.00    -0.346 N 
ATOM     31  C   UNL     1      -8.294 -10.374   1.587  0.00  0.00    +0.086 A 
ATOM     32  C   UNL     1      -8.476  -9.035   1.490  0.00  0.00    +0.020 A 
ATOM     33  C   UNL     1      -7.226  -8.448   1.268  0.00  0.00    +0.032 A 
ATOM     34  C   UNL     1      -6.301  -9.472   1.236  0.00  0.00    +0.105 A 
ENDBRANCH  23  34
ENDBRANCH  22  26
ENDBRANCH  21  22
ENDBRANCH   1  21
TORSDOF 5
