REMARK  Name = ZINC59852315
REMARK  10 active torsions:
REMARK  status: ('A' for Active; 'I' for Inactive)
REMARK    1  A    between atoms: C_1  and  C_2
REMARK    2  A    between atoms: C_2  and  N_3
REMARK    3  A    between atoms: N_3  and  C_4
REMARK    4  A    between atoms: N_3  and  S_6
REMARK    5  A    between atoms: C_4  and  C_5
REMARK    6  A    between atoms: S_6  and  C_9
REMARK    7  A    between atoms: C_13  and  C_15
REMARK    8  A    between atoms: N_17  and  C_18
REMARK    9  A    between atoms: C_18  and  C_20
REMARK   10  A    between atoms: C_18  and  C_30
REMARK                            x       y       z     vdW  Elec       q    Type
REMARK                         _______ _______ _______ _____ _____    ______ ____
ROOT
ATOM      1  C   UNL     1       4.658   2.330   4.494  0.00  0.00    +0.245 C 
ATOM      2  O   UNL     1       4.352   1.558   5.381  0.00  0.00    -0.270 OA
ATOM      3  N   UNL     1       5.343   3.454   4.784  0.00  0.00    -0.304 N 
ATOM      4  H   UNL     1       5.588   4.070   4.076  0.00  0.00    +0.150 HD
ENDROOT
BRANCH   1   9
ATOM      5  C   UNL     1       3.218   0.606   1.484  0.00  0.00    +0.106 A 
ATOM      6  C   UNL     1       3.567   1.487   0.476  0.00  0.00    +0.028 A 
ATOM      7  C   UNL     1       4.270   2.642   0.771  0.00  0.00    +0.003 A 
ATOM      8  C   UNL     1       4.628   2.921   2.074  0.00  0.00    +0.013 A 
ATOM      9  C   UNL     1       4.278   2.037   3.095  0.00  0.00    +0.039 A 
ATOM     10  C   UNL     1       3.564   0.877   2.791  0.00  0.00    +0.041 A 
BRANCH   5  11
ATOM     11  S   UNL     1       2.322  -0.861   1.097  0.00  0.00    +0.061 S 
ATOM     12  O   UNL     1       2.586  -1.786   2.143  0.00  0.00    -0.153 OA
ATOM     13  O   UNL     1       2.594  -1.155  -0.266  0.00  0.00    -0.153 OA
BRANCH  11  14
ATOM     14  N   UNL     1       0.711  -0.489   1.189  0.00  0.00    -0.177 NA
BRANCH  14  16
ATOM     15  C   UNL     1      -0.019   1.526   0.010  0.00  0.00    +0.022 C 
ATOM     16  C   UNL     1       0.002  -0.004   0.002  0.00  0.00    +0.106 C 
ENDBRANCH  14  16
BRANCH  14  17
ATOM     17  C   UNL     1      -0.006  -0.646   2.457  0.00  0.00    +0.106 C 
ATOM     18  C   UNL     1      -0.694  -2.013   2.489  0.00  0.00    +0.022 C 
ENDBRANCH  14  17
ENDBRANCH  11  14
ENDBRANCH   5  11
ENDBRANCH   1   9
BRANCH   3  19
ATOM     19  C   UNL     1       5.720   3.744   6.170  0.00  0.00    +0.107 C 
BRANCH  19  20
ATOM     20  C   UNL     1       6.931   4.641   6.184  0.00  0.00    -0.023 A 
ATOM     21  C   UNL     1       7.036   5.674   5.271  0.00  0.00    +0.009 A 
ATOM     22  C   UNL     1       8.146   6.497   5.280  0.00  0.00    +0.050 A 
ATOM     23  C   UNL     1       9.158   6.289   6.206  0.00  0.00    +0.162 A 
ATOM     24  C   UNL     1       9.051   5.252   7.125  0.00  0.00    +0.162 A 
ATOM     25  C   UNL     1       7.933   4.432   7.113  0.00  0.00    +0.055 A 
ATOM     26  O   UNL     1      10.029   5.035   8.047  0.00  0.00    -0.485 OA
ATOM     27  C   UNL     1      11.300   5.644   7.793  0.00  0.00    +0.270 C 
ATOM     28  C   UNL     1      11.059   7.102   7.378  0.00  0.00    +0.270 C 
ATOM     29  O   UNL     1      10.246   7.106   6.200  0.00  0.00    -0.485 OA
ENDBRANCH  19  20
BRANCH  19  30
ATOM     30  C   UNL     1       4.558   4.445   6.878  0.00  0.00    +0.014 C 
ATOM     31  C   UNL     1       4.096   3.869   8.217  0.00  0.00    +0.006 C 
ATOM     32  C   UNL     1       3.229   3.693   6.969  0.00  0.00    +0.006 C 
ENDBRANCH  19  30
ENDBRANCH   3  19
TORSDOF 8
