REMARK  Name = ZINC64450341
REMARK  5 active torsions:
REMARK  status: ('A' for Active; 'I' for Inactive)
REMARK    1  A    between atoms: C_1  and  C_2
REMARK    2  A    between atoms: C_4  and  C_23
REMARK    3  A    between atoms: N_12  and  C_14
REMARK    4  A    between atoms: C_28  and  O_29
REMARK    5  A    between atoms: O_29  and  C_30
REMARK                            x       y       z     vdW  Elec       q    Type
REMARK                         _______ _______ _______ _____ _____    ______ ____
ROOT
ATOM      1  C   UNL     1      -0.427   1.358   0.091  0.00  0.00    +0.062 C 
ATOM      2  C   UNL     1      -0.246  -0.134  -0.013  0.00  0.00    +0.019 C 
ATOM      3  C   UNL     1      -1.221  -0.997   0.024  0.00  0.00    -0.008 C 
ATOM      4  C   UNL     1      -2.688  -0.825   0.336  0.00  0.00    +0.062 C 
ATOM      5  C   UNL     1      -2.958  -1.660   1.596  0.00  0.00    +0.108 C 
ATOM      6  C   UNL     1      -2.182  -2.938   1.594  0.00  0.00    +0.215 C 
ATOM      7  O   UNL     1      -2.590  -3.813   2.329  0.00  0.00    -0.276 OA
ATOM      8  N   UNL     1      -1.094  -3.228   0.880  0.00  0.00    -0.295 N 
ATOM      9  C   UNL     1      -0.615  -2.373  -0.199  0.00  0.00    +0.194 C 
ATOM     10  N   UNL     1       0.831  -2.128  -0.156  0.00  0.00    -0.164 NA
ATOM     11  N   UNL     1       0.978  -0.765  -0.167  0.00  0.00    -0.277 N 
ATOM     12  H   UNL     1      -0.603  -4.038   1.086  0.00  0.00    +0.151 HD
ATOM     13  H   UNL     1       1.826  -0.304  -0.267  0.00  0.00    +0.166 HD
ENDROOT
BRANCH  10  14
ATOM     14  C   UNL     1       1.429  -2.717   1.050  0.00  0.00    +0.270 C 
ATOM     15  N   UNL     1       0.926  -2.033   2.248  0.00  0.00    -0.350 N 
ATOM     16  C   UNL     1       1.950  -1.506   2.855  0.00  0.00    +0.061 A 
ATOM     17  C   UNL     1       2.082  -0.712   4.084  0.00  0.00    +0.027 A 
ATOM     18  C   UNL     1       3.302  -0.292   4.477  0.00  0.00    +0.002 A 
ATOM     19  C   UNL     1       4.472  -0.583   3.754  0.00  0.00    +0.002 A 
ATOM     20  C   UNL     1       4.463  -1.302   2.614  0.00  0.00    +0.027 A 
ATOM     21  C   UNL     1       3.189  -1.813   2.090  0.00  0.00    +0.061 A 
ATOM     22  N   UNL     1       2.883  -2.519   1.039  0.00  0.00    -0.350 N 
ATOM     23  H   UNL     1       0.001  -1.982   2.534  0.00  0.00    +0.163 HD
ATOM     24  H   UNL     1       3.503  -2.852   0.372  0.00  0.00    +0.163 HD
ENDBRANCH  10  14
BRANCH   4  25
ATOM     25  C   UNL     1      -2.995   0.627   0.598  0.00  0.00    +0.003 A 
ATOM     26  C   UNL     1      -3.696   1.365  -0.336  0.00  0.00    +0.023 A 
ATOM     27  C   UNL     1      -3.978   2.698  -0.095  0.00  0.00    +0.018 A 
ATOM     28  C   UNL     1      -3.559   3.294   1.080  0.00  0.00    +0.019 A 
ATOM     29  C   UNL     1      -2.858   2.560   2.017  0.00  0.00    +0.047 A 
ATOM     30  C   UNL     1      -2.578   1.222   1.780  0.00  0.00    +0.124 A 
ATOM     31 BR   UNL     1      -4.938   3.706  -1.376  0.00  0.00    -0.050 Br
BRANCH  30  32
ATOM     32  O   UNL     1      -1.893   0.496   2.702  0.00  0.00    -0.495 OA
ATOM     33  C   UNL     1      -1.496   1.174   3.896  0.00  0.00    +0.277 C 
ENDBRANCH  30  32
ENDBRANCH   4  25
TORSDOF 3
