REMARK  Name = ZINC00278719
REMARK  5 active torsions:
REMARK  status: ('A' for Active; 'I' for Inactive)
REMARK    1  A    between atoms: C_4  and  C_7
REMARK    2  A    between atoms: C_7  and  C_8
REMARK    3  A    between atoms: C_8  and  C_9
REMARK    4  A    between atoms: C_23  and  N_27
REMARK    5  A    between atoms: C_24  and  C_25
REMARK                            x       y       z     vdW  Elec       q    Type
REMARK                         _______ _______ _______ _____ _____    ______ ____
ROOT
ATOM      1  C   UNL     1       4.976   1.213  -0.034  0.00  0.00    +0.075 C 
ATOM      2  C   UNL     1       3.612   1.849  -0.007  0.00  0.00    +0.088 A 
ATOM      3  C   UNL     1       2.487   1.079  -0.001  0.00  0.00    +0.151 A 
ATOM      4  C   UNL     1       1.181   1.756   0.026  0.00  0.00    +0.060 A 
ATOM      5  C   UNL     1      -0.009   1.026   0.036  0.00  0.00    +0.015 A 
ATOM      6  C   UNL     1      -1.215   1.691   0.056  0.00  0.00    +0.001 A 
ATOM      7  C   UNL     1      -1.250   3.077   0.078  0.00  0.00    +0.004 A 
ATOM      8  C   UNL     1      -0.082   3.810   0.068  0.00  0.00    +0.047 A 
ATOM      9  C   UNL     1       1.145   3.159   0.043  0.00  0.00    +0.143 A 
ATOM     10  O   UNL     1       2.300   3.860   0.035  0.00  0.00    -0.422 OA
ATOM     11  C   UNL     1       3.495   3.250   0.012  0.00  0.00    +0.345 A 
ATOM     12  O   UNL     1       4.506   3.929   0.007  0.00  0.00    -0.245 OA
ATOM     13  O   UNL     1       2.553  -0.266  -0.020  0.00  0.00    -0.440 OA
ATOM     14  C   UNL     1       3.691  -0.888   0.336  0.00  0.00    +0.198 C 
ATOM     15  C   UNL     1       4.880  -0.238   0.350  0.00  0.00    +0.094 C 
ENDROOT
BRANCH  14  16
ATOM     16  N   UNL     1       3.648  -2.212   0.693  0.00  0.00    -0.328 N 
ATOM     17  H   UNL     1       4.462  -2.672   0.952  0.00  0.00    +0.145 HD
ATOM     18  H   UNL     1       2.803  -2.689   0.687  0.00  0.00    +0.145 HD
ENDBRANCH  14  16
BRANCH  15  19
ATOM     19  C   UNL     1       6.064  -0.943   0.738  0.00  0.00    +0.100 C 
ATOM     20  N   UNL     1       7.003  -1.503   1.046  0.00  0.00    -0.191 NA
ENDBRANCH  15  19
BRANCH   1  21
ATOM     21  C   UNL     1       5.893   1.939   0.951  0.00  0.00    +0.019 C 
BRANCH  21  22
ATOM     22  C   UNL     1       5.241   1.960   2.335  0.00  0.00    +0.036 C 
BRANCH  22  26
ATOM     23  C   UNL     1       7.638   4.276   5.006  0.00  0.00    +0.000 A 
ATOM     24  C   UNL     1       6.638   4.885   4.270  0.00  0.00    +0.000 A 
ATOM     25  C   UNL     1       5.862   4.135   3.406  0.00  0.00    +0.003 A 
ATOM     26  C   UNL     1       6.087   2.777   3.277  0.00  0.00    -0.047 A 
ATOM     27  C   UNL     1       7.083   2.168   4.017  0.00  0.00    +0.003 A 
ATOM     28  C   UNL     1       7.862   2.918   4.878  0.00  0.00    +0.000 A 
ENDBRANCH  22  26
ENDBRANCH  21  22
ENDBRANCH   1  21
TORSDOF 5
