REMARK  Name = ZINC06286419
REMARK  12 active torsions:
REMARK  status: ('A' for Active; 'I' for Inactive)
REMARK    1  A    between atoms: C_1  and  C_2
REMARK    2  A    between atoms: C_2  and  C_3
REMARK    3  A    between atoms: C_8  and  N_9
REMARK    4  A    between atoms: N_9  and  C_10
REMARK    5  A    between atoms: C_10  and  N_12
REMARK    6  A    between atoms: N_12  and  C_13
REMARK    7  A    between atoms: N_12  and  C_20
REMARK    8  A    between atoms: C_13  and  C_14
REMARK    9  A    between atoms: C_22  and  C_27
REMARK   10  A    between atoms: C_22  and  C_28
REMARK   11  A    between atoms: C_23  and  C_25
REMARK   12  A    between atoms: C_23  and  C_26
REMARK                            x       y       z     vdW  Elec       q    Type
REMARK                         _______ _______ _______ _____ _____    ______ ____
ROOT
ATOM      1  N   UNL     1       0.303   5.255  -1.141  0.00  0.00    -0.305 N 
ENDROOT
BRANCH   1   2
ATOM      2  C   UNL     1       0.060   3.820  -0.953  0.00  0.00    +0.073 C 
ATOM      3  C   UNL     1      -1.013   3.358  -1.939  0.00  0.00    +0.009 C 
ATOM      4  C   UNL     1      -1.272   1.862  -1.779  0.00  0.00    -0.072 C 
ATOM      5  C   UNL     1       1.119   1.549  -1.076  0.00  0.00    -0.072 C 
ATOM      6  C   UNL     1       1.348   3.049  -1.241  0.00  0.00    +0.009 C 
ATOM      7  C   UNL     1       1.050   1.202   0.416  0.00  0.00    -0.010 C 
ATOM      8  C   UNL     1       2.353   0.823  -1.658  0.00  0.00    -0.010 C 
ATOM      9  C   UNL     1      -2.138   1.409  -2.976  0.00  0.00    -0.010 C 
ATOM     10  C   UNL     1      -2.092   1.616  -0.507  0.00  0.00    -0.010 C 
ATOM     11  N   UNL     1      -0.053   1.008  -1.815  0.00  0.00    +0.386 N 
ATOM     12  H   UNL     1       0.219   0.884  -2.797  0.00  0.00    -0.084 HD
ATOM     13  H   UNL     1      -0.292   0.096  -1.409  0.00  0.00    -0.084 HD
ENDBRANCH   1   2
BRANCH   1  14
ATOM     14  C   UNL     1      -0.011   6.126  -0.162  0.00  0.00    +0.138 C 
ATOM     15  S   UNL     1       0.154   7.809  -0.427  0.00  0.00    -0.018 S 
BRANCH  14  16
ATOM     16  N   UNL     1      -0.455   5.671   1.027  0.00  0.00    -0.297 N 
ATOM     17  H   UNL     1      -1.384   5.796   1.277  0.00  0.00    +0.154 HD
BRANCH  16  23
ATOM     18  C   UNL     1      -0.054   4.458   3.076  0.00  0.00    -0.026 A 
ATOM     19  C   UNL     1       0.816   3.815   3.935  0.00  0.00    +0.005 A 
ATOM     20  C   UNL     1       2.160   3.731   3.624  0.00  0.00    +0.000 A 
ATOM     21  C   UNL     1       2.639   4.290   2.453  0.00  0.00    +0.002 A 
ATOM     22  C   UNL     1       1.774   4.929   1.588  0.00  0.00    +0.023 A 
ATOM     23  C   UNL     1       0.423   5.020   1.899  0.00  0.00    +0.036 A 
BRANCH  18  25
ATOM     24  C   UNL     1      -2.272   3.403   2.735  0.00  0.00    +0.009 C 
ATOM     25  C   UNL     1      -1.520   4.548   3.415  0.00  0.00    +0.033 C 
ENDBRANCH  18  25
ENDBRANCH  16  23
ENDBRANCH  14  16
ENDBRANCH   1  14
BRANCH   1  26
ATOM     26  C   UNL     1       0.888   5.742  -2.393  0.00  0.00    +0.143 C 
BRANCH  26  27
ATOM     27  C   UNL     1      -0.215   6.118  -3.349  0.00  0.00    -0.012 A 
ATOM     28  C   UNL     1      -0.798   7.375  -3.288  0.00  0.00    +0.008 A 
ATOM     29  C   UNL     1      -1.809   7.678  -4.188  0.00  0.00    +0.020 A 
ATOM     30  C   UNL     1      -2.199   6.723  -5.109  0.00  0.00    +0.111 A 
ATOM     31  N   UNL     1      -1.621   5.538  -5.138  0.00  0.00    -0.263 NA
ATOM     32  C   UNL     1      -0.653   5.218  -4.302  0.00  0.00    +0.115 A 
ENDBRANCH  26  27
ENDBRANCH   1  26
TORSDOF 7
