REMARK  Name = ZINC21878319
REMARK  9 active torsions:
REMARK  status: ('A' for Active; 'I' for Inactive)
REMARK    1  A    between atoms: C_1  and  C_2
REMARK    2  A    between atoms: C_2  and  C_4
REMARK    3  A    between atoms: C_2  and  S_15
REMARK    4  A    between atoms: N_6  and  C_7
REMARK    5  A    between atoms: C_11  and  S_13
REMARK    6  A    between atoms: S_13  and  C_14
REMARK    7  A    between atoms: S_15  and  C_16
REMARK    8  A    between atoms: C_19  and  C_22
REMARK    9  A    between atoms: N_20  and  N_21
REMARK                            x       y       z     vdW  Elec       q    Type
REMARK                         _______ _______ _______ _____ _____    ______ ____
ROOT
ATOM      1  C   UNL     1      -0.734  -0.440   9.257  0.00  0.00    +0.029 C 
ATOM      2  C   UNL     1       0.348   0.593   8.935  0.00  0.00    +0.137 C 
ENDROOT
BRANCH   2   3
ATOM      3  C   UNL     1       0.808   0.411   7.511  0.00  0.00    +0.230 C 
ATOM      4  O   UNL     1       1.788  -0.263   7.272  0.00  0.00    -0.274 OA
ATOM      5  N   UNL     1       0.131   0.997   6.505  0.00  0.00    -0.285 N 
ATOM      6  H   UNL     1      -0.711   1.669   6.726  0.00  0.00    +0.155 HD
BRANCH   5   7
ATOM      7  C   UNL     1       0.499   0.751   5.177  0.00  0.00    +0.034 A 
ATOM      8  C   UNL     1       1.837   0.572   4.848  0.00  0.00    +0.023 A 
ATOM      9  C   UNL     1       2.202   0.330   3.538  0.00  0.00    +0.003 A 
ATOM     10  C   UNL     1       1.238   0.265   2.550  0.00  0.00    +0.015 A 
ATOM     11  C   UNL     1      -0.102   0.443   2.872  0.00  0.00    +0.009 A 
ATOM     12  C   UNL     1      -0.471   0.692   4.188  0.00  0.00    +0.038 A 
BRANCH  11  13
ATOM     13  S   UNL     1      -1.331   0.360   1.612  0.00  0.00    -0.129 S 
ATOM     14  C   UNL     1      -0.386   0.031   0.099  0.00  0.00    +0.090 C 
ENDBRANCH  11  13
ENDBRANCH   5   7
ENDBRANCH   2   3
BRANCH   2  15
ATOM     15  S   UNL     1       1.752   0.366  10.056  0.00  0.00    -0.072 S 
BRANCH  15  16
ATOM     16  C   UNL     1       0.986   0.772  11.590  0.00  0.00    +0.209 A 
ATOM     17  N   UNL     1      -0.265   1.129  11.766  0.00  0.00    -0.121 NA
ATOM     18  N   UNL     1      -0.491   1.354  13.011  0.00  0.00    -0.126 NA
ATOM     19  C   UNL     1       0.605   1.154  13.709  0.00  0.00    +0.188 A 
ATOM     20  N   UNL     1       1.584   0.769  12.820  0.00  0.00    -0.223 N 
BRANCH  19  21
ATOM     21  C   UNL     1       0.755   1.306  15.165  0.00  0.00    +0.058 A 
ATOM     22  C   UNL     1      -0.216   1.411  16.128  0.00  0.00    +0.019 A 
ATOM     23  C   UNL     1       0.169   1.542  17.444  0.00  0.00    +0.008 A 
ATOM     24  C   UNL     1       1.492   1.577  17.746  0.00  0.00    +0.046 A 
ATOM     25  S   UNL     1       2.249   1.411  16.137  0.00  0.00    -0.093 S 
ENDBRANCH  19  21
BRANCH  20  26
ATOM     26  N   UNL     1       2.882   0.454  13.107  0.00  0.00    -0.295 N 
ATOM     27  H   UNL     1       3.240   0.491  14.146  0.00  0.00    +0.163 HD
ATOM     28  H   UNL     1       3.568   0.162  12.298  0.00  0.00    +0.163 HD
ENDBRANCH  20  26
ENDBRANCH  15  16
ENDBRANCH   2  15
TORSDOF 7
