REMARK  Name = ZINC64438361
REMARK  2 active torsions:
REMARK  status: ('A' for Active; 'I' for Inactive)
REMARK    1  A    between atoms: C_10  and  C_15
REMARK    2  A    between atoms: C_18  and  C_21
REMARK                            x       y       z     vdW  Elec       q    Type
REMARK                         _______ _______ _______ _____ _____    ______ ____
ROOT
ATOM      1  C   UNL     1      -0.017   1.381   0.010  0.00  0.00    +0.001 A 
ATOM      2  C   UNL     1       1.171   2.091   0.002  0.00  0.00    +0.002 A 
ATOM      3  C   UNL     1       2.380   1.429  -0.009  0.00  0.00    +0.028 A 
ATOM      4  C   UNL     1       2.411   0.032  -0.015  0.00  0.00    +0.072 A 
ATOM      5  C   UNL     1       1.202  -0.674  -0.014  0.00  0.00    +0.018 A 
ATOM      6  C   UNL     1       0.002  -0.004   0.002  0.00  0.00    +0.009 A 
ATOM      7  C   UNL     1       1.260  -2.180  -0.042  0.00  0.00    +0.216 C 
ATOM      8  N   UNL     1       0.251  -2.752  -0.940  0.00  0.00    -0.306 N 
ATOM      9  C   UNL     1       0.939  -3.535  -1.852  0.00  0.00    +0.146 C 
ATOM     10  N   UNL     1       2.217  -3.411  -1.729  0.00  0.00    -0.164 NA
ATOM     11  N   UNL     1       2.541  -2.503  -0.718  0.00  0.00    -0.187 N 
ATOM     12  C   UNL     1       3.706  -1.880  -0.385  0.00  0.00    +0.209 C 
ATOM     13  N   UNL     1       3.616  -0.622  -0.017  0.00  0.00    -0.238 NA
ATOM     14  H   UNL     1      -0.708  -2.611  -0.902  0.00  0.00    +0.149 HD
ENDROOT
BRANCH   9  15
ATOM     15  C   UNL     1       0.273  -4.425  -2.869  0.00  0.00    +0.217 C 
ATOM     16  C   UNL     1       0.109  -5.833  -2.325  0.00  0.00    +0.039 C 
ATOM     17  C   UNL     1      -1.224  -6.022  -2.317  0.00  0.00    +0.091 C 
ATOM     18  N   UNL     1      -1.863  -4.918  -2.783  0.00  0.00    -0.153 NA
ATOM     19  N   UNL     1      -1.113  -3.991  -3.111  0.00  0.00    -0.172 NA
BRANCH  17  20
ATOM     20  C   UNL     1      -1.900  -7.263  -1.862  0.00  0.00    +0.002 A 
ATOM     21  C   UNL     1      -1.147  -8.338  -1.395  0.00  0.00    +0.011 A 
ATOM     22  C   UNL     1      -1.780  -9.490  -0.974  0.00  0.00    +0.016 A 
ATOM     23  C   UNL     1      -3.161  -9.577  -1.014  0.00  0.00    +0.018 A 
ATOM     24  C   UNL     1      -3.914  -8.512  -1.477  0.00  0.00    +0.016 A 
ATOM     25  C   UNL     1      -3.290  -7.354  -1.896  0.00  0.00    +0.011 A 
ATOM     26 BR   UNL     1      -4.022 -11.158  -0.435  0.00  0.00    -0.050 Br
ENDBRANCH  17  20
ENDBRANCH   9  15
TORSDOF 2
