REMARK  Name = ZINC09721354
REMARK  10 active torsions:
REMARK  status: ('A' for Active; 'I' for Inactive)
REMARK    1  A    between atoms: C_1  and  C_2
REMARK    2  A    between atoms: C_2  and  C_3
REMARK    3  A    between atoms: C_2  and  N_4
REMARK    4  A    between atoms: N_4  and  C_5
REMARK    5  A    between atoms: C_8  and  N_11
REMARK    6  A    between atoms: N_11  and  C_12
REMARK    7  A    between atoms: C_18  and  C_20
REMARK    8  A    between atoms: C_20  and  N_21
REMARK    9  A    between atoms: C_24  and  C_28
REMARK   10  A    between atoms: C_24  and  C_29
REMARK                            x       y       z     vdW  Elec       q    Type
REMARK                         _______ _______ _______ _____ _____    ______ ____
ROOT
ATOM      1  N   UNL     1      -4.828  -2.371   0.138  0.00  0.00    -0.268 N 
ATOM      2  C   UNL     1      -4.767  -3.700   0.353  0.00  0.00    +0.238 C 
ATOM      3  O   UNL     1      -3.693  -4.240   0.517  0.00  0.00    -0.273 OA
ENDROOT
BRANCH   1   4
ATOM      4  C   UNL     1      -3.648  -1.634  -0.028  0.00  0.00    +0.037 A 
ATOM      5  C   UNL     1      -2.429  -2.290  -0.142  0.00  0.00    +0.025 A 
ATOM      6  C   UNL     1      -1.267  -1.563  -0.306  0.00  0.00    +0.025 A 
ATOM      7  C   UNL     1      -1.316  -0.176  -0.355  0.00  0.00    +0.031 A 
ATOM      8  C   UNL     1      -2.535   0.480  -0.236  0.00  0.00    +0.025 A 
ATOM      9  C   UNL     1      -3.697  -0.247  -0.078  0.00  0.00    +0.025 A 
BRANCH   7  10
ATOM     10  N   UNL     1      -0.138   0.561  -0.521  0.00  0.00    -0.314 N 
ATOM     11  H   UNL     1       0.683   0.262  -0.100  0.00  0.00    +0.152 HD
BRANCH  10  12
ATOM     12  C   UNL     1      -0.145   1.726  -1.291  0.00  0.00    +0.031 A 
ATOM     13  C   UNL     1      -1.028   1.851  -2.356  0.00  0.00    +0.023 A 
ATOM     14  C   UNL     1      -1.036   3.007  -3.112  0.00  0.00    +0.002 A 
ATOM     15  C   UNL     1      -0.160   4.035  -2.816  0.00  0.00    +0.000 A 
ATOM     16  C   UNL     1       0.724   3.912  -1.759  0.00  0.00    +0.002 A 
ATOM     17  C   UNL     1       0.734   2.761  -0.996  0.00  0.00    +0.023 A 
ENDBRANCH  10  12
ENDBRANCH   7  10
ENDBRANCH   1   4
BRANCH   1  19
ATOM     18  C   UNL     1      -6.267  -0.751   1.270  0.00  0.00    +0.028 C 
ATOM     19  C   UNL     1      -6.127  -1.698   0.076  0.00  0.00    +0.075 C 
ATOM     20  C   UNL     1      -6.227  -0.898  -1.224  0.00  0.00    +0.028 C 
ENDBRANCH   1  19
BRANCH   2  21
ATOM     21  C   UNL     1      -6.033  -4.517   0.389  0.00  0.00    +0.214 C 
BRANCH  21  22
ATOM     22  N   UNL     1      -5.707  -5.910   0.702  0.00  0.00    -0.215 N 
ATOM     23  C   UNL     1      -5.434  -6.850  -0.224  0.00  0.00    +0.254 C 
ATOM     24  O   UNL     1      -5.413  -6.708  -1.428  0.00  0.00    -0.272 OA
ATOM     25  C   UNL     1      -5.157  -8.123   0.552  0.00  0.00    +0.168 C 
ATOM     26  N   UNL     1      -5.330  -7.715   1.957  0.00  0.00    -0.279 N 
ATOM     27  C   UNL     1      -5.649  -6.408   1.942  0.00  0.00    +0.310 C 
ATOM     28  O   UNL     1      -5.862  -5.753   2.944  0.00  0.00    -0.252 OA
ATOM     29  C   UNL     1      -6.167  -9.210   0.179  0.00  0.00    +0.050 C 
ATOM     30  H   UNL     1      -5.233  -8.279   2.740  0.00  0.00    +0.152 HD
BRANCH  25  31
ATOM     31  C   UNL     1      -3.750  -8.602   0.308  0.00  0.00    +0.138 A 
ATOM     32  C   UNL     1      -2.978  -9.210   1.219  0.00  0.00    +0.056 A 
ATOM     33  C   UNL     1      -1.704  -9.498   0.549  0.00  0.00    +0.020 A 
ATOM     34  C   UNL     1      -0.512 -10.106   0.941  0.00  0.00    +0.011 A 
ATOM     35  C   UNL     1       0.518 -10.216   0.048  0.00  0.00    +0.001 A 
ATOM     36  C   UNL     1       0.384  -9.727  -1.244  0.00  0.00    +0.004 A 
ATOM     37  C   UNL     1      -0.788  -9.123  -1.649  0.00  0.00    +0.047 A 
ATOM     38  C   UNL     1      -1.846  -9.001  -0.757  0.00  0.00    +0.135 A 
ATOM     39  O   UNL     1      -3.084  -8.476  -0.853  0.00  0.00    -0.457 OA
ENDBRANCH  25  31
ENDBRANCH  21  22
ENDBRANCH   2  21
TORSDOF 7
