REMARK  Name = ZINC32869303
REMARK  9 active torsions:
REMARK  status: ('A' for Active; 'I' for Inactive)
REMARK    1  A    between atoms: C_1  and  C_2
REMARK    2  A    between atoms: C_2  and  C_28
REMARK    3  A    between atoms: N_9  and  C_27
REMARK    4  A    between atoms: C_11  and  C_12
REMARK    5  A    between atoms: C_12  and  C_14
REMARK    6  A    between atoms: C_14  and  S_15
REMARK    7  A    between atoms: S_15  and  C_16
REMARK    8  A    between atoms: N_20  and  C_21
REMARK    9  A    between atoms: C_21  and  C_22
REMARK                            x       y       z     vdW  Elec       q    Type
REMARK                         _______ _______ _______ _____ _____    ______ ____
ROOT
ATOM      1  C   UNL     1       2.039   5.636  -2.072  0.00  0.00    +0.168 C 
ATOM      2  O   UNL     1       1.175   5.857  -1.246  0.00  0.00    -0.292 OA
ENDROOT
BRANCH   1  13
ATOM      3  C   UNL     1       4.113   3.060   0.544  0.00  0.00    +0.022 C 
ATOM      4  C   UNL     1       3.265   2.396  -0.542  0.00  0.00    +0.030 C 
ATOM      5  C   UNL     1       2.267   1.442   0.074  0.00  0.00    -0.015 A 
ATOM      6  C   UNL     1       2.413   0.305   0.838  0.00  0.00    +0.006 A 
ATOM      7  C   UNL     1       1.294  -0.382   1.273  0.00  0.00    +0.000 A 
ATOM      8  C   UNL     1       0.032   0.076   0.941  0.00  0.00    +0.002 A 
ATOM      9  C   UNL     1      -0.117   1.214   0.177  0.00  0.00    +0.024 A 
ATOM     10  C   UNL     1       1.005   1.912  -0.266  0.00  0.00    +0.038 A 
ATOM     11  N   UNL     1       1.110   3.069  -1.037  0.00  0.00    -0.305 N 
ATOM     12  C   UNL     1       2.406   3.424  -1.248  0.00  0.00    +0.024 C 
ATOM     13  C   UNL     1       2.845   4.495  -1.954  0.00  0.00    +0.067 C 
ATOM     14  C   UNL     1      -0.039   3.813  -1.559  0.00  0.00    +0.135 C 
ATOM     15  C   UNL     1       4.156   1.662  -1.547  0.00  0.00    +0.022 C 
ENDBRANCH   1  13
BRANCH   1  16
ATOM     16  C   UNL     1       2.244   6.588  -3.222  0.00  0.00    +0.156 C 
BRANCH  16  17
ATOM     17  S   UNL     1       1.059   7.950  -3.095  0.00  0.00    -0.078 S 
BRANCH  17  18
ATOM     18  C   UNL     1       1.511   8.882  -4.521  0.00  0.00    +0.192 A 
ATOM     19  N   UNL     1       2.464   8.589  -5.375  0.00  0.00    -0.123 NA
ATOM     20  N   UNL     1       2.516   9.484  -6.296  0.00  0.00    -0.137 NA
ATOM     21  C   UNL     1       1.612  10.398  -6.082  0.00  0.00    +0.226 A 
ATOM     22  N   UNL     1       0.940  10.047  -4.944  0.00  0.00    -0.301 N 
BRANCH  22  23
ATOM     23  C   UNL     1      -0.165  10.772  -4.310  0.00  0.00    +0.199 C 
BRANCH  23  24
ATOM     24  C   UNL     1       0.379  11.670  -3.229  0.00  0.00    +0.125 A 
ATOM     25  C   UNL     1       0.775  12.945  -3.391  0.00  0.00    +0.046 A 
ATOM     26  C   UNL     1       1.210  13.403  -2.126  0.00  0.00    +0.041 A 
ATOM     27  C   UNL     1       1.054  12.380  -1.266  0.00  0.00    +0.195 A 
ATOM     28  O   UNL     1       0.545  11.335  -1.939  0.00  0.00    -0.466 OA
ENDBRANCH  23  24
ENDBRANCH  22  23
ENDBRANCH  17  18
ENDBRANCH  16  17
ENDBRANCH   1  16
TORSDOF 6
