REMARK  Name = ZINC02150079
REMARK  10 active torsions:
REMARK  status: ('A' for Active; 'I' for Inactive)
REMARK    1  A    between atoms: C_1  and  C_2
REMARK    2  A    between atoms: C_5  and  S_8
REMARK    3  A    between atoms: S_8  and  N_11
REMARK    4  A    between atoms: N_11  and  C_12
REMARK    5  A    between atoms: C_12  and  C_14
REMARK    6  A    between atoms: C_12  and  C_20
REMARK    7  A    between atoms: C_20  and  O_22
REMARK    8  A    between atoms: O_22  and  C_23
REMARK    9  A    between atoms: C_27  and  C_35
REMARK   10  A    between atoms: C_33  and  C_34
REMARK                            x       y       z     vdW  Elec       q    Type
REMARK                         _______ _______ _______ _____ _____    ______ ____
ROOT
ATOM      1  C   UNL     1       2.517  -4.126  -0.269  0.00  0.00    +0.215 C 
ENDROOT
BRANCH   1   2
ATOM      2  C   UNL     1       1.910  -4.772   0.950  0.00  0.00    -0.018 A 
ATOM      3  C   UNL     1       2.643  -4.870   2.118  0.00  0.00    +0.006 A 
ATOM      4  C   UNL     1       2.084  -5.458   3.237  0.00  0.00    +0.000 A 
ATOM      5  C   UNL     1       0.796  -5.958   3.185  0.00  0.00    +0.000 A 
ATOM      6  C   UNL     1       0.066  -5.865   2.015  0.00  0.00    +0.000 A 
ATOM      7  C   UNL     1       0.623  -5.273   0.898  0.00  0.00    +0.006 A 
ENDBRANCH   1   2
BRANCH   1   8
ATOM      8  N   UNL     1       3.923  -4.524  -0.383  0.00  0.00    -0.172 NA
ATOM      9  H   UNL     1       4.606  -4.036   0.102  0.00  0.00    +0.149 HD
BRANCH   8  10
ATOM     10  S   UNL     1       4.344  -5.808  -1.341  0.00  0.00    +0.059 S 
ATOM     11  O   UNL     1       5.758  -5.924  -1.266  0.00  0.00    -0.153 OA
ATOM     12  O   UNL     1       3.473  -6.876  -0.996  0.00  0.00    -0.153 OA
BRANCH  10  17
ATOM     13  C   UNL     1       3.040  -4.292  -7.034  0.00  0.00    +0.044 C 
ATOM     14  C   UNL     1       3.366  -4.671  -5.612  0.00  0.00    -0.050 A 
ATOM     15  C   UNL     1       4.614  -4.386  -5.089  0.00  0.00    +0.005 A 
ATOM     16  C   UNL     1       4.912  -4.734  -3.785  0.00  0.00    +0.029 A 
ATOM     17  C   UNL     1       3.963  -5.365  -3.003  0.00  0.00    +0.105 A 
ATOM     18  C   UNL     1       2.717  -5.654  -3.527  0.00  0.00    +0.029 A 
ATOM     19  C   UNL     1       2.417  -5.302  -4.830  0.00  0.00    +0.005 A 
ENDBRANCH  10  17
ENDBRANCH   8  10
ENDBRANCH   1   8
BRANCH   1  20
ATOM     20  C   UNL     1       2.429  -2.627  -0.140  0.00  0.00    +0.336 C 
ATOM     21  O   UNL     1       3.436  -1.960  -0.143  0.00  0.00    -0.248 OA
BRANCH  20  22
ATOM     22  O   UNL     1       1.230  -2.034  -0.021  0.00  0.00    -0.424 OA
BRANCH  22  23
ATOM     23  C   UNL     1       1.212  -0.676  -0.025  0.00  0.00    +0.138 A 
ATOM     24  C   UNL     1       1.155   0.018   1.182  0.00  0.00    +0.047 A 
ATOM     25  C   UNL     1       1.136   1.383   1.194  0.00  0.00    +0.015 A 
ATOM     26  C   UNL     1       1.174   2.090  -0.013  0.00  0.00    +0.021 A 
ATOM     27  C   UNL     1       1.155   3.555  -0.030  0.00  0.00    -0.033 A 
ATOM     28  C   UNL     1       1.195   4.183  -1.233  0.00  0.00    +0.096 A 
ATOM     29  C   UNL     1       1.253   3.422  -2.420  0.00  0.00    +0.337 A 
ATOM     30  O   UNL     1       1.288   3.998  -3.492  0.00  0.00    -0.245 OA
ATOM     31  O   UNL     1       1.276   2.081  -2.397  0.00  0.00    -0.422 OA
ATOM     32  C   UNL     1       1.233   1.395  -1.234  0.00  0.00    +0.146 A 
ATOM     33  C   UNL     1       1.251   0.008  -1.229  0.00  0.00    +0.035 A 
ATOM     34  C   UNL     1       1.314  -0.753  -2.528  0.00  0.00    +0.051 C 
ATOM     35  C   UNL     1       1.093   4.343   1.253  0.00  0.00    +0.045 C 
ENDBRANCH  22  23
ENDBRANCH  20  22
ENDBRANCH   1  20
TORSDOF 7
