REMARK  Name = ZINC40160506
REMARK  4 active torsions:
REMARK  status: ('A' for Active; 'I' for Inactive)
REMARK    1  A    between atoms: C_1  and  C_2
REMARK    2  A    between atoms: C_5  and  C_7
REMARK    3  A    between atoms: C_13  and  C_15
REMARK    4  A    between atoms: C_19  and  C_25
REMARK                            x       y       z     vdW  Elec       q    Type
REMARK                         _______ _______ _______ _____ _____    ______ ____
ROOT
ATOM      1  C   UNL     1       1.667  -3.226  -0.023  0.00  0.00    +0.115 A 
ATOM      2  C   UNL     1       3.023  -3.031  -0.023  0.00  0.00    +0.080 A 
ATOM      3  S   UNL     1       3.603  -4.722  -0.037  0.00  0.00    -0.060 S 
ATOM      4  C   UNL     1       1.999  -5.511  -0.041  0.00  0.00    +0.165 A 
ATOM      5  N   UNL     1       1.190  -4.468  -0.026  0.00  0.00    -0.221 NA
ATOM      6  N   UNL     1       1.687  -6.864  -0.052  0.00  0.00    -0.263 N 
ATOM      7  C   UNL     1       2.673  -7.784  -0.060  0.00  0.00    +0.240 C 
ATOM      8  O   UNL     1       3.833  -7.429  -0.058  0.00  0.00    -0.273 OA
ATOM      9  H   UNL     1       0.759  -7.148  -0.053  0.00  0.00    +0.157 HD
ENDROOT
BRANCH   7  10
ATOM     10  C   UNL     1       2.334  -9.252  -0.071  0.00  0.00    +0.173 C 
ATOM     11  C   UNL     1       1.468  -9.543  -1.319  0.00  0.00    +0.103 C 
ATOM     12  S   UNL     1       2.702 -10.423  -2.379  0.00  0.00    -0.133 S 
ATOM     13  C   UNL     1       3.679 -11.122  -0.984  0.00  0.00    +0.082 C 
ATOM     14  N   UNL     1       3.584 -10.016   0.001  0.00  0.00    -0.275 N 
ATOM     15  C   UNL     1       4.750  -9.991   0.701  0.00  0.00    +0.217 C 
ATOM     16  O   UNL     1       4.915  -9.401   1.748  0.00  0.00    -0.276 OA
ATOM     17  C   UNL     1       5.811 -10.801  -0.008  0.00  0.00    +0.099 C 
ATOM     18  C   UNL     1       5.170 -11.176  -1.355  0.00  0.00    +0.046 C 
ATOM     19  C   UNL     1       3.137 -12.461  -0.480  0.00  0.00    +0.044 C 
ENDBRANCH   7  10
BRANCH   1  24
ATOM     20  C   UNL     1      -0.018   1.503   0.010  0.00  0.00    +0.086 C 
ATOM     21  C   UNL     1       0.002  -0.004   0.002  0.00  0.00    +0.103 A 
ATOM     22  C   UNL     1      -1.081  -0.804   0.003  0.00  0.00    +0.045 A 
ATOM     23  C   UNL     1      -0.613  -2.134  -0.007  0.00  0.00    +0.052 A 
ATOM     24  C   UNL     1       0.746  -2.071  -0.013  0.00  0.00    +0.154 A 
ATOM     25  O   UNL     1       1.105  -0.773  -0.013  0.00  0.00    -0.458 OA
ENDBRANCH   1  24
TORSDOF 2
