REMARK  Name = ZINC25182369
REMARK  10 active torsions:
REMARK  status: ('A' for Active; 'I' for Inactive)
REMARK    1  A    between atoms: C_1  and  C_2
REMARK    2  A    between atoms: C_2  and  O_3
REMARK    3  A    between atoms: O_3  and  C_4
REMARK    4  A    between atoms: C_4  and  C_6
REMARK    5  A    between atoms: C_9  and  N_12
REMARK    6  A    between atoms: C_16  and  N_20
REMARK    7  A    between atoms: N_20  and  C_21
REMARK    8  A    between atoms: C_21  and  C_22
REMARK    9  A    between atoms: C_22  and  C_23
REMARK   10  A    between atoms: C_30  and  C_33
REMARK                            x       y       z     vdW  Elec       q    Type
REMARK                         _______ _______ _______ _____ _____    ______ ____
ROOT
ATOM      1  N   UNL     1       2.401   1.102  -0.015  0.00  0.00    -0.212 N 
ATOM      2  C   UNL     1       2.484  -0.232   0.076  0.00  0.00    +0.225 C 
ATOM      3  O   UNL     1       1.542  -0.988   0.178  0.00  0.00    -0.275 OA
ATOM      4  C   UNL     1       3.939  -0.644   0.029  0.00  0.00    +0.090 C 
ATOM      5  C   UNL     1       4.691   0.696  -0.105  0.00  0.00    +0.026 C 
ATOM      6  C   UNL     1       3.581   1.724  -0.126  0.00  0.00    +0.213 C 
ATOM      7  O   UNL     1       3.736   2.922  -0.225  0.00  0.00    -0.277 OA
ENDROOT
BRANCH   1  11
ATOM      8  C   UNL     1      -1.232   3.145   0.029  0.00  0.00    +0.059 A 
ATOM      9  C   UNL     1      -0.339   3.281   1.096  0.00  0.00    +0.017 A 
ATOM     10  C   UNL     1       0.863   2.609   1.075  0.00  0.00    +0.025 A 
ATOM     11  C   UNL     1       1.183   1.787   0.000  0.00  0.00    +0.044 A 
ATOM     12  C   UNL     1       0.294   1.644  -1.060  0.00  0.00    +0.025 A 
ATOM     13  C   UNL     1      -0.907   2.318  -1.049  0.00  0.00    +0.017 A 
BRANCH   8  14
ATOM     14  C   UNL     1      -2.518   3.869   0.045  0.00  0.00    +0.339 C 
ATOM     15  O   UNL     1      -3.295   3.745  -0.881  0.00  0.00    -0.245 OA
BRANCH  14  16
ATOM     16  O   UNL     1      -2.830   4.666   1.085  0.00  0.00    -0.461 OA
BRANCH  16  18
ATOM     17  C   UNL     1      -4.287   6.199   2.291  0.00  0.00    +0.048 C 
ATOM     18  C   UNL     1      -4.111   5.347   1.033  0.00  0.00    +0.229 C 
ENDBRANCH  16  18
ENDBRANCH  14  16
ENDBRANCH   8  14
ENDBRANCH   1  11
BRANCH   5  19
ATOM     19  N   UNL     1       5.580   0.907   1.045  0.00  0.00    +0.387 N 
ATOM     20  H   UNL     1       5.011   1.359   1.870  0.00  0.00    -0.085 HD
ATOM     21  H   UNL     1       5.993  -0.059   1.371  0.00  0.00    -0.085 HD
BRANCH  19  22
ATOM     22  C   UNL     1       6.692   1.800   0.694  0.00  0.00    -0.077 C 
BRANCH  22  23
ATOM     23  C   UNL     1       7.595   1.995   1.913  0.00  0.00    +0.018 C 
BRANCH  23  24
ATOM     24  C   UNL     1       8.735   2.912   1.553  0.00  0.00    -0.024 A 
ATOM     25  C   UNL     1       9.961   2.541   1.150  0.00  0.00    +0.087 A 
ATOM     26  N   UNL     1      10.729   3.648   0.912  0.00  0.00    -0.360 N 
ATOM     27  H   UNL     1      11.769   3.533   0.572  0.00  0.00    +0.165 HD
ATOM     28  C   UNL     1       9.998   4.787   1.163  0.00  0.00    +0.047 A 
ATOM     29  C   UNL     1       8.715   4.376   1.569  0.00  0.00    +0.003 A 
ATOM     30  C   UNL     1       7.750   5.330   1.899  0.00  0.00    +0.013 A 
ATOM     31  C   UNL     1       8.053   6.660   1.814  0.00  0.00    -0.050 A 
ATOM     32  C   UNL     1       9.316   7.070   1.408  0.00  0.00    +0.005 A 
ATOM     33  C   UNL     1      10.285   6.146   1.083  0.00  0.00    +0.026 A 
ATOM     34  C   UNL     1       7.009   7.688   2.164  0.00  0.00    +0.044 C 
ENDBRANCH  23  24
ENDBRANCH  22  23
ENDBRANCH  19  22
ENDBRANCH   5  19
TORSDOF 8
