REMARK  Name = ZINC67385128
REMARK  8 active torsions:
REMARK  status: ('A' for Active; 'I' for Inactive)
REMARK    1  A    between atoms: C_1  and  C_2
REMARK    2  A    between atoms: C_3  and  C_7
REMARK    3  A    between atoms: N_9  and  C_10
REMARK    4  A    between atoms: N_18  and  C_19
REMARK    5  A    between atoms: C_19  and  C_21
REMARK    6  A    between atoms: C_19  and  C_26
REMARK    7  A    between atoms: C_26  and  C_27
REMARK    8  A    between atoms: C_26  and  C_28
REMARK                            x       y       z     vdW  Elec       q    Type
REMARK                         _______ _______ _______ _____ _____    ______ ____
ROOT
ATOM      1  C   UNL     1      -4.882  -0.946   0.027  0.00  0.00    +0.076 C 
ATOM      2  C   UNL     1      -5.330  -0.689   1.468  0.00  0.00    +0.041 C 
ATOM      3  C   UNL     1      -6.788  -0.221   1.469  0.00  0.00    +0.111 C 
ATOM      4  N   UNL     1      -7.604  -1.210   0.752  0.00  0.00    -0.286 N 
ATOM      5  C   UNL     1      -7.208  -1.598  -0.609  0.00  0.00    +0.111 C 
ATOM      6  C   UNL     1      -5.745  -2.051  -0.587  0.00  0.00    +0.041 C 
ATOM      7  C   UNL     1      -8.693  -1.752   1.331  0.00  0.00    +0.303 C 
ATOM      8  O   UNL     1      -9.411  -2.500   0.696  0.00  0.00    -0.253 OA
ATOM      9  N   UNL     1      -8.987  -1.465   2.615  0.00  0.00    -0.292 N 
ATOM     10  H   UNL     1      -8.460  -0.810   3.098  0.00  0.00    +0.151 HD
ENDROOT
BRANCH   1  13
ATOM     11  C   UNL     1      -2.500  -0.435   0.022  0.00  0.00    +0.248 C 
ATOM     12  O   UNL     1      -2.783   0.747   0.031  0.00  0.00    -0.270 OA
ATOM     13  N   UNL     1      -3.478  -1.363   0.019  0.00  0.00    -0.308 N 
ATOM     14  H   UNL     1      -3.252  -2.306   0.012  0.00  0.00    +0.149 HD
BRANCH  11  17
ATOM     15  C   UNL     1      -0.000   1.460   0.025  0.00  0.00    +0.087 C 
ATOM     16  C   UNL     1       0.013  -0.047   0.015  0.00  0.00    +0.114 A 
ATOM     17  C   UNL     1      -1.087  -0.855   0.014  0.00  0.00    +0.077 A 
ATOM     18  C   UNL     1      -0.568  -2.230   0.003  0.00  0.00    +0.054 A 
ATOM     19  C   UNL     1       0.769  -2.120  -0.001  0.00  0.00    +0.196 A 
ATOM     20  O   UNL     1       1.103  -0.820   0.001  0.00  0.00    -0.467 OA
ENDBRANCH  11  17
ENDBRANCH   1  13
BRANCH   9  21
ATOM     21  C   UNL     1     -10.102  -2.143   3.280  0.00  0.00    +0.114 C 
BRANCH  21  22
ATOM     22  C   UNL     1     -10.615  -1.280   4.405  0.00  0.00    +0.010 A 
ATOM     23  C   UNL     1     -11.894  -1.058   4.795  0.00  0.00    +0.013 A 
ATOM     24  C   UNL     1     -12.131  -0.219   5.868  0.00  0.00    +0.008 A 
ATOM     25  C   UNL     1     -11.078   0.357   6.497  0.00  0.00    +0.045 A 
ATOM     26  S   UNL     1      -9.695  -0.292   5.574  0.00  0.00    -0.100 S 
ENDBRANCH  21  22
BRANCH  21  27
ATOM     27  C   UNL     1      -9.622  -3.482   3.843  0.00  0.00    +0.008 C 
ATOM     28  C   UNL     1      -9.102  -4.358   2.701  0.00  0.00    +0.009 C 
ATOM     29  C   UNL     1      -8.499  -3.239   4.852  0.00  0.00    +0.009 C 
ENDBRANCH  21  27
ENDBRANCH   9  21
TORSDOF 5
