REMARK  Name = ZINC12785251
REMARK  3 active torsions:
REMARK  status: ('A' for Active; 'I' for Inactive)
REMARK    1  A    between atoms: C_3  and  C_6
REMARK    2  A    between atoms: N_8  and  N_9
REMARK    3  A    between atoms: C_10  and  C_12
REMARK                            x       y       z     vdW  Elec       q    Type
REMARK                         _______ _______ _______ _____ _____    ______ ____
ROOT
ATOM      1  N   UNL     1       0.528  -4.608   3.974  0.00  0.00    -0.230 N 
ATOM      2  C   UNL     1       0.624  -3.334   4.402  0.00  0.00    +0.267 C 
ATOM      3  O   UNL     1       0.784  -3.100   5.585  0.00  0.00    -0.268 OA
ATOM      4  H   UNL     1       0.400  -4.795   3.030  0.00  0.00    +0.173 HD
ENDROOT
BRANCH   2   5
ATOM      5  C   UNL     1       0.537  -2.229   3.441  0.00  0.00    +0.076 A 
ATOM      6  C   UNL     1       0.609  -0.872   3.666  0.00  0.00    +0.024 A 
ATOM      7  C   UNL     1       0.516  -0.014   2.567  0.00  0.00    -0.036 A 
ATOM      8  C   UNL     1       0.277  -0.578   1.368  0.00  0.00    -0.006 A 
ATOM      9  S   UNL     1       0.307  -2.288   1.675  0.00  0.00    -0.088 S 
ATOM     10  C   UNL     1       0.002  -0.004   0.002  0.00  0.00    +0.043 C 
ATOM     11  C   UNL     1      -0.019   1.525   0.010  0.00  0.00    +0.005 C 
ATOM     12  C   UNL     1       1.394   2.086   0.000  0.00  0.00    +0.000 C 
ATOM     13  C   UNL     1       2.356   1.274   0.843  0.00  0.00    +0.000 C 
ATOM     14  C   UNL     1       2.214   1.768   2.287  0.00  0.00    +0.005 C 
ATOM     15  C   UNL     1       0.797   1.468   2.775  0.00  0.00    +0.036 C 
ENDBRANCH   2   5
BRANCH   1  18
ATOM     16  C   UNL     1       0.515  -6.938   4.463  0.00  0.00    +0.295 C 
ATOM     17  O   UNL     1       0.355  -7.172   3.280  0.00  0.00    -0.265 OA
ATOM     18  N   UNL     1       0.611  -5.663   4.891  0.00  0.00    -0.228 N 
ATOM     19  H   UNL     1       0.738  -5.477   5.835  0.00  0.00    +0.173 HD
BRANCH  16  22
ATOM     20  C   UNL     1       0.654 -10.066   6.340  0.00  0.00    +0.042 A 
ATOM     21  C   UNL     1       0.521  -9.373   5.127  0.00  0.00    +0.054 A 
ATOM     22  C   UNL     1       0.602  -8.042   5.424  0.00  0.00    +0.190 A 
ATOM     23  O   UNL     1       0.783  -7.923   6.756  0.00  0.00    -0.458 OA
ATOM     24  C   UNL     1       0.809  -9.140   7.312  0.00  0.00    +0.196 A 
ENDBRANCH  16  22
ENDBRANCH   1  18
TORSDOF 3
