REMARK  Name = ZINC08682360
REMARK  7 active torsions:
REMARK  status: ('A' for Active; 'I' for Inactive)
REMARK    1  A    between atoms: C_4  and  C_7
REMARK    2  A    between atoms: N_9  and  C_10
REMARK    3  A    between atoms: C_10  and  C_21
REMARK    4  A    between atoms: C_11  and  C_12
REMARK    5  A    between atoms: C_15  and  N_18
REMARK    6  A    between atoms: N_23  and  N_24
REMARK    7  A    between atoms: C_25  and  C_26
REMARK                            x       y       z     vdW  Elec       q    Type
REMARK                         _______ _______ _______ _____ _____    ______ ____
ROOT
ATOM      1  C   UNL     1       5.071  -3.055  -0.386  0.00  0.00    +0.098 C 
ATOM      2  C   UNL     1       4.905  -4.329   0.063  0.00  0.00    +0.036 C 
ENDROOT
BRANCH   2   3
ATOM      3  C   UNL     1       3.607  -4.997  -0.088  0.00  0.00    -0.023 A 
ATOM      4  C   UNL     1       2.651  -4.487  -0.976  0.00  0.00    +0.010 A 
ATOM      5  C   UNL     1       1.434  -5.120  -1.111  0.00  0.00    +0.033 A 
ATOM      6  C   UNL     1       1.156  -6.258  -0.373  0.00  0.00    +0.126 A 
ATOM      7  C   UNL     1       2.094  -6.769   0.507  0.00  0.00    +0.033 A 
ATOM      8  C   UNL     1       3.318  -6.152   0.651  0.00  0.00    +0.010 A 
BRANCH   6   9
ATOM      9  N   UNL     1      -0.154  -6.932  -0.525  0.00  0.00    +0.056 N 
ATOM     10  O   UNL     1      -1.049  -6.448  -1.361  0.00  0.00    -0.126 OA
ATOM     11  O   UNL     1      -0.423  -8.014   0.175  0.00  0.00    -0.126 OA
ENDBRANCH   6   9
ENDBRANCH   2   3
BRANCH   1  14
ATOM     12  C   UNL     1       3.985  -1.827  -2.103  0.00  0.00    +0.248 C 
ATOM     13  O   UNL     1       4.983  -1.923  -2.790  0.00  0.00    -0.270 OA
ATOM     14  N   UNL     1       3.974  -2.333  -0.854  0.00  0.00    -0.277 N 
ATOM     15  H   UNL     1       3.204  -2.194  -0.281  0.00  0.00    +0.155 HD
BRANCH  12  19
ATOM     16  C   UNL     1       0.528   0.105  -3.640  0.00  0.00    +0.000 A 
ATOM     17  C   UNL     1       1.663  -0.003  -4.424  0.00  0.00    +0.001 A 
ATOM     18  C   UNL     1       2.789  -0.629  -3.931  0.00  0.00    +0.013 A 
ATOM     19  C   UNL     1       2.782  -1.154  -2.638  0.00  0.00    +0.037 A 
ATOM     20  C   UNL     1       1.634  -1.042  -1.852  0.00  0.00    +0.013 A 
ATOM     21  C   UNL     1       0.514  -0.414  -2.357  0.00  0.00    +0.001 A 
ENDBRANCH  12  19
ENDBRANCH   1  14
BRANCH   1  22
ATOM     22  C   UNL     1       6.403  -2.443  -0.377  0.00  0.00    +0.277 C 
ATOM     23  O   UNL     1       7.371  -3.097  -0.039  0.00  0.00    -0.267 OA
ATOM     24  N   UNL     1       6.555  -1.155  -0.744  0.00  0.00    -0.202 N 
ATOM     25  H   UNL     1       5.777  -0.617  -0.959  0.00  0.00    +0.178 HD
BRANCH  24  26
ATOM     26  N   UNL     1       7.735  -0.637  -0.809  0.00  0.00    -0.184 NA
ATOM     27  C   UNL     1       7.886   0.640  -1.173  0.00  0.00    +0.176 C 
BRANCH  27  28
ATOM     28  C   UNL     1       9.150   1.194  -1.242  0.00  0.00    +0.149 A 
ATOM     29  C   UNL     1       9.481   2.579  -1.618  0.00  0.00    +0.052 A 
ATOM     30  C   UNL     1      10.839   2.672  -1.548  0.00  0.00    +0.057 A 
ATOM     31  C   UNL     1      11.332   1.424  -1.153  0.00  0.00    +0.171 A 
ATOM     32  O   UNL     1      10.320   0.570  -0.972  0.00  0.00    -0.447 OA
ATOM     33 BR   UNL     1      13.160   1.009  -0.903  0.00  0.00    -0.008 Br
ENDBRANCH  27  28
ENDBRANCH  24  26
ENDBRANCH   1  22
TORSDOF 7
