REMARK  Name = ZINC31167561
REMARK  13 active torsions:
REMARK  status: ('A' for Active; 'I' for Inactive)
REMARK    1  A    between atoms: C_1  and  C_2
REMARK    2  A    between atoms: C_2  and  C_3
REMARK    3  A    between atoms: C_3  and  C_4
REMARK    4  A    between atoms: C_4  and  C_5
REMARK    5  A    between atoms: C_5  and  C_6
REMARK    6  A    between atoms: C_6  and  O_8
REMARK    7  A    between atoms: O_8  and  C_9
REMARK    8  A    between atoms: C_15  and  O_31
REMARK    9  A    between atoms: C_17  and  O_30
REMARK   10  A    between atoms: C_18  and  C_29
REMARK   11  A    between atoms: C_21  and  C_27
REMARK   12  A    between atoms: C_21  and  C_28
REMARK   13  A    between atoms: C_24  and  O_26
REMARK                            x       y       z     vdW  Elec       q    Type
REMARK                         _______ _______ _______ _____ _____    ______ ____
ROOT
ATOM      1  C   UNL     1      -4.376  -6.251   0.394  0.00  0.00    +0.204 C 
ATOM      2  C   UNL     1      -4.738  -6.205   1.851  0.00  0.00    +0.022 C 
ATOM      3  C   UNL     1      -5.934  -6.434   2.260  0.00  0.00    -0.008 C 
ATOM      4  C   UNL     1      -6.534  -6.420   3.649  0.00  0.00    +0.196 C 
ATOM      5  O   UNL     1      -7.952  -6.665   3.493  0.00  0.00    -0.344 OA
ATOM      6  C   UNL     1      -8.271  -6.181   2.147  0.00  0.00    +0.284 C 
ATOM      7  C   UNL     1      -7.102  -6.803   1.364  0.00  0.00    +0.148 C 
ATOM      8  C   UNL     1      -6.888  -6.298  -0.052  0.00  0.00    +0.038 C 
ATOM      9  C   UNL     1      -5.496  -6.708  -0.535  0.00  0.00    +0.051 C 
ATOM     10  C   UNL     1      -5.189  -6.252  -1.959  0.00  0.00    -0.028 C 
ATOM     11  C   UNL     1      -5.529  -4.786  -2.188  0.00  0.00    +0.009 C 
ATOM     12  C   UNL     1      -6.915  -4.411  -1.689  0.00  0.00    +0.032 C 
ATOM     13  C   UNL     1      -7.109  -4.807  -0.223  0.00  0.00    +0.124 C 
ATOM     14  C   UNL     1      -5.896  -7.117  -3.013  0.00  0.00    +0.011 C 
ATOM     15  C   UNL     1      -3.679  -6.443  -2.246  0.00  0.00    +0.011 C 
ATOM     16  C   UNL     1      -7.983  -7.031  -0.869  0.00  0.00    +0.017 C 
ENDROOT
BRANCH  13  17
ATOM     17  O   UNL     1      -6.237  -4.044   0.605  0.00  0.00    -0.391 OA
ATOM     18  H   UNL     1      -6.351  -3.087   0.521  0.00  0.00    +0.210 HD
ENDBRANCH  13  17
BRANCH   7  19
ATOM     19  O   UNL     1      -7.258  -8.240   1.335  0.00  0.00    -0.378 OA
ATOM     20  H   UNL     1      -7.419  -8.635   2.203  0.00  0.00    +0.211 HD
ENDBRANCH   7  19
BRANCH   6  21
ATOM     21  O   UNL     1      -8.249  -4.756   2.156  0.00  0.00    -0.364 OA
ATOM     22  H   UNL     1      -8.898  -4.356   2.751  0.00  0.00    +0.213 HD
ENDBRANCH   6  21
BRANCH   1  23
ATOM     23  O   UNL     1      -3.904  -4.948   0.049  0.00  0.00    -0.457 OA
BRANCH  23  24
ATOM     24  C   UNL     1      -2.613  -4.682   0.299  0.00  0.00    +0.308 C 
ATOM     25  O   UNL     1      -1.906  -5.528   0.794  0.00  0.00    -0.251 OA
BRANCH  24  26
ATOM     26  C   UNL     1      -2.043  -3.328  -0.039  0.00  0.00    +0.120 C 
BRANCH  26  27
ATOM     27  C   UNL     1      -0.562  -3.288   0.344  0.00  0.00    +0.011 C 
BRANCH  27  28
ATOM     28  C   UNL     1       0.016  -1.913   0.002  0.00  0.00    +0.000 C 
BRANCH  28  30
ATOM     29  C   UNL     1       2.075  -0.498   0.042  0.00  0.00    +0.004 C 
ATOM     30  C   UNL     1       1.497  -1.873   0.384  0.00  0.00    -0.003 C 
ENDBRANCH  28  30
ENDBRANCH  27  28
ENDBRANCH  26  27
ENDBRANCH  24  26
ENDBRANCH  23  24
ENDBRANCH   1  23
TORSDOF 9
