REMARK  Name = ZINC21777082
REMARK  11 active torsions:
REMARK  status: ('A' for Active; 'I' for Inactive)
REMARK    1  A    between atoms: C_1  and  C_2
REMARK    2  A    between atoms: C_2  and  O_3
REMARK    3  A    between atoms: O_3  and  C_4
REMARK    4  A    between atoms: C_7  and  S_11
REMARK    5  A    between atoms: S_11  and  N_14
REMARK    6  A    between atoms: N_14  and  C_15
REMARK    7  A    between atoms: C_15  and  C_16
REMARK    8  A    between atoms: C_16  and  C_18
REMARK    9  A    between atoms: C_16  and  N_28
REMARK   10  A    between atoms: N_26  and  C_27
REMARK   11  A    between atoms: N_31  and  C_34
REMARK                            x       y       z     vdW  Elec       q    Type
REMARK                         _______ _______ _______ _____ _____    ______ ____
ROOT
ATOM      1  C   UNL     1      -1.947   4.755   0.051  0.00  0.00    +0.102 C 
ENDROOT
BRANCH   1   2
ATOM      2  C   UNL     1      -0.746   3.852  -0.068  0.00  0.00    -0.029 A 
ATOM      3  C   UNL     1      -0.799   2.561   0.423  0.00  0.00    +0.007 A 
ATOM      4  C   UNL     1       0.297   1.731   0.318  0.00  0.00    +0.024 A 
ATOM      5  C   UNL     1       1.468   2.190  -0.284  0.00  0.00    +0.033 A 
ATOM      6  C   UNL     1       1.510   3.488  -0.779  0.00  0.00    -0.025 A 
ATOM      7  C   UNL     1       0.409   4.312  -0.674  0.00  0.00    +0.010 A 
ATOM      8  C   UNL     1       2.882   3.715  -1.380  0.00  0.00    +0.056 C 
ATOM      9  C   UNL     1       3.432   2.278  -1.532  0.00  0.00    +0.109 C 
ATOM     10  N   UNL     1       2.688   1.535  -0.491  0.00  0.00    -0.332 N 
ATOM     11  C   UNL     1       2.475   0.138  -0.892  0.00  0.00    +0.129 C 
ENDBRANCH   1   2
BRANCH   1  12
ATOM     12  N   UNL     1      -1.671   5.809   1.038  0.00  0.00    -0.298 NA
ATOM     13  C   UNL     1      -0.483   6.587   0.659  0.00  0.00    +0.066 C 
ATOM     14  C   UNL     1      -0.277   7.720   1.666  0.00  0.00    -0.064 C 
ATOM     15  N   UNL     1      -0.124   7.154   3.014  0.00  0.00    +0.379 N 
ATOM     16  C   UNL     1      -1.312   6.375   3.392  0.00  0.00    -0.064 C 
ATOM     17  C   UNL     1      -1.518   5.242   2.385  0.00  0.00    +0.066 C 
ATOM     18  C   UNL     1       0.151   8.207   4.000  0.00  0.00    -0.096 C 
ATOM     19  H   UNL     1       0.738   6.471   2.999  0.00  0.00    -0.082 HD
ENDBRANCH   1  12
BRANCH   1  20
ATOM     20  C   UNL     1      -2.242   5.394  -1.307  0.00  0.00    +0.129 C 
BRANCH  20  21
ATOM     21  N   UNL     1      -3.333   6.361  -1.166  0.00  0.00    -0.188 NA
ATOM     22  H   UNL     1      -4.061   6.254  -0.348  0.00  0.00    +0.148 HD
BRANCH  21  23
ATOM     23  S   UNL     1      -3.622   7.465  -2.366  0.00  0.00    +0.059 S 
ATOM     24  O   UNL     1      -4.743   8.233  -1.950  0.00  0.00    -0.153 OA
ATOM     25  O   UNL     1      -2.369   8.057  -2.683  0.00  0.00    -0.153 OA
BRANCH  23  29
ATOM     26  C   UNL     1      -4.923   5.149  -6.034  0.00  0.00    +0.156 A 
ATOM     27  C   UNL     1      -3.580   5.420  -5.823  0.00  0.00    +0.050 A 
ATOM     28  C   UNL     1      -3.186   6.131  -4.706  0.00  0.00    +0.032 A 
ATOM     29  C   UNL     1      -4.129   6.564  -3.792  0.00  0.00    +0.108 A 
ATOM     30  C   UNL     1      -5.470   6.296  -3.998  0.00  0.00    +0.070 A 
ATOM     31  C   UNL     1      -5.870   5.589  -5.118  0.00  0.00    +0.167 A 
ATOM     32  F   UNL     1      -7.180   5.327  -5.319  0.00  0.00    -0.202 F 
BRANCH  26  33
ATOM     33  O   UNL     1      -5.314   4.453  -7.135  0.00  0.00    -0.489 OA
BRANCH  33  35
ATOM     34  C   UNL     1      -4.912   3.271  -9.204  0.00  0.00    +0.048 C 
ATOM     35  C   UNL     1      -4.286   4.032  -8.034  0.00  0.00    +0.226 C 
ENDBRANCH  33  35
ENDBRANCH  26  33
ENDBRANCH  23  29
ENDBRANCH  21  23
ENDBRANCH  20  21
ENDBRANCH   1  20
TORSDOF 8
