REMARK  Name = ZINC39696117
REMARK  8 active torsions:
REMARK  status: ('A' for Active; 'I' for Inactive)
REMARK    1  A    between atoms: C_1  and  C_2
REMARK    2  A    between atoms: C_2  and  C_3
REMARK    3  A    between atoms: C_6  and  C_9
REMARK    4  A    between atoms: C_9  and  C_11
REMARK    5  A    between atoms: C_9  and  N_12
REMARK    6  A    between atoms: C_13  and  C_15
REMARK    7  A    between atoms: C_26  and  C_28
REMARK    8  A    between atoms: C_34  and  C_36
REMARK                            x       y       z     vdW  Elec       q    Type
REMARK                         _______ _______ _______ _____ _____    ______ ____
ROOT
ATOM      1  C   UNL     1       2.477  -0.462   8.319  0.00  0.00    +0.100 C 
ATOM      2  C   UNL     1       1.197  -1.193   8.784  0.00  0.00    +0.121 C 
ATOM      3  N   UNL     1       1.667  -2.159   9.804  0.00  0.00    -0.300 N 
ATOM      4  C   UNL     1       2.706  -1.419  10.561  0.00  0.00    +0.115 C 
ATOM      5  C   UNL     1       3.463  -0.610   9.490  0.00  0.00    -0.004 C 
ATOM      6  C   UNL     1       3.844   0.763  10.036  0.00  0.00    -0.010 C 
ATOM      7  C   UNL     1       4.870   0.593  11.160  0.00  0.00    -0.082 C 
ATOM      8  N   UNL     1       6.057  -0.097  10.641  0.00  0.00    +0.379 N 
ATOM      9  C   UNL     1       5.699  -1.451  10.204  0.00  0.00    -0.082 C 
ATOM     10  C   UNL     1       4.708  -1.368   9.039  0.00  0.00    -0.010 C 
ATOM     11  C   UNL     1       1.246  -3.424  10.001  0.00  0.00    +0.219 C 
ATOM     12  O   UNL     1       1.732  -4.095  10.886  0.00  0.00    -0.275 OA
ATOM     13  H   UNL     1       6.430   0.421   9.859  0.00  0.00    -0.086 HD
ATOM     14  H   UNL     1       6.756  -0.153  11.367  0.00  0.00    -0.086 HD
ENDROOT
BRANCH  11  15
ATOM     15  C   UNL     1       0.170  -4.005   9.120  0.00  0.00    +0.078 C 
ATOM     16  C   UNL     1      -1.103  -3.165   9.249  0.00  0.00    +0.032 C 
ATOM     17  C   UNL     1      -2.184  -3.738   8.326  0.00  0.00    +0.108 C 
ATOM     18  N   UNL     1      -2.366  -5.162   8.639  0.00  0.00    -0.302 N 
ATOM     19  C   UNL     1      -1.190  -6.043   8.632  0.00  0.00    +0.108 C 
ATOM     20  C   UNL     1      -0.121  -5.444   9.551  0.00  0.00    +0.032 C 
ATOM     21  C   UNL     1      -3.589  -5.651   8.926  0.00  0.00    +0.212 C 
ATOM     22  O   UNL     1      -3.712  -6.804   9.283  0.00  0.00    -0.276 OA
ATOM     23  C   UNL     1      -4.802  -4.766   8.804  0.00  0.00    +0.109 C 
ENDBRANCH  11  15
BRANCH   1  25
ATOM     24  N   UNL     1       3.706  -0.377   6.174  0.00  0.00    -0.308 N 
ATOM     25  C   UNL     1       3.032  -1.114   7.079  0.00  0.00    +0.219 C 
ATOM     26  O   UNL     1       2.873  -2.303   6.896  0.00  0.00    -0.275 OA
ATOM     27  H   UNL     1       3.833   0.574   6.321  0.00  0.00    +0.149 HD
BRANCH  24  28
ATOM     28  C   UNL     1       4.246  -1.011   4.969  0.00  0.00    +0.100 C 
ATOM     29  C   UNL     1       3.159  -1.071   3.893  0.00  0.00    +0.033 C 
BRANCH  28  33
ATOM     30  C   UNL     1       7.555   1.270   3.520  0.00  0.00    -0.048 A 
ATOM     31  C   UNL     1       7.605  -0.112   3.499  0.00  0.00    +0.004 A 
ATOM     32  C   UNL     1       6.535  -0.850   3.968  0.00  0.00    +0.006 A 
ATOM     33  C   UNL     1       5.414  -0.206   4.458  0.00  0.00    -0.027 A 
ATOM     34  C   UNL     1       5.364   1.175   4.480  0.00  0.00    +0.006 A 
ATOM     35  C   UNL     1       6.436   1.913   4.015  0.00  0.00    +0.004 A 
BRANCH  30  37
ATOM     36  C   UNL     1       9.698   2.342   4.156  0.00  0.00    +0.009 C 
ATOM     37  C   UNL     1       8.722   2.074   3.009  0.00  0.00    +0.032 C 
ENDBRANCH  30  37
ENDBRANCH  28  33
ENDBRANCH  24  28
ENDBRANCH   1  25
TORSDOF 5
