REMARK  Name = ZINC15222637
REMARK  12 active torsions:
REMARK  status: ('A' for Active; 'I' for Inactive)
REMARK    1  A    between atoms: C_1  and  C_2
REMARK    2  A    between atoms: C_2  and  C_3
REMARK    3  A    between atoms: C_2  and  C_4
REMARK    4  A    between atoms: C_2  and  C_5
REMARK    5  A    between atoms: C_11  and  C_19
REMARK    6  A    between atoms: C_19  and  O_21
REMARK    7  A    between atoms: O_21  and  C_22
REMARK    8  A    between atoms: C_22  and  C_23
REMARK    9  A    between atoms: N_28  and  C_29
REMARK   10  A    between atoms: C_29  and  C_30
REMARK   11  A    between atoms: C_30  and  O_31
REMARK   12  A    between atoms: O_31  and  C_32
REMARK                            x       y       z     vdW  Elec       q    Type
REMARK                         _______ _______ _______ _____ _____    ______ ____
ROOT
ATOM      1  C   UNL     1       0.002  -0.004   0.002  0.00  0.00    -0.001 C 
ATOM      2  C   UNL     1       0.743  -0.517   1.242  0.00  0.00    +0.010 C 
ATOM      3  C   UNL     1       0.534  -2.027   1.340  0.00  0.00    +0.056 C 
ATOM      4  C   UNL     1       0.884  -2.697   0.034  0.00  0.00    +0.046 A 
ATOM      5  C   UNL     1       0.971  -1.988  -1.157  0.00  0.00    -0.011 A 
ATOM      6  C   UNL     1       1.290  -2.659  -2.337  0.00  0.00    +0.073 A 
ATOM      7  C   UNL     1       1.520  -4.054  -2.274  0.00  0.00    +0.015 A 
ATOM      8  C   UNL     1       1.844  -4.798  -3.415  0.00  0.00    +0.011 A 
ATOM      9  C   UNL     1       2.056  -6.140  -3.307  0.00  0.00    +0.001 A 
ATOM     10  C   UNL     1       1.956  -6.782  -2.074  0.00  0.00    +0.002 A 
ATOM     11  C   UNL     1       1.643  -6.089  -0.946  0.00  0.00    +0.028 A 
ATOM     12  C   UNL     1       1.415  -4.702  -1.018  0.00  0.00    +0.072 A 
ATOM     13  N   UNL     1       1.105  -3.997   0.068  0.00  0.00    -0.251 NA
ATOM     14  C   UNL     1       0.740  -0.502  -1.239  0.00  0.00    +0.042 C 
ENDROOT
BRANCH   1  16
ATOM     15  C   UNL     1       1.417   2.055  -0.000  0.00  0.00    +0.011 C 
ATOM     16  C   UNL     1      -0.019   1.526   0.010  0.00  0.00    -0.035 C 
ATOM     17  C   UNL     1      -0.759   2.033  -1.229  0.00  0.00    +0.011 C 
ATOM     18  C   UNL     1      -0.735   2.019   1.269  0.00  0.00    +0.011 C 
ENDBRANCH   1  16
BRANCH   6  19
ATOM     19  C   UNL     1       1.386  -1.932  -3.620  0.00  0.00    +0.341 C 
ATOM     20  O   UNL     1       0.403  -1.810  -4.323  0.00  0.00    -0.245 OA
BRANCH  19  21
ATOM     21  O   UNL     1       2.563  -1.405  -4.010  0.00  0.00    -0.452 OA
BRANCH  21  22
ATOM     22  C   UNL     1       2.583  -0.705  -5.282  0.00  0.00    +0.328 C 
BRANCH  22  23
ATOM     23  C   UNL     1       3.973  -0.189  -5.549  0.00  0.00    +0.258 C 
ATOM     24  O   UNL     1       4.860  -0.391  -4.747  0.00  0.00    -0.272 OA
ATOM     25  N   UNL     1       4.231   0.498  -6.679  0.00  0.00    -0.237 N 
ATOM     26  C   UNL     1       5.475   0.960  -6.918  0.00  0.00    +0.306 C 
ATOM     27  O   UNL     1       6.363   0.757  -6.114  0.00  0.00    -0.252 OA
ATOM     28  N   UNL     1       5.733   1.646  -8.049  0.00  0.00    -0.297 N 
ATOM     29  H   UNL     1       3.522   0.660  -7.321  0.00  0.00    +0.159 HD
ATOM     30  H   UNL     1       5.024   1.808  -8.691  0.00  0.00    +0.150 HD
BRANCH  28  31
ATOM     31  C   UNL     1       7.085   2.148  -8.309  0.00  0.00    +0.133 C 
BRANCH  31  32
ATOM     32  C   UNL     1       7.106   2.886  -9.649  0.00  0.00    +0.178 C 
BRANCH  32  33
ATOM     33  O   UNL     1       6.280   4.049  -9.565  0.00  0.00    -0.381 OA
ATOM     34  C   UNL     1       6.230   4.815 -10.771  0.00  0.00    +0.194 C 
ENDBRANCH  32  33
ENDBRANCH  31  32
ENDBRANCH  28  31
ENDBRANCH  22  23
ENDBRANCH  21  22
ENDBRANCH  19  21
ENDBRANCH   6  19
TORSDOF 8
