REMARK  Name = ZINC01050667
REMARK  7 active torsions:
REMARK  status: ('A' for Active; 'I' for Inactive)
REMARK    1  A    between atoms: C_3  and  C_10
REMARK    2  A    between atoms: C_5  and  N_7
REMARK    3  A    between atoms: C_13  and  C_15
REMARK    4  A    between atoms: N_17  and  C_18
REMARK    5  A    between atoms: C_18  and  N_20
REMARK    6  A    between atoms: N_20  and  C_21
REMARK    7  A    between atoms: C_26  and  N_27
REMARK                            x       y       z     vdW  Elec       q    Type
REMARK                         _______ _______ _______ _____ _____    ______ ____
ROOT
ATOM      1  C   UNL     1       7.321   2.349   0.703  0.00  0.00    +0.285 C 
ATOM      2  O   UNL     1       8.076   3.237   1.054  0.00  0.00    -0.266 OA
ATOM      3  N   UNL     1       7.817   1.163   0.300  0.00  0.00    -0.261 N 
ATOM      4  H   UNL     1       7.215   0.456   0.020  0.00  0.00    +0.157 HD
ENDROOT
BRANCH   1   8
ATOM      5  C   UNL     1       3.715   2.226   0.501  0.00  0.00    +0.136 A 
ATOM      6  C   UNL     1       3.864   3.502   0.965  0.00  0.00    +0.050 A 
ATOM      7  C   UNL     1       5.237   3.730   1.107  0.00  0.00    +0.055 A 
ATOM      8  C   UNL     1       5.874   2.570   0.719  0.00  0.00    +0.190 A 
ATOM      9  O   UNL     1       4.931   1.673   0.362  0.00  0.00    -0.450 OA
BRANCH   5  12
ATOM     10  C   UNL     1       0.029   1.623   0.115  0.00  0.00    +0.003 A 
ATOM     11  C   UNL     1       1.227   2.248   0.393  0.00  0.00    +0.012 A 
ATOM     12  C   UNL     1       2.429   1.563   0.206  0.00  0.00    +0.019 A 
ATOM     13  C   UNL     1       2.409   0.246  -0.261  0.00  0.00    +0.044 A 
ATOM     14  C   UNL     1       1.204  -0.367  -0.534  0.00  0.00    +0.127 A 
ATOM     15  C   UNL     1       0.017   0.319  -0.347  0.00  0.00    +0.033 A 
BRANCH  14  16
ATOM     16  N   UNL     1       1.182  -1.762  -1.030  0.00  0.00    +0.056 N 
ATOM     17  O   UNL     1       2.218  -2.362  -1.194  0.00  0.00    -0.126 OA
ATOM     18  O   UNL     1       0.127  -2.301  -1.270  0.00  0.00    -0.126 OA
ENDBRANCH  14  16
ENDBRANCH   5  12
ENDBRANCH   1   8
BRANCH   3  19
ATOM     19  C   UNL     1       9.149   0.960   0.285  0.00  0.00    +0.141 C 
ATOM     20  S   UNL     1      10.212   2.208   0.778  0.00  0.00    -0.018 S 
BRANCH  19  21
ATOM     21  N   UNL     1       9.646  -0.227  -0.119  0.00  0.00    -0.295 N 
ATOM     22  H   UNL     1       9.044  -0.960  -0.322  0.00  0.00    +0.154 HD
BRANCH  21  23
ATOM     23  C   UNL     1      11.030  -0.401  -0.244  0.00  0.00    +0.055 A 
ATOM     24  C   UNL     1      11.803   0.578  -0.850  0.00  0.00    +0.025 A 
ATOM     25  C   UNL     1      13.168   0.405  -0.972  0.00  0.00    +0.003 A 
ATOM     26  C   UNL     1      13.770  -0.744  -0.491  0.00  0.00    +0.022 A 
ATOM     27  C   UNL     1      13.008  -1.726   0.114  0.00  0.00    +0.064 A 
ATOM     28  C   UNL     1      11.636  -1.558   0.246  0.00  0.00    +0.070 A 
ATOM     29 CL   UNL     1      13.767  -3.167   0.716  0.00  0.00    -0.082 Cl
BRANCH  28  30
ATOM     30  N   UNL     1      10.863  -2.547   0.864  0.00  0.00    -0.327 N 
ATOM     31  C   UNL     1      10.547  -2.617   2.299  0.00  0.00    +0.105 C 
ATOM     32  C   UNL     1       9.696  -3.885   2.519  0.00  0.00    +0.020 C 
ATOM     33  C   UNL     1      10.055  -4.763   1.291  0.00  0.00    +0.020 C 
ATOM     34  C   UNL     1      10.226  -3.689   0.184  0.00  0.00    +0.105 C 
ENDBRANCH  28  30
ENDBRANCH  21  23
ENDBRANCH  19  21
ENDBRANCH   3  19
TORSDOF 7
