REMARK  Name = ZINC33170738
REMARK  9 active torsions:
REMARK  status: ('A' for Active; 'I' for Inactive)
REMARK    1  A    between atoms: C_1  and  C_2
REMARK    2  A    between atoms: C_2  and  C_3
REMARK    3  A    between atoms: C_10  and  S_26
REMARK    4  A    between atoms: N_13  and  C_14
REMARK    5  A    between atoms: C_14  and  C_15
REMARK    6  A    between atoms: N_17  and  C_18
REMARK    7  A    between atoms: C_18  and  C_19
REMARK    8  A    between atoms: C_19  and  C_20
REMARK    9  A    between atoms: S_26  and  C_29
REMARK                            x       y       z     vdW  Elec       q    Type
REMARK                         _______ _______ _______ _____ _____    ______ ____
ROOT
ATOM      1  C   UNL     1      -0.632  -4.239  -3.608  0.00  0.00    -0.047 A 
ATOM      2  C   UNL     1      -0.903  -2.877  -3.600  0.00  0.00    +0.005 A 
ATOM      3  C   UNL     1      -1.029  -2.193  -2.410  0.00  0.00    +0.027 A 
ATOM      4  C   UNL     1      -0.889  -2.873  -1.204  0.00  0.00    +0.053 A 
ATOM      5  C   UNL     1      -0.609  -4.252  -1.217  0.00  0.00    +0.001 A 
ATOM      6  C   UNL     1      -0.485  -4.926  -2.437  0.00  0.00    +0.013 A 
ATOM      7  C   UNL     1      -0.457  -4.957   0.057  0.00  0.00    +0.042 A 
ATOM      8  C   UNL     1      -0.588  -4.251   1.207  0.00  0.00    +0.158 A 
ATOM      9  C   UNL     1      -0.864  -2.868   1.165  0.00  0.00    +0.278 A 
ATOM     10  O   UNL     1      -0.978  -2.252   2.211  0.00  0.00    -0.266 OA
ATOM     11  N   UNL     1      -1.005  -2.212  -0.000  0.00  0.00    -0.298 N 
ENDROOT
BRANCH   8  12
ATOM     12  S   UNL     1      -0.414  -5.064   2.761  0.00  0.00    +0.030 S 
ATOM     13  O   UNL     1      -1.530  -4.677   3.550  0.00  0.00    -0.164 OA
ATOM     14  O   UNL     1      -0.117  -6.425   2.476  0.00  0.00    -0.164 OA
BRANCH  12  15
ATOM     15  C   UNL     1       1.014  -4.391   3.543  0.00  0.00    +0.094 A 
ATOM     16  C   UNL     1       2.252  -4.970   3.339  0.00  0.00    +0.027 A 
ATOM     17  C   UNL     1       3.373  -4.439   3.950  0.00  0.00    +0.002 A 
ATOM     18  C   UNL     1       3.254  -3.335   4.772  0.00  0.00    +0.000 A 
ATOM     19  C   UNL     1       2.015  -2.759   4.981  0.00  0.00    +0.002 A 
ATOM     20  C   UNL     1       0.895  -3.287   4.367  0.00  0.00    +0.027 A 
ENDBRANCH  12  15
ENDBRANCH   8  12
BRANCH   1  22
ATOM     21  C   UNL     1      -1.869  -5.494  -5.354  0.00  0.00    +0.009 C 
ATOM     22  C   UNL     1      -0.499  -4.966  -4.922  0.00  0.00    +0.032 C 
ENDBRANCH   1  22
BRANCH  11  23
ATOM     23  C   UNL     1      -1.293  -0.775   0.010  0.00  0.00    +0.221 C 
BRANCH  23  24
ATOM     24  C   UNL     1       0.002  -0.004   0.002  0.00  0.00    +0.233 C 
ATOM     25  O   UNL     1       1.060  -0.596  -0.011  0.00  0.00    -0.274 OA
ATOM     26  N   UNL     1      -0.016   1.344   0.009  0.00  0.00    -0.314 N 
ATOM     27  H   UNL     1      -0.976   1.881   0.021  0.00  0.00    +0.149 HD
BRANCH  26  28
ATOM     28  C   UNL     1       1.242   2.093   0.001  0.00  0.00    +0.108 C 
BRANCH  28  29
ATOM     29  C   UNL     1       0.943   3.594   0.012  0.00  0.00    +0.049 C 
BRANCH  29  30
ATOM     30  C   UNL     1       2.237   4.365   0.004  0.00  0.00    -0.072 C 
ATOM     31  C   UNL     1       2.697   4.767  -1.137  0.00  0.00    -0.028 C 
ATOM     32  C   UNL     1       3.975   5.535  -1.305  0.00  0.00    +0.027 C 
ATOM     33  C   UNL     1       4.414   6.128   0.035  0.00  0.00    +0.004 C 
ATOM     34  C   UNL     1       4.373   5.019   1.093  0.00  0.00    +0.005 C 
ATOM     35  C   UNL     1       2.910   4.624   1.320  0.00  0.00    +0.030 C 
ENDBRANCH  29  30
ENDBRANCH  28  29
ENDBRANCH  26  28
ENDBRANCH  23  24
ENDBRANCH  11  23
TORSDOF 8
