REMARK  Name = ZINC54967831
REMARK  9 active torsions:
REMARK  status: ('A' for Active; 'I' for Inactive)
REMARK    1  A    between atoms: C_1  and  C_2
REMARK    2  A    between atoms: C_2  and  C_3
REMARK    3  A    between atoms: C_3  and  O_4
REMARK    4  A    between atoms: O_4  and  C_5
REMARK    5  A    between atoms: C_14  and  C_19
REMARK    6  A    between atoms: C_15  and  C_17
REMARK    7  A    between atoms: C_19  and  C_20
REMARK    8  A    between atoms: C_19  and  C_21
REMARK    9  A    between atoms: C_19  and  C_22
REMARK                            x       y       z     vdW  Elec       q    Type
REMARK                         _______ _______ _______ _____ _____    ______ ____
ROOT
ATOM      1  C   UNL     1       1.387  -2.493  -2.405  0.00  0.00    +0.136 C 
ATOM      2  C   UNL     1       0.758  -3.849  -2.729  0.00  0.00    +0.035 C 
ATOM      3  C   UNL     1       1.431  -4.442  -3.970  0.00  0.00    +0.021 C 
ATOM      4  C   UNL     1       2.921  -4.655  -3.684  0.00  0.00    +0.107 C 
ATOM      5  N   UNL     1       3.503  -3.385  -3.231  0.00  0.00    -0.307 N 
ATOM      6  C   UNL     1       2.877  -2.683  -2.102  0.00  0.00    +0.138 C 
ATOM      7  C   UNL     1       4.614  -2.861  -3.852  0.00  0.00    +0.162 A 
ATOM      8  N   UNL     1       5.289  -3.357  -4.876  0.00  0.00    -0.228 NA
ATOM      9  C   UNL     1       6.334  -2.745  -5.367  0.00  0.00    +0.066 A 
ATOM     10  C   UNL     1       6.692  -1.547  -4.752  0.00  0.00    +0.076 A 
ATOM     11  S   UNL     1       5.429  -1.433  -3.494  0.00  0.00    -0.049 S 
ENDROOT
BRANCH   9  12
ATOM     12  C   UNL     1       7.109  -3.305  -6.532  0.00  0.00    +0.006 C 
ATOM     13  C   UNL     1       6.473  -4.622  -6.982  0.00  0.00    +0.017 C 
ATOM     14  C   UNL     1       7.083  -2.304  -7.689  0.00  0.00    +0.017 C 
ATOM     15  C   UNL     1       8.557  -3.556  -6.108  0.00  0.00    +0.017 C 
ENDBRANCH   9  12
BRANCH  10  16
ATOM     16  C   UNL     1       7.752  -0.668  -5.044  0.00  0.00    +0.267 C 
ATOM     17  O   UNL     1       7.903   0.342  -4.386  0.00  0.00    -0.295 OA
ENDBRANCH  10  16
BRANCH   1  18
ATOM     18  O   UNL     1       0.738  -1.926  -1.265  0.00  0.00    -0.375 OA
BRANCH  18  19
ATOM     19  C   UNL     1       0.718  -0.497  -1.257  0.00  0.00    +0.160 C 
BRANCH  19  21
ATOM     20  C   UNL     1      -0.019   1.526   0.010  0.00  0.00    +0.006 C 
ATOM     21  C   UNL     1       0.002  -0.004   0.002  0.00  0.00    +0.025 C 
ENDBRANCH  19  21
ENDBRANCH  18  19
ENDBRANCH   1  18
TORSDOF 5
