REMARK  Name = ZINC62325967
REMARK  12 active torsions:
REMARK  status: ('A' for Active; 'I' for Inactive)
REMARK    1  A    between atoms: C_1  and  C_2
REMARK    2  A    between atoms: C_2  and  C_3
REMARK    3  A    between atoms: C_2  and  C_4
REMARK    4  A    between atoms: C_2  and  C_5
REMARK    5  A    between atoms: C_8  and  C_11
REMARK    6  A    between atoms: C_11  and  C_12
REMARK    7  A    between atoms: C_12  and  S_13
REMARK    8  A    between atoms: S_13  and  N_16
REMARK    9  A    between atoms: N_16  and  C_17
REMARK   10  A    between atoms: N_16  and  C_18
REMARK   11  A    between atoms: C_18  and  C_19
REMARK   12  A    between atoms: C_19  and  C_20
REMARK                            x       y       z     vdW  Elec       q    Type
REMARK                         _______ _______ _______ _____ _____    ______ ____
ROOT
ATOM      1  S   UNL     1       3.361  -1.440  -7.373  0.00  0.00    +0.032 S 
ATOM      2  O   UNL     1       4.768  -1.421  -7.175  0.00  0.00    -0.158 OA
ATOM      3  O   UNL     1       2.717  -2.602  -7.879  0.00  0.00    -0.158 OA
ENDROOT
BRANCH   1   4
ATOM      4  N   UNL     1       3.079  -0.271  -8.511  0.00  0.00    -0.184 NA
ATOM      5  C   UNL     1       4.008   0.853  -8.652  0.00  0.00    +0.131 C 
BRANCH   4   6
ATOM      6  C   UNL     1       1.900  -0.360  -9.376  0.00  0.00    +0.111 C 
BRANCH   6   7
ATOM      7  C   UNL     1       0.762   0.467  -8.774  0.00  0.00    +0.048 C 
BRANCH   7   8
ATOM      8  C   UNL     1      -0.469   0.374  -9.678  0.00  0.00    +0.120 C 
ATOM      9  C   UNL     1      -1.645   1.097  -9.015  0.00  0.00    +0.032 C 
ATOM     10  C   UNL     1      -2.856   1.052  -9.951  0.00  0.00    +0.005 C 
ATOM     11  C   UNL     1      -2.471   1.678 -11.296  0.00  0.00    +0.028 C 
ATOM     12  C   UNL     1      -1.264   0.932 -11.870  0.00  0.00    +0.160 C 
ATOM     13  O   UNL     1      -0.183   0.986 -10.937  0.00  0.00    -0.377 OA
ENDBRANCH   7   8
ENDBRANCH   6   7
ENDBRANCH   4   6
ENDBRANCH   1   4
BRANCH   1  14
ATOM     14  C   UNL     1       2.512  -0.855  -5.881  0.00  0.00    +0.190 C 
BRANCH  14  15
ATOM     15  C   UNL     1       2.707  -1.868  -4.752  0.00  0.00    +0.059 C 
BRANCH  15  19
ATOM     16  C   UNL     1       0.707  -0.490  -1.238  0.00  0.00    -0.042 A 
ATOM     17  C   UNL     1       0.036  -1.284  -2.148  0.00  0.00    +0.004 A 
ATOM     18  C   UNL     1       0.683  -1.730  -3.286  0.00  0.00    +0.004 A 
ATOM     19  C   UNL     1       2.001  -1.381  -3.513  0.00  0.00    -0.046 A 
ATOM     20  C   UNL     1       2.672  -0.586  -2.603  0.00  0.00    +0.004 A 
ATOM     21  C   UNL     1       2.024  -0.137  -1.467  0.00  0.00    +0.004 A 
BRANCH  16  23
ATOM     22  C   UNL     1      -0.019   1.526   0.010  0.00  0.00    +0.015 C 
ATOM     23  C   UNL     1       0.002  -0.004   0.002  0.00  0.00    -0.013 C 
ATOM     24  C   UNL     1       0.742  -0.511   1.242  0.00  0.00    +0.015 C 
ATOM     25  C   UNL     1      -1.433  -0.534   0.013  0.00  0.00    +0.015 C 
ENDBRANCH  16  23
ENDBRANCH  15  19
ENDBRANCH  14  15
ENDBRANCH   1  14
TORSDOF 8
