REMARK  Name = ZINC11667341
REMARK  6 active torsions:
REMARK  status: ('A' for Active; 'I' for Inactive)
REMARK    1  A    between atoms: C_1  and  N_2
REMARK    2  A    between atoms: C_11  and  C_12
REMARK    3  A    between atoms: C_11  and  C_14
REMARK    4  A    between atoms: C_14  and  C_16
REMARK    5  A    between atoms: C_17  and  C_18
REMARK    6  A    between atoms: C_21  and  N_24
REMARK                            x       y       z     vdW  Elec       q    Type
REMARK                         _______ _______ _______ _____ _____    ______ ____
ROOT
ATOM      1  C   UNL     1       6.434  -1.220  -0.043  0.00  0.00    +0.137 C 
ATOM      2  N   UNL     1       7.511  -0.231   0.048  0.00  0.00    -0.289 N 
ATOM      3  C   UNL     1       8.864  -0.511   0.205  0.00  0.00    +0.056 A 
ATOM      4  C   UNL     1       9.579  -1.696   0.318  0.00  0.00    +0.025 A 
ATOM      5  C   UNL     1      10.950  -1.659   0.467  0.00  0.00    +0.002 A 
ATOM      6  C   UNL     1      11.617  -0.446   0.506  0.00  0.00    +0.002 A 
ATOM      7  C   UNL     1      10.916   0.738   0.395  0.00  0.00    +0.025 A 
ATOM      8  C   UNL     1       9.536   0.713   0.244  0.00  0.00    +0.054 A 
ATOM      9  N   UNL     1       8.579   1.711   0.104  0.00  0.00    -0.300 N 
ATOM     10  C   UNL     1       7.359   1.119  -0.007  0.00  0.00    +0.116 C 
ATOM     11  C   UNL     1       6.139   1.795  -0.162  0.00  0.00    +0.134 C 
ATOM     12  H   UNL     1       8.751   2.666   0.091  0.00  0.00    +0.153 HD
ENDROOT
BRANCH  11  13
ATOM     13  C   UNL     1       6.126   3.214  -0.355  0.00  0.00    +0.106 C 
ATOM     14  N   UNL     1       6.115   4.339  -0.509  0.00  0.00    -0.191 NA
ENDBRANCH  11  13
BRANCH  11  15
ATOM     15  C   UNL     1       4.919   1.072  -0.126  0.00  0.00    +0.199 C 
ATOM     16  O   UNL     1       4.553   0.544   0.911  0.00  0.00    -0.286 OA
BRANCH  15  17
ATOM     17  C   UNL     1       4.098   0.959  -1.336  0.00  0.00    +0.053 C 
ATOM     18  C   UNL     1       2.939   0.273  -1.302  0.00  0.00    +0.012 C 
BRANCH  18  19
ATOM     19  C   UNL     1       2.115   0.160  -2.517  0.00  0.00    -0.025 A 
ATOM     20  C   UNL     1       0.912  -0.552  -2.486  0.00  0.00    +0.010 A 
ATOM     21  C   UNL     1       0.148  -0.658  -3.629  0.00  0.00    +0.033 A 
ATOM     22  C   UNL     1       0.564  -0.053  -4.802  0.00  0.00    +0.126 A 
ATOM     23  C   UNL     1       1.754   0.653  -4.841  0.00  0.00    +0.033 A 
ATOM     24  C   UNL     1       2.532   0.764  -3.708  0.00  0.00    +0.010 A 
BRANCH  22  25
ATOM     25  N   UNL     1      -0.265  -0.166  -6.023  0.00  0.00    +0.056 N 
ATOM     26  O   UNL     1       0.101   0.361  -7.059  0.00  0.00    -0.126 OA
ATOM     27  O   UNL     1      -1.312  -0.787  -5.993  0.00  0.00    -0.126 OA
ENDBRANCH  22  25
ENDBRANCH  18  19
ENDBRANCH  15  17
ENDBRANCH  11  15
TORSDOF 5
