REMARK  Name = ZINC03324657
REMARK  8 active torsions:
REMARK  status: ('A' for Active; 'I' for Inactive)
REMARK    1  A    between atoms: C_1  and  C_2
REMARK    2  A    between atoms: C_5  and  N_8
REMARK    3  A    between atoms: C_9  and  C_28
REMARK    4  A    between atoms: C_12  and  S_13
REMARK    5  A    between atoms: S_13  and  C_14
REMARK    6  A    between atoms: C_14  and  C_15
REMARK    7  A    between atoms: N_17  and  N_18
REMARK    8  A    between atoms: C_19  and  C_21
REMARK                            x       y       z     vdW  Elec       q    Type
REMARK                         _______ _______ _______ _____ _____    ______ ____
ROOT
ATOM      1  N   UNL     1       0.036  -4.173  -0.059  0.00  0.00    -0.270 N 
ATOM      2  C   UNL     1      -0.881  -5.021   0.523  0.00  0.00    +0.169 A 
ATOM      3  N   UNL     1      -0.452  -6.246   0.326  0.00  0.00    -0.128 NA
ATOM      4  N   UNL     1       0.653  -6.225  -0.329  0.00  0.00    -0.122 NA
ATOM      5  C   UNL     1       0.997  -4.984  -0.597  0.00  0.00    +0.197 A 
ENDROOT
BRANCH   1  10
ATOM      6  C   UNL     1      -0.150   1.497  -0.214  0.00  0.00    +0.044 C 
ATOM      7  C   UNL     1      -0.100  -0.008  -0.173  0.00  0.00    -0.050 A 
ATOM      8  C   UNL     1      -0.263  -0.736  -1.337  0.00  0.00    +0.005 A 
ATOM      9  C   UNL     1      -0.218  -2.116  -1.303  0.00  0.00    +0.026 A 
ATOM     10  C   UNL     1      -0.009  -2.772  -0.097  0.00  0.00    +0.051 A 
ATOM     11  C   UNL     1       0.153  -2.039   1.070  0.00  0.00    +0.026 A 
ATOM     12  C   UNL     1       0.113  -0.659   1.029  0.00  0.00    +0.005 A 
ENDBRANCH   1  10
BRANCH   2  13
ATOM     13  C   UNL     1      -2.115  -4.626   1.235  0.00  0.00    +0.020 A 
ATOM     14  C   UNL     1      -2.648  -3.348   1.058  0.00  0.00    +0.011 A 
ATOM     15  C   UNL     1      -3.799  -2.985   1.726  0.00  0.00    +0.001 A 
ATOM     16  C   UNL     1      -4.426  -3.885   2.570  0.00  0.00    +0.000 A 
ATOM     17  C   UNL     1      -3.903  -5.154   2.750  0.00  0.00    +0.001 A 
ATOM     18  C   UNL     1      -2.755  -5.531   2.083  0.00  0.00    +0.011 A 
ENDBRANCH   2  13
BRANCH   5  19
ATOM     19  S   UNL     1       2.431  -4.464  -1.479  0.00  0.00    -0.076 S 
BRANCH  19  20
ATOM     20  C   UNL     1       3.269  -6.015  -1.908  0.00  0.00    +0.174 C 
BRANCH  20  21
ATOM     21  C   UNL     1       4.529  -5.709  -2.676  0.00  0.00    +0.239 C 
ATOM     22  O   UNL     1       4.832  -4.558  -2.911  0.00  0.00    -0.273 OA
ATOM     23  N   UNL     1       5.319  -6.714  -3.103  0.00  0.00    -0.233 N 
ATOM     24  H   UNL     1       5.076  -7.635  -2.915  0.00  0.00    +0.173 HD
BRANCH  23  25
ATOM     25  N   UNL     1       6.490  -6.430  -3.817  0.00  0.00    -0.230 N 
ATOM     26  C   UNL     1       7.280  -7.435  -4.243  0.00  0.00    +0.261 C 
ATOM     27  O   UNL     1       6.976  -8.589  -4.008  0.00  0.00    -0.269 OA
ATOM     28  H   UNL     1       6.732  -5.510  -4.005  0.00  0.00    +0.173 HD
BRANCH  26  29
ATOM     29  C   UNL     1       8.516  -7.135  -4.997  0.00  0.00    +0.052 A 
ATOM     30  C   UNL     1       8.870  -5.812  -5.264  0.00  0.00    +0.014 A 
ATOM     31  C   UNL     1      10.025  -5.539  -5.967  0.00  0.00    +0.001 A 
ATOM     32  C   UNL     1      10.832  -6.573  -6.408  0.00  0.00    +0.001 A 
ATOM     33  C   UNL     1      10.487  -7.887  -6.148  0.00  0.00    +0.016 A 
ATOM     34  C   UNL     1       9.337  -8.175  -5.440  0.00  0.00    +0.030 A 
ATOM     35 BR   UNL     1       8.871  -9.971  -5.078  0.00  0.00    -0.050 Br
ENDBRANCH  26  29
ENDBRANCH  23  25
ENDBRANCH  20  21
ENDBRANCH  19  20
ENDBRANCH   5  19
TORSDOF 7
