REMARK  Name = ZINC22053049
REMARK  10 active torsions:
REMARK  status: ('A' for Active; 'I' for Inactive)
REMARK    1  A    between atoms: C_1  and  C_2
REMARK    2  A    between atoms: C_2  and  C_4
REMARK    3  A    between atoms: C_2  and  N_21
REMARK    4  A    between atoms: C_12  and  N_14
REMARK    5  A    between atoms: N_14  and  C_15
REMARK    6  A    between atoms: N_24  and  S_27
REMARK    7  A    between atoms: S_27  and  C_30
REMARK    8  A    between atoms: C_33  and  C_36
REMARK    9  A    between atoms: C_36  and  C_37
REMARK   10  A    between atoms: C_36  and  C_38
REMARK                            x       y       z     vdW  Elec       q    Type
REMARK                         _______ _______ _______ _____ _____    ______ ____
ROOT
ATOM      1  C   UNL     1      -0.060   1.512   0.195  0.00  0.00    +0.032 C 
ATOM      2  C   UNL     1       0.002  -0.004   0.002  0.00  0.00    +0.120 C 
ENDROOT
BRANCH   2   3
ATOM      3  C   UNL     1      -1.397  -0.565  -0.024  0.00  0.00    +0.127 A 
ATOM      4  N   UNL     1      -2.041  -0.588  -1.166  0.00  0.00    -0.342 N 
ATOM      5  C   UNL     1      -3.288  -1.078  -1.234  0.00  0.00    +0.051 A 
ATOM      6  C   UNL     1      -4.006  -1.118  -2.436  0.00  0.00    +0.026 A 
ATOM      7  C   UNL     1      -5.270  -1.628  -2.449  0.00  0.00    +0.002 A 
ATOM      8  C   UNL     1      -5.861  -2.110  -1.284  0.00  0.00    +0.001 A 
ATOM      9  C   UNL     1      -5.190  -2.085  -0.097  0.00  0.00    +0.013 A 
ATOM     10  C   UNL     1      -3.891  -1.569  -0.050  0.00  0.00    +0.038 A 
ATOM     11  C   UNL     1      -3.144  -1.518   1.152  0.00  0.00    +0.130 A 
ATOM     12  N   UNL     1      -1.917  -1.016   1.106  0.00  0.00    -0.217 NA
ATOM     13  H   UNL     1      -1.613  -0.247  -1.967  0.00  0.00    +0.167 HD
BRANCH  11  14
ATOM     14  N   UNL     1      -3.676  -1.980   2.337  0.00  0.00    -0.326 N 
ATOM     15  H   UNL     1      -4.574  -2.347   2.355  0.00  0.00    +0.148 HD
BRANCH  14  16
ATOM     16  C   UNL     1      -2.886  -1.917   3.569  0.00  0.00    +0.072 C 
ATOM     17  C   UNL     1      -1.986  -3.152   3.661  0.00  0.00    +0.022 C 
ATOM     18  C   UNL     1      -1.161  -3.086   4.948  0.00  0.00    +0.002 C 
ATOM     19  C   UNL     1      -2.100  -3.048   6.155  0.00  0.00    +0.000 C 
ATOM     20  C   UNL     1      -3.000  -1.814   6.063  0.00  0.00    +0.002 C 
ATOM     21  C   UNL     1      -3.825  -1.879   4.776  0.00  0.00    +0.022 C 
ENDBRANCH  14  16
ENDBRANCH  11  14
ENDBRANCH   2   3
BRANCH   2  22
ATOM     22  N   UNL     1       0.752  -0.608   1.111  0.00  0.00    -0.290 NA
ATOM     23  C   UNL     1       2.063   0.034   1.273  0.00  0.00    +0.102 C 
ATOM     24  C   UNL     1       2.735  -0.496   2.544  0.00  0.00    +0.125 C 
ATOM     25  N   UNL     1       2.766  -1.965   2.478  0.00  0.00    -0.174 NA
ATOM     26  C   UNL     1       1.513  -2.675   2.182  0.00  0.00    +0.125 C 
ATOM     27  C   UNL     1       0.889  -2.059   0.926  0.00  0.00    +0.102 C 
BRANCH  25  28
ATOM     28  S   UNL     1       4.176  -2.797   2.730  0.00  0.00    +0.061 S 
ATOM     29  O   UNL     1       4.031  -4.049   2.075  0.00  0.00    -0.153 OA
ATOM     30  O   UNL     1       5.236  -1.899   2.432  0.00  0.00    -0.153 OA
BRANCH  28  31
ATOM     31  C   UNL     1       4.277  -3.140   4.455  0.00  0.00    +0.105 A 
ATOM     32  C   UNL     1       4.891  -2.238   5.304  0.00  0.00    +0.029 A 
ATOM     33  C   UNL     1       4.970  -2.508   6.658  0.00  0.00    +0.006 A 
ATOM     34  C   UNL     1       4.435  -3.678   7.162  0.00  0.00    -0.045 A 
ATOM     35  C   UNL     1       3.820  -4.579   6.313  0.00  0.00    +0.006 A 
ATOM     36  C   UNL     1       3.737  -4.308   4.960  0.00  0.00    +0.029 A 
BRANCH  34  37
ATOM     37  C   UNL     1       4.522  -3.972   8.638  0.00  0.00    +0.013 C 
ATOM     38  C   UNL     1       3.112  -4.118   9.213  0.00  0.00    +0.012 C 
ATOM     39  C   UNL     1       5.298  -5.273   8.854  0.00  0.00    +0.012 C 
ENDBRANCH  34  37
ENDBRANCH  28  31
ENDBRANCH  25  28
ENDBRANCH   2  22
TORSDOF 7
