REMARK  Name = ZINC15831206
REMARK  7 active torsions:
REMARK  status: ('A' for Active; 'I' for Inactive)
REMARK    1  A    between atoms: C_1  and  C_2
REMARK    2  A    between atoms: C_4  and  C_34
REMARK    3  A    between atoms: C_9  and  C_13
REMARK    4  A    between atoms: N_15  and  C_16
REMARK    5  A    between atoms: C_17  and  C_24
REMARK    6  A    between atoms: N_26  and  C_27
REMARK    7  A    between atoms: C_27  and  C_28
REMARK                            x       y       z     vdW  Elec       q    Type
REMARK                         _______ _______ _______ _____ _____    ______ ____
ROOT
ATOM      1  C   UNL     1      -4.817   0.903  -0.128  0.00  0.00    +0.085 A 
ATOM      2  C   UNL     1      -6.117   1.380  -0.116  0.00  0.00    +0.069 A 
ATOM      3  C   UNL     1      -7.199   0.397  -0.158  0.00  0.00    -0.023 A 
ATOM      4  C   UNL     1      -6.802  -0.888  -0.195  0.00  0.00    -0.004 A 
ATOM      5  S   UNL     1      -5.027  -0.814  -0.181  0.00  0.00    -0.077 S 
ATOM      6  C   UNL     1      -7.969  -1.838  -0.234  0.00  0.00    +0.043 C 
ATOM      7  C   UNL     1      -9.170  -0.962  -0.653  0.00  0.00    +0.010 C 
ATOM      8  C   UNL     1      -8.728   0.432  -0.165  0.00  0.00    +0.037 C 
ENDROOT
BRANCH   1  11
ATOM      9  C   UNL     1      -2.452   0.980  -0.111  0.00  0.00    +0.284 C 
ATOM     10  O   UNL     1      -2.422  -0.234  -0.147  0.00  0.00    -0.266 OA
ATOM     11  N   UNL     1      -3.636   1.624  -0.099  0.00  0.00    -0.273 N 
ATOM     12  H   UNL     1      -3.660   2.594  -0.070  0.00  0.00    +0.156 HD
BRANCH   9  21
ATOM     13  C   UNL     1       0.696   7.556   0.102  0.00  0.00    +0.044 C 
ATOM     14  C   UNL     1       0.840   6.057   0.057  0.00  0.00    -0.047 A 
ATOM     15  C   UNL     1       2.106   5.489   0.043  0.00  0.00    +0.007 A 
ATOM     16  C   UNL     1       2.254   4.130   0.002  0.00  0.00    -0.036 A 
ATOM     17  C   UNL     1       1.125   3.313  -0.024  0.00  0.00    +0.067 A 
ATOM     18  C   UNL     1       1.242   1.843  -0.068  0.00  0.00    +0.193 A 
ATOM     19  O   UNL     1       2.328   1.290  -0.082  0.00  0.00    -0.287 OA
ATOM     20  C   UNL     1      -0.013   1.078  -0.092  0.00  0.00    +0.103 A 
ATOM     21  C   UNL     1      -1.188   1.752  -0.080  0.00  0.00    +0.194 A 
ATOM     22  O   UNL     1      -1.252   3.091  -0.034  0.00  0.00    -0.450 OA
ATOM     23  C   UNL     1      -0.161   3.880  -0.008  0.00  0.00    +0.140 A 
ATOM     24  C   UNL     1      -0.288   5.265   0.033  0.00  0.00    +0.050 A 
ATOM     25  C   UNL     1       3.632   3.519  -0.015  0.00  0.00    +0.044 C 
ENDBRANCH   9  21
ENDBRANCH   1  11
BRANCH   2  26
ATOM     26  C   UNL     1      -6.399   2.818  -0.068  0.00  0.00    +0.247 C 
ATOM     27  O   UNL     1      -6.513   3.451  -1.101  0.00  0.00    -0.270 OA
ATOM     28  N   UNL     1      -6.532   3.438   1.121  0.00  0.00    -0.309 N 
ATOM     29  H   UNL     1      -6.442   2.934   1.945  0.00  0.00    +0.149 HD
BRANCH  28  30
ATOM     30  C   UNL     1      -6.814   4.875   1.170  0.00  0.00    +0.136 C 
BRANCH  30  31
ATOM     31  C   UNL     1      -6.916   5.326   2.629  0.00  0.00    +0.135 C 
ATOM     32  C   UNL     1      -7.336   6.811   2.705  0.00  0.00    +0.035 C 
ATOM     33  C   UNL     1      -6.531   7.367   3.901  0.00  0.00    +0.031 C 
ATOM     34  C   UNL     1      -5.721   6.153   4.406  0.00  0.00    +0.160 C 
ATOM     35  O   UNL     1      -5.619   5.276   3.263  0.00  0.00    -0.375 OA
ENDBRANCH  30  31
ENDBRANCH  28  30
ENDBRANCH   2  26
TORSDOF 5
