REMARK  Name = ZINC40008934
REMARK  19 active torsions:
REMARK  status: ('A' for Active; 'I' for Inactive)
REMARK    1  A    between atoms: C_1  and  C_2
REMARK    2  A    between atoms: C_2  and  C_3
REMARK    3  A    between atoms: C_3  and  C_4
REMARK    4  A    between atoms: C_4  and  N_5
REMARK    5  A    between atoms: N_5  and  C_6
REMARK    6  A    between atoms: N_5  and  C_10
REMARK    7  A    between atoms: C_6  and  C_7
REMARK    8  A    between atoms: C_7  and  C_8
REMARK    9  A    between atoms: C_8  and  C_9
REMARK   10  A    between atoms: C_10  and  C_11
REMARK   11  A    between atoms: C_11  and  C_12
REMARK   12  A    between atoms: C_12  and  N_13
REMARK   13  A    between atoms: C_14  and  C_31
REMARK   14  A    between atoms: C_21  and  C_30
REMARK   15  A    between atoms: C_22  and  C_29
REMARK   16  A    between atoms: C_34  and  O_39
REMARK   17  A    between atoms: C_35  and  O_37
REMARK   18  A    between atoms: O_37  and  C_38
REMARK   19  A    between atoms: O_39  and  C_40
REMARK                            x       y       z     vdW  Elec       q    Type
REMARK                         _______ _______ _______ _____ _____    ______ ____
ROOT
ATOM      1  N   UNL     1      -4.926  -6.793  -0.267  0.00  0.00    -0.284 N 
ATOM      2  C   UNL     1      -5.696  -7.274   0.892  0.00  0.00    +0.145 C 
ATOM      3  C   UNL     1      -6.934  -7.891   0.330  0.00  0.00    +0.072 A 
ATOM      4  C   UNL     1      -8.072  -8.544   0.986  0.00  0.00    +0.199 A 
ATOM      5  O   UNL     1      -8.247  -8.526   2.192  0.00  0.00    -0.287 OA
ATOM      6  C   UNL     1      -8.990  -9.229   0.041  0.00  0.00    +0.065 A 
ATOM      7  C   UNL     1     -10.004 -10.060   0.518  0.00  0.00    +0.019 A 
ATOM      8  C   UNL     1     -10.838 -10.687  -0.365  0.00  0.00    -0.047 A 
ATOM      9  C   UNL     1     -10.677 -10.500  -1.731  0.00  0.00    -0.044 A 
ATOM     10  C   UNL     1      -9.683  -9.682  -2.219  0.00  0.00    +0.050 A 
ATOM     11  C   UNL     1      -8.821  -9.029  -1.339  0.00  0.00    +0.140 A 
ATOM     12  O   UNL     1      -7.857  -8.222  -1.839  0.00  0.00    -0.450 OA
ATOM     13  C   UNL     1      -6.881  -7.769  -1.029  0.00  0.00    +0.199 A 
ATOM     14  C   UNL     1      -5.626  -7.081  -1.382  0.00  0.00    +0.283 C 
ATOM     15  O   UNL     1      -5.273  -6.815  -2.514  0.00  0.00    -0.267 OA
ATOM     16  C   UNL     1     -11.603 -11.201  -2.692  0.00  0.00    +0.044 C 
ATOM     17  C   UNL     1     -11.934 -11.586   0.146  0.00  0.00    +0.044 C 
ENDROOT
BRANCH   2  18
ATOM     18  C   UNL     1      -6.051  -6.122   1.795  0.00  0.00    -0.019 A 
ATOM     19  C   UNL     1      -6.442  -4.913   1.250  0.00  0.00    +0.009 A 
ATOM     20  C   UNL     1      -6.769  -3.852   2.074  0.00  0.00    +0.050 A 
ATOM     21  C   UNL     1      -6.706  -3.999   3.450  0.00  0.00    +0.162 A 
ATOM     22  C   UNL     1      -6.313  -5.216   3.999  0.00  0.00    +0.162 A 
ATOM     23  C   UNL     1      -5.991  -6.277   3.168  0.00  0.00    +0.055 A 
BRANCH  22  24
ATOM     24  O   UNL     1      -6.249  -5.366   5.350  0.00  0.00    -0.491 OA
ATOM     25  C   UNL     1      -5.838  -6.642   5.843  0.00  0.00    +0.277 C 
ENDBRANCH  22  24
BRANCH  21  26
ATOM     26  O   UNL     1      -7.026  -2.957   4.263  0.00  0.00    -0.491 OA
ATOM     27  C   UNL     1      -7.420  -1.738   3.629  0.00  0.00    +0.277 C 
ENDBRANCH  21  26
ENDBRANCH   2  18
BRANCH   1  28
ATOM     28  C   UNL     1      -3.628  -6.114  -0.216  0.00  0.00    +0.107 C 
BRANCH  28  29
ATOM     29  C   UNL     1      -3.847  -4.604  -0.107  0.00  0.00    +0.000 C 
BRANCH  29  30
ATOM     30  C   UNL     1      -2.492  -3.895  -0.054  0.00  0.00    -0.077 C 
BRANCH  30  31
ATOM     31  N   UNL     1      -2.702  -2.445   0.055  0.00  0.00    +0.380 N 
ATOM     32  H   UNL     1      -1.809  -1.976   0.066  0.00  0.00    -0.082 HD
BRANCH  31  33
ATOM     33  C   UNL     1      -3.487  -1.976  -1.095  0.00  0.00    -0.079 C 
BRANCH  33  34
ATOM     34  C   UNL     1      -3.599  -0.451  -1.047  0.00  0.00    -0.019 C 
BRANCH  34  36
ATOM     35  C   UNL     1      -4.529   1.562  -2.197  0.00  0.00    +0.004 C 
ATOM     36  C   UNL     1      -4.417   0.037  -2.245  0.00  0.00    -0.005 C 
ENDBRANCH  34  36
ENDBRANCH  33  34
ENDBRANCH  31  33
BRANCH  31  37
ATOM     37  C   UNL     1      -3.427  -2.148   1.297  0.00  0.00    -0.079 C 
BRANCH  37  38
ATOM     38  C   UNL     1      -2.559  -2.529   2.498  0.00  0.00    -0.019 C 
BRANCH  38  39
ATOM     39  C   UNL     1      -3.256  -2.095   3.789  0.00  0.00    -0.005 C 
ATOM     40  C   UNL     1      -2.389  -2.477   4.990  0.00  0.00    +0.004 C 
ENDBRANCH  38  39
ENDBRANCH  37  38
ENDBRANCH  31  37
ENDBRANCH  30  31
ENDBRANCH  29  30
ENDBRANCH  28  29
ENDBRANCH   1  28
TORSDOF 13
