REMARK  Name = ZINC13688356
REMARK  8 active torsions:
REMARK  status: ('A' for Active; 'I' for Inactive)
REMARK    1  A    between atoms: C_1  and  C_2
REMARK    2  A    between atoms: C_2  and  C_4
REMARK    3  A    between atoms: C_2  and  O_21
REMARK    4  A    between atoms: C_8  and  C_12
REMARK    5  A    between atoms: C_15  and  C_18
REMARK    6  A    between atoms: C_18  and  C_19
REMARK    7  A    between atoms: C_18  and  C_20
REMARK    8  A    between atoms: O_21  and  C_22
REMARK                            x       y       z     vdW  Elec       q    Type
REMARK                         _______ _______ _______ _____ _____    ______ ____
ROOT
ATOM      1  C   UNL     1      -1.424  -0.753  -0.044  0.00  0.00    +0.259 C 
ATOM      2  O   UNL     1      -1.833  -1.194  -1.098  0.00  0.00    -0.271 OA
ATOM      3  N   UNL     1      -2.231  -0.732   1.035  0.00  0.00    -0.263 N 
ATOM      4  C   UNL     1      -3.534  -1.216   0.941  0.00  0.00    +0.197 A 
ATOM      5  C   UNL     1      -4.519  -1.249   2.028  0.00  0.00    +0.156 A 
ATOM      6  N   UNL     1      -5.625  -1.769   1.563  0.00  0.00    -0.047 NA
ATOM      7  O   UNL     1      -5.414  -2.088   0.199  0.00  0.00    -0.240 OA
ATOM      8  N   UNL     1      -4.089  -1.712  -0.130  0.00  0.00    -0.033 NA
ATOM      9  H   UNL     1      -1.904  -0.380   1.878  0.00  0.00    +0.156 HD
ENDROOT
BRANCH   5  10
ATOM     10  C   UNL     1      -4.298  -0.773   3.416  0.00  0.00    +0.007 A 
ATOM     11  C   UNL     1      -3.048  -0.918   4.014  0.00  0.00    +0.010 A 
ATOM     12  C   UNL     1      -2.848  -0.473   5.305  0.00  0.00    +0.004 A 
ATOM     13  C   UNL     1      -3.886   0.115   6.005  0.00  0.00    -0.045 A 
ATOM     14  C   UNL     1      -5.129   0.261   5.417  0.00  0.00    +0.004 A 
ATOM     15  C   UNL     1      -5.339  -0.175   4.124  0.00  0.00    +0.010 A 
BRANCH  13  16
ATOM     16  C   UNL     1      -3.662   0.598   7.415  0.00  0.00    +0.013 C 
ATOM     17  C   UNL     1      -3.932   2.102   7.488  0.00  0.00    +0.012 C 
ATOM     18  C   UNL     1      -4.611  -0.138   8.363  0.00  0.00    +0.012 C 
ENDBRANCH  13  16
ENDBRANCH   5  10
BRANCH   1  20
ATOM     19  C   UNL     1      -0.048   1.273   0.344  0.00  0.00    +0.062 C 
ATOM     20  C   UNL     1      -0.015  -0.230   0.058  0.00  0.00    +0.256 C 
BRANCH  20  21
ATOM     21  O   UNL     1       0.671  -0.465  -1.174  0.00  0.00    -0.477 OA
BRANCH  21  22
ATOM     22  C   UNL     1       2.026  -0.553  -1.118  0.00  0.00    +0.157 A 
ATOM     23  C   UNL     1       2.691  -0.303   0.073  0.00  0.00    +0.048 A 
ATOM     24  C   UNL     1       4.068  -0.394   0.128  0.00  0.00    +0.004 A 
ATOM     25  C   UNL     1       4.786  -0.732  -1.005  0.00  0.00    +0.003 A 
ATOM     26  C   UNL     1       4.128  -0.981  -2.195  0.00  0.00    +0.042 A 
ATOM     27  C   UNL     1       2.748  -0.899  -2.253  0.00  0.00    +0.165 A 
ATOM     28  F   UNL     1       2.104  -1.148  -3.415  0.00  0.00    -0.202 F 
ENDBRANCH  21  22
ENDBRANCH  20  21
ENDBRANCH   1  20
TORSDOF 5
