REMARK  Name = ZINC63949198
REMARK  9 active torsions:
REMARK  status: ('A' for Active; 'I' for Inactive)
REMARK    1  A    between atoms: C_1  and  C_2
REMARK    2  A    between atoms: C_5  and  C_26
REMARK    3  A    between atoms: C_7  and  N_8
REMARK    4  A    between atoms: C_9  and  C_11
REMARK    5  A    between atoms: C_11  and  S_12
REMARK    6  A    between atoms: S_12  and  C_13
REMARK    7  A    between atoms: N_17  and  C_18
REMARK    8  A    between atoms: C_20  and  C_25
REMARK    9  A    between atoms: C_22  and  C_24
REMARK                            x       y       z     vdW  Elec       q    Type
REMARK                         _______ _______ _______ _____ _____    ______ ____
ROOT
ATOM      1  N   UNL     1       0.025  -0.007   2.417  0.00  0.00    -0.285 N 
ATOM      2  C   UNL     1      -0.057  -0.683   3.581  0.00  0.00    +0.227 C 
ATOM      3  O   UNL     1      -0.040  -1.895   3.580  0.00  0.00    -0.275 OA
ATOM      4  H   UNL     1       0.078   0.961   2.421  0.00  0.00    +0.155 HD
ENDROOT
BRANCH   1  11
ATOM      5  C   UNL     1      -1.264   1.184   0.183  0.00  0.00    +0.045 C 
ATOM      6  C   UNL     1      -0.585  -0.158   0.085  0.00  0.00    -0.029 A 
ATOM      7  C   UNL     1      -0.575  -0.839  -1.118  0.00  0.00    +0.006 A 
ATOM      8  C   UNL     1       0.045  -2.068  -1.215  0.00  0.00    +0.013 A 
ATOM      9  C   UNL     1       0.665  -2.627  -0.096  0.00  0.00    +0.038 A 
ATOM     10  C   UNL     1       0.655  -1.940   1.117  0.00  0.00    +0.036 A 
ATOM     11  C   UNL     1       0.033  -0.704   1.203  0.00  0.00    +0.037 A 
BRANCH   9  12
ATOM     12  C   UNL     1       1.329  -3.944  -0.197  0.00  0.00    +0.242 C 
ATOM     13  O   UNL     1       1.868  -4.429   0.778  0.00  0.00    -0.270 OA
ATOM     14  N   UNL     1       1.337  -4.607  -1.371  0.00  0.00    -0.325 N 
ATOM     15  H   UNL     1       0.907  -4.220  -2.149  0.00  0.00    +0.145 HD
ATOM     16  H   UNL     1       1.773  -5.471  -1.437  0.00  0.00    +0.145 HD
ENDBRANCH   9  12
ENDBRANCH   1  11
BRANCH   2  17
ATOM     17  C   UNL     1      -0.168   0.069   4.882  0.00  0.00    +0.173 C 
BRANCH  17  18
ATOM     18  S   UNL     1      -0.259  -1.111   6.256  0.00  0.00    -0.078 S 
BRANCH  18  19
ATOM     19  C   UNL     1      -0.384  -0.091   7.687  0.00  0.00    +0.174 A 
ATOM     20  N   UNL     1      -0.408   1.222   7.695  0.00  0.00    -0.230 NA
ATOM     21  C   UNL     1      -0.512   1.658   8.962  0.00  0.00    +0.131 A 
ATOM     22  C   UNL     1      -0.554   0.589   9.776  0.00  0.00    +0.113 A 
ATOM     23  N   UNL     1      -0.479  -0.530   8.975  0.00  0.00    -0.295 N 
BRANCH  23  24
ATOM     24  C   UNL     1      -0.493  -1.865   9.403  0.00  0.00    +0.049 A 
ATOM     25  C   UNL     1      -1.353  -2.777   8.806  0.00  0.00    +0.029 A 
ATOM     26  C   UNL     1      -1.366  -4.092   9.230  0.00  0.00    -0.048 A 
ATOM     27  C   UNL     1      -0.523  -4.500  10.247  0.00  0.00    +0.006 A 
ATOM     28  C   UNL     1       0.335  -3.594  10.843  0.00  0.00    -0.048 A 
ATOM     29  C   UNL     1       0.356  -2.279  10.420  0.00  0.00    +0.029 A 
ATOM     30  C   UNL     1       1.252  -4.042  11.952  0.00  0.00    +0.044 C 
ATOM     31  C   UNL     1      -2.299  -5.082   8.583  0.00  0.00    +0.044 C 
ENDBRANCH  23  24
ENDBRANCH  18  19
ENDBRANCH  17  18
ENDBRANCH   2  17
TORSDOF 6
