REMARK  Name = ZINC41006864
REMARK  10 active torsions:
REMARK  status: ('A' for Active; 'I' for Inactive)
REMARK    1  A    between atoms: C_1  and  C_2
REMARK    2  A    between atoms: C_2  and  O_40
REMARK    3  A    between atoms: C_6  and  C_31
REMARK    4  A    between atoms: C_8  and  C_21
REMARK    5  A    between atoms: C_10  and  C_12
REMARK    6  A    between atoms: N_14  and  C_15
REMARK    7  A    between atoms: C_24  and  C_27
REMARK    8  A    between atoms: C_27  and  O_29
REMARK    9  A    between atoms: O_29  and  C_30
REMARK   10  A    between atoms: N_33  and  C_34
REMARK                            x       y       z     vdW  Elec       q    Type
REMARK                         _______ _______ _______ _____ _____    ______ ____
ROOT
ATOM      1  C   UNL     1       1.074   1.933  -0.459  0.00  0.00    +0.042 C 
ATOM      2  C   UNL     1       0.590   0.481  -0.434  0.00  0.00    +0.082 C 
ATOM      3  C   UNL     1      -0.940   0.454  -0.351  0.00  0.00    +0.110 C 
ATOM      4  C   UNL     1      -1.387  -0.983  -0.194  0.00  0.00    +0.148 C 
ATOM      5  O   UNL     1      -2.229  -1.452  -0.920  0.00  0.00    -0.296 OA
ATOM      6  C   UNL     1      -0.751  -1.816   0.897  0.00  0.00    +0.149 C 
ATOM      7  C   UNL     1       0.772  -1.706   0.768  0.00  0.00    +0.053 C 
ATOM      8  C   UNL     1       1.178  -0.232   0.784  0.00  0.00    +0.115 C 
ENDROOT
BRANCH   7   9
ATOM      9  C   UNL     1       1.427  -2.421   1.923  0.00  0.00    -0.042 A 
ATOM     10  C   UNL     1       0.864  -2.351   3.184  0.00  0.00    +0.005 A 
ATOM     11  C   UNL     1       1.458  -3.002   4.245  0.00  0.00    +0.015 A 
ATOM     12  C   UNL     1       2.630  -3.733   4.044  0.00  0.00    +0.059 A 
ATOM     13  C   UNL     1       3.193  -3.800   2.768  0.00  0.00    +0.015 A 
ATOM     14  C   UNL     1       2.585  -3.148   1.714  0.00  0.00    +0.005 A 
BRANCH  12  15
ATOM     15  C   UNL     1       3.272  -4.433   5.175  0.00  0.00    +0.339 C 
ATOM     16  O   UNL     1       2.780  -4.373   6.284  0.00  0.00    -0.245 OA
BRANCH  15  17
ATOM     17  O   UNL     1       4.403  -5.138   4.977  0.00  0.00    -0.464 OA
ATOM     18  C   UNL     1       4.969  -5.790   6.116  0.00  0.00    +0.280 C 
ENDBRANCH  15  17
ENDBRANCH  12  15
ENDBRANCH   7   9
BRANCH   8  19
ATOM     19  C   UNL     1       0.661   0.417   2.042  0.00  0.00    +0.224 C 
ATOM     20  O   UNL     1      -0.534   0.518   2.225  0.00  0.00    -0.275 OA
ATOM     21  N   UNL     1       1.525   0.885   2.964  0.00  0.00    -0.285 N 
ATOM     22  H   UNL     1       2.475   0.712   2.870  0.00  0.00    +0.155 HD
BRANCH  21  23
ATOM     23  C   UNL     1       1.053   1.620   4.057  0.00  0.00    +0.033 A 
ATOM     24  C   UNL     1      -0.234   1.409   4.534  0.00  0.00    +0.023 A 
ATOM     25  C   UNL     1      -0.697   2.136   5.612  0.00  0.00    +0.002 A 
ATOM     26  C   UNL     1       0.119   3.074   6.218  0.00  0.00    +0.000 A 
ATOM     27  C   UNL     1       1.401   3.287   5.745  0.00  0.00    +0.002 A 
ATOM     28  C   UNL     1       1.872   2.559   4.670  0.00  0.00    +0.023 A 
ENDBRANCH  21  23
ENDBRANCH   8  19
BRANCH   6  29
ATOM     29  C   UNL     1      -1.173  -3.255   0.745  0.00  0.00    +0.228 C 
ATOM     30  O   UNL     1      -0.338  -4.117   0.568  0.00  0.00    -0.275 OA
ATOM     31  N   UNL     1      -2.478  -3.584   0.806  0.00  0.00    -0.285 N 
ATOM     32  H   UNL     1      -3.153  -2.888   0.834  0.00  0.00    +0.155 HD
BRANCH  31  33
ATOM     33  C   UNL     1      -2.860  -4.930   0.830  0.00  0.00    +0.033 A 
ATOM     34  C   UNL     1      -4.066  -5.322   0.264  0.00  0.00    +0.023 A 
ATOM     35  C   UNL     1      -4.440  -6.651   0.288  0.00  0.00    +0.002 A 
ATOM     36  C   UNL     1      -3.615  -7.592   0.876  0.00  0.00    +0.000 A 
ATOM     37  C   UNL     1      -2.413  -7.205   1.442  0.00  0.00    +0.002 A 
ATOM     38  C   UNL     1      -2.031  -5.878   1.415  0.00  0.00    +0.023 A 
ENDBRANCH  31  33
ENDBRANCH   6  29
BRANCH   2  39
ATOM     39  O   UNL     1       1.015  -0.183  -1.626  0.00  0.00    -0.388 OA
ATOM     40  H   UNL     1       0.678   0.216  -2.440  0.00  0.00    +0.210 HD
ENDBRANCH   2  39
TORSDOF 8
