REMARK  Name = ZINC32763096
REMARK  11 active torsions:
REMARK  status: ('A' for Active; 'I' for Inactive)
REMARK    1  A    between atoms: C_1  and  C_2
REMARK    2  A    between atoms: C_2  and  C_3
REMARK    3  A    between atoms: C_2  and  C_4
REMARK    4  A    between atoms: C_2  and  N_5
REMARK    5  A    between atoms: N_5  and  S_6
REMARK    6  A    between atoms: S_6  and  C_9
REMARK    7  A    between atoms: C_12  and  C_14
REMARK    8  A    between atoms: N_16  and  C_17
REMARK    9  A    between atoms: C_17  and  C_18
REMARK   10  A    between atoms: C_18  and  C_20
REMARK   11  A    between atoms: C_18  and  N_25
REMARK                            x       y       z     vdW  Elec       q    Type
REMARK                         _______ _______ _______ _____ _____    ______ ____
ROOT
ATOM      1  C   UNL     1      -2.527   2.752   0.564  0.00  0.00    +0.279 C 
ATOM      2  O   UNL     1      -2.219   1.579   0.454  0.00  0.00    -0.267 OA
ATOM      3  N   UNL     1      -3.823   3.116   0.505  0.00  0.00    -0.310 N 
ATOM      4  H   UNL     1      -4.102   4.175   0.605  0.00  0.00    +0.149 HD
ENDROOT
BRANCH   1   8
ATOM      5  C   UNL     1      -0.514   5.712   1.053  0.00  0.00    +0.258 A 
ATOM      6  C   UNL     1       0.470   4.785   1.021  0.00  0.00    +0.072 A 
ATOM      7  C   UNL     1      -0.144   3.537   0.838  0.00  0.00    +0.057 A 
ATOM      8  C   UNL     1      -1.488   3.768   0.760  0.00  0.00    +0.192 A 
ATOM      9  O   UNL     1      -1.692   5.094   0.899  0.00  0.00    -0.432 OA
BRANCH   5  10
ATOM     10  S   UNL     1      -0.284   7.446   1.263  0.00  0.00    +0.092 S 
ATOM     11  O   UNL     1      -1.548   7.981   1.629  0.00  0.00    -0.150 OA
ATOM     12  O   UNL     1       0.875   7.607   2.070  0.00  0.00    -0.150 OA
BRANCH  10  13
ATOM     13  N   UNL     1       0.083   8.075  -0.224  0.00  0.00    -0.182 NA
ATOM     14  H   UNL     1       1.127   8.338  -0.454  0.00  0.00    +0.149 HD
BRANCH  13  16
ATOM     15  C   UNL     1      -2.063   9.024  -0.913  0.00  0.00    +0.029 C 
ATOM     16  C   UNL     1      -0.923   8.075  -1.289  0.00  0.00    +0.032 C 
ATOM     17  C   UNL     1      -0.282   8.540  -2.597  0.00  0.00    +0.029 C 
ATOM     18  C   UNL     1      -1.476   6.659  -1.467  0.00  0.00    +0.029 C 
ENDBRANCH  13  16
ENDBRANCH  10  13
ENDBRANCH   5  10
ENDBRANCH   1   8
BRANCH   3  19
ATOM     19  C   UNL     1      -4.861   2.101   0.309  0.00  0.00    +0.094 C 
BRANCH  19  20
ATOM     20  C   UNL     1      -6.215   2.787   0.114  0.00  0.00    -0.013 C 
BRANCH  20  21
ATOM     21  N   UNL     1      -6.170   3.624  -1.092  0.00  0.00    +0.386 N 
ATOM     22  C   UNL     1      -7.526   4.117  -1.449  0.00  0.00    -0.078 C 
ATOM     23  C   UNL     1      -7.231   5.341  -2.351  0.00  0.00    -0.020 C 
ATOM     24  C   UNL     1      -5.987   5.972  -1.684  0.00  0.00    -0.020 C 
ATOM     25  C   UNL     1      -5.348   4.832  -0.869  0.00  0.00    -0.078 C 
ATOM     26  H   UNL     1      -5.746   2.988  -1.883  0.00  0.00    -0.081 HD
ENDBRANCH  20  21
BRANCH  20  27
ATOM     27  C   UNL     1      -7.290   1.742  -0.039  0.00  0.00    -0.022 A 
ATOM     28  C   UNL     1      -8.258   1.378   0.837  0.00  0.00    +0.009 A 
ATOM     29  C   UNL     1      -9.149   0.385   0.477  0.00  0.00    +0.008 A 
ATOM     30  C   UNL     1      -9.023  -0.203  -0.737  0.00  0.00    +0.045 A 
ATOM     31  S   UNL     1      -7.614   0.656  -1.419  0.00  0.00    -0.103 S 
ENDBRANCH  20  27
ENDBRANCH  19  20
ENDBRANCH   3  19
TORSDOF 8
