REMARK  Name = ZINC65182504
REMARK  10 active torsions:
REMARK  status: ('A' for Active; 'I' for Inactive)
REMARK    1  A    between atoms: C_1  and  C_2
REMARK    2  A    between atoms: C_2  and  C_3
REMARK    3  A    between atoms: C_6  and  C_34
REMARK    4  A    between atoms: C_11  and  C_13
REMARK    5  A    between atoms: C_16  and  C_19
REMARK    6  A    between atoms: C_19  and  C_20
REMARK    7  A    between atoms: C_20  and  N_21
REMARK    8  A    between atoms: N_21  and  C_22
REMARK    9  A    between atoms: C_23  and  C_25
REMARK   10  A    between atoms: C_25  and  C_28
REMARK                            x       y       z     vdW  Elec       q    Type
REMARK                         _______ _______ _______ _____ _____    ______ ____
ROOT
ATOM      1  C   UNL     1      -1.210  -3.542  -1.225  0.00  0.00    +0.318 C 
ATOM      2  N   UNL     1      -1.445  -4.974  -0.980  0.00  0.00    -0.291 N 
ATOM      3  C   UNL     1      -0.245  -5.511  -0.574  0.00  0.00    +0.139 C 
ATOM      4  N   UNL     1       0.679  -4.622  -0.535  0.00  0.00    -0.072 NA
ATOM      5  O   UNL     1       0.182  -3.352  -0.923  0.00  0.00    -0.367 OA
ATOM      6  H   UNL     1      -2.284  -5.449  -1.085  0.00  0.00    +0.151 HD
ENDROOT
BRANCH   1  15
ATOM      7  C   UNL     1      -1.207  -1.733  -2.942  0.00  0.00    -0.033 C 
ATOM      8  C   UNL     1      -2.376  -1.188  -3.348  0.00  0.00    -0.000 A 
ATOM      9  C   UNL     1      -2.754   0.174  -3.745  0.00  0.00    +0.013 A 
ATOM     10  C   UNL     1      -4.033   0.420  -4.109  0.00  0.00    -0.050 A 
ATOM     11  C   UNL     1      -5.004  -0.590  -4.116  0.00  0.00    +0.005 A 
ATOM     12  C   UNL     1      -4.734  -1.865  -3.764  0.00  0.00    +0.026 A 
ATOM     13  C   UNL     1      -3.421  -2.237  -3.364  0.00  0.00    +0.043 A 
ATOM     14  N   UNL     1      -2.917  -3.385  -2.984  0.00  0.00    -0.373 N 
ATOM     15  C   UNL     1      -1.492  -3.196  -2.688  0.00  0.00    +0.169 C 
ATOM     16  C   UNL     1      -4.423   1.817  -4.517  0.00  0.00    +0.044 C 
ATOM     17  H   UNL     1      -3.403  -4.221  -2.913  0.00  0.00    +0.160 HD
BRANCH   7  19
ATOM     18  C   UNL     1      -0.049   0.450  -3.146  0.00  0.00    +0.008 C 
ATOM     19  C   UNL     1       0.115  -1.027  -2.782  0.00  0.00    +0.030 C 
ENDBRANCH   7  19
ENDBRANCH   1  15
BRANCH   3  20
ATOM     20  C   UNL     1      -0.042  -6.961  -0.218  0.00  0.00    +0.094 C 
BRANCH  20  21
ATOM     21  C   UNL     1       1.416  -7.188   0.187  0.00  0.00    +0.115 C 
BRANCH  21  22
ATOM     22  N   UNL     1       1.613  -8.598   0.533  0.00  0.00    -0.303 N 
ATOM     23  C   UNL     1       2.007  -9.557  -0.502  0.00  0.00    +0.132 C 
ATOM     24  C   UNL     1       1.432  -9.011   1.802  0.00  0.00    +0.226 C 
ATOM     25  O   UNL     1       1.019  -8.237   2.640  0.00  0.00    -0.275 OA
BRANCH  24  26
ATOM     26  C   UNL     1       1.744 -10.436   2.182  0.00  0.00    +0.072 C 
ATOM     27  C   UNL     1       2.692 -10.662   3.362  0.00  0.00    +0.022 C 
ATOM     28  C   UNL     1       3.168 -10.938   1.934  0.00  0.00    +0.022 C 
BRANCH  26  29
ATOM     29  C   UNL     1       0.617 -11.419   1.996  0.00  0.00    -0.032 A 
ATOM     30  C   UNL     1       0.772 -12.495   1.143  0.00  0.00    +0.004 A 
ATOM     31  C   UNL     1      -0.261 -13.397   0.972  0.00  0.00    +0.000 A 
ATOM     32  C   UNL     1      -1.450 -13.224   1.656  0.00  0.00    +0.000 A 
ATOM     33  C   UNL     1      -1.605 -12.148   2.510  0.00  0.00    +0.000 A 
ATOM     34  C   UNL     1      -0.570 -11.249   2.684  0.00  0.00    +0.004 A 
ENDBRANCH  26  29
ENDBRANCH  24  26
ENDBRANCH  21  22
ENDBRANCH  20  21
ENDBRANCH   3  20
TORSDOF 7
