REMARK  Name = ZINC12455884
REMARK  12 active torsions:
REMARK  status: ('A' for Active; 'I' for Inactive)
REMARK    1  A    between atoms: C_1  and  C_2
REMARK    2  A    between atoms: C_9  and  O_13
REMARK    3  A    between atoms: O_13  and  C_14
REMARK    4  A    between atoms: C_15  and  C_16
REMARK    5  A    between atoms: C_15  and  N_60
REMARK    6  A    between atoms: N_18  and  C_19
REMARK    7  A    between atoms: C_19  and  C_20
REMARK    8  A    between atoms: C_20  and  C_21
REMARK    9  A    between atoms: C_24  and  O_29
REMARK   10  A    between atoms: C_25  and  O_27
REMARK   11  A    between atoms: O_27  and  C_28
REMARK   12  A    between atoms: O_29  and  C_30
REMARK                            x       y       z     vdW  Elec       q    Type
REMARK                         _______ _______ _______ _____ _____    ______ ____
ROOT
ATOM      1  C   UNL     1      -2.594   1.279  -2.734  0.00  0.00    +0.019 C 
ENDROOT
BRANCH   1  13
ATOM      2  C   UNL     1       1.425   1.609  -0.003  0.00  0.00    +0.050 C 
ATOM      3  C   UNL     1      -0.013   1.086   0.008  0.00  0.00    +0.154 C 
ATOM      4  C   UNL     1      -0.733   1.581  -1.228  0.00  0.00    -0.033 C 
ATOM      5  C   UNL     1      -3.008   1.535  -0.364  0.00  0.00    -0.038 C 
ATOM      6  C   UNL     1      -2.866   0.689   0.887  0.00  0.00    -0.022 A 
ATOM      7  C   UNL     1      -3.905  -0.124   1.293  0.00  0.00    +0.009 A 
ATOM      8  C   UNL     1      -3.787  -0.854   2.462  0.00  0.00    +0.046 A 
ATOM      9  C   UNL     1      -2.629  -0.769   3.221  0.00  0.00    +0.124 A 
ATOM     10  C   UNL     1      -1.582   0.040   2.804  0.00  0.00    +0.091 A 
ATOM     11  C   UNL     1      -1.701   0.763   1.627  0.00  0.00    +0.126 A 
ATOM     12  O   UNL     1      -0.672   1.542   1.196  0.00  0.00    -0.491 OA
ATOM     13  N   UNL     1      -2.080   0.994  -1.385  0.00  0.00    +0.391 N 
ATOM     14  H   UNL     1      -2.013  -0.023  -1.264  0.00  0.00    -0.081 HD
BRANCH   9  15
ATOM     15  O   UNL     1      -2.519  -1.479   4.375  0.00  0.00    -0.495 OA
ATOM     16  C   UNL     1      -3.635  -2.292   4.745  0.00  0.00    +0.277 C 
ENDBRANCH   9  15
ENDBRANCH   1  13
BRANCH   1  17
ATOM     17  C   UNL     1      -3.839   0.458  -2.953  0.00  0.00    +0.196 C 
ATOM     18  O   UNL     1      -4.255  -0.260  -2.068  0.00  0.00    -0.278 OA
ATOM     19  N   UNL     1      -4.491   0.522  -4.131  0.00  0.00    -0.317 N 
ATOM     20  H   UNL     1      -4.158   1.097  -4.838  0.00  0.00    +0.149 HD
BRANCH  19  21
ATOM     21  C   UNL     1      -5.701  -0.276  -4.343  0.00  0.00    +0.109 C 
BRANCH  21  22
ATOM     22  C   UNL     1      -6.239  -0.020  -5.752  0.00  0.00    +0.054 C 
BRANCH  22  23
ATOM     23  C   UNL     1      -7.484  -0.841  -5.970  0.00  0.00    -0.042 A 
ATOM     24  C   UNL     1      -7.387  -2.117  -6.494  0.00  0.00    +0.007 A 
ATOM     25  C   UNL     1      -8.525  -2.876  -6.691  0.00  0.00    +0.049 A 
ATOM     26  C   UNL     1      -9.769  -2.354  -6.373  0.00  0.00    +0.161 A 
ATOM     27  C   UNL     1      -9.868  -1.068  -5.851  0.00  0.00    +0.162 A 
ATOM     28  C   UNL     1      -8.722  -0.315  -5.651  0.00  0.00    +0.053 A 
BRANCH  27  29
ATOM     29  O   UNL     1     -11.086  -0.551  -5.537  0.00  0.00    -0.491 OA
ATOM     30  C   UNL     1     -11.112   0.774  -5.006  0.00  0.00    +0.277 C 
ENDBRANCH  27  29
BRANCH  26  31
ATOM     31  O   UNL     1     -10.890  -3.097  -6.572  0.00  0.00    -0.491 OA
ATOM     32  C   UNL     1     -10.713  -4.409  -7.111  0.00  0.00    +0.277 C 
ENDBRANCH  26  31
ENDBRANCH  22  23
ENDBRANCH  21  22
ENDBRANCH  19  21
ENDBRANCH   1  17
TORSDOF 8
