REMARK  Name = ZINC03563573
REMARK  3 active torsions:
REMARK  status: ('A' for Active; 'I' for Inactive)
REMARK    1  A    between atoms: N_12  and  C_16
REMARK    2  A    between atoms: C_16  and  C_17
REMARK    3  A    between atoms: N_19  and  C_20
REMARK                            x       y       z     vdW  Elec       q    Type
REMARK                         _______ _______ _______ _____ _____    ______ ____
ROOT
ATOM      1  C   UNL     1       2.375   1.425  -0.013  0.00  0.00    +0.000 A 
ATOM      2  C   UNL     1       1.165   2.094   0.002  0.00  0.00    +0.000 A 
ATOM      3  C   UNL     1      -0.017   1.381   0.010  0.00  0.00    +0.006 A 
ATOM      4  C   UNL     1       0.002  -0.004   0.002  0.00  0.00    -0.012 A 
ATOM      5  C   UNL     1       1.214  -0.673  -0.014  0.00  0.00    -0.042 A 
ATOM      6  C   UNL     1       2.398   0.045  -0.021  0.00  0.00    +0.004 A 
ATOM      7  C   UNL     1       0.974  -2.169  -0.023  0.00  0.00    +0.038 C 
ATOM      8  C   UNL     1      -0.496  -2.346   0.418  0.00  0.00    +0.045 C 
ATOM      9  C   UNL     1      -1.120  -1.006   0.010  0.00  0.00    +0.138 C 
ATOM     10  C   UNL     1      -2.219  -0.604   0.959  0.00  0.00    +0.251 C 
ATOM     11  O   UNL     1      -2.127  -0.411   2.152  0.00  0.00    -0.272 OA
ATOM     12  N   UNL     1      -3.329  -0.503   0.195  0.00  0.00    -0.215 N 
ATOM     13  C   UNL     1      -3.071  -0.786  -1.089  0.00  0.00    +0.310 C 
ATOM     14  O   UNL     1      -3.909  -0.764  -1.968  0.00  0.00    -0.252 OA
ATOM     15  N   UNL     1      -1.775  -1.099  -1.295  0.00  0.00    -0.281 N 
ATOM     16  H   UNL     1      -1.361  -1.336  -2.139  0.00  0.00    +0.152 HD
ENDROOT
BRANCH  12  17
ATOM     17  C   UNL     1      -4.650  -0.130   0.706  0.00  0.00    +0.213 C 
BRANCH  17  18
ATOM     18  C   UNL     1      -4.811   1.367   0.637  0.00  0.00    +0.231 C 
ATOM     19  O   UNL     1      -3.911   2.054   0.204  0.00  0.00    -0.274 OA
ATOM     20  N   UNL     1      -5.955   1.942   1.058  0.00  0.00    -0.311 N 
ATOM     21  H   UNL     1      -6.675   1.392   1.405  0.00  0.00    +0.149 HD
BRANCH  20  22
ATOM     22  C   UNL     1      -6.112   3.397   0.991  0.00  0.00    +0.073 C 
ATOM     23  C   UNL     1      -6.731   4.097   2.202  0.00  0.00    +0.024 C 
ATOM     24  C   UNL     1      -7.535   3.951   0.908  0.00  0.00    +0.024 C 
ENDBRANCH  20  22
ENDBRANCH  17  18
ENDBRANCH  12  17
TORSDOF 3
