REMARK  Name = ZINC28129888
REMARK  8 active torsions:
REMARK  status: ('A' for Active; 'I' for Inactive)
REMARK    1  A    between atoms: C_1  and  C_2
REMARK    2  A    between atoms: C_2  and  C_4
REMARK    3  A    between atoms: C_2  and  O_19
REMARK    4  A    between atoms: C_6  and  C_9
REMARK    5  A    between atoms: C_13  and  C_15
REMARK    6  A    between atoms: O_19  and  C_20
REMARK    7  A    between atoms: C_20  and  C_22
REMARK    8  A    between atoms: C_25  and  O_28
REMARK                            x       y       z     vdW  Elec       q    Type
REMARK                         _______ _______ _______ _____ _____    ______ ____
ROOT
ATOM      1  C   UNL     1       0.731  -0.503   1.223  0.00  0.00    +0.268 A 
ATOM      2  N   UNL     1       1.937  -0.994   1.242  0.00  0.00    -0.188 NA
ATOM      3  C   UNL     1       2.274  -1.340   2.497  0.00  0.00    +0.202 A 
ATOM      4  N   UNL     1       1.269  -1.067   3.291  0.00  0.00    -0.056 NA
ATOM      5  O   UNL     1       0.250  -0.512   2.473  0.00  0.00    -0.334 OA
ENDROOT
BRANCH   3   6
ATOM      6  C   UNL     1       3.570  -1.934   2.913  0.00  0.00    +0.023 A 
ATOM      7  C   UNL     1       4.565  -2.173   1.968  0.00  0.00    +0.012 A 
ATOM      8  C   UNL     1       5.767  -2.725   2.360  0.00  0.00    +0.001 A 
ATOM      9  C   UNL     1       5.985  -3.041   3.689  0.00  0.00    +0.012 A 
ATOM     10  C   UNL     1       5.000  -2.807   4.631  0.00  0.00    +0.055 A 
ATOM     11  C   UNL     1       3.796  -2.249   4.251  0.00  0.00    +0.024 A 
BRANCH  10  12
ATOM     12  C   UNL     1       5.245  -3.154   6.077  0.00  0.00    +0.417 C 
ATOM     13  F   UNL     1       6.527  -3.696   6.216  0.00  0.00    -0.166 F 
ATOM     14  F   UNL     1       5.139  -1.999   6.859  0.00  0.00    -0.166 F 
ATOM     15  F   UNL     1       4.295  -4.091   6.499  0.00  0.00    -0.166 F 
ENDBRANCH  10  12
ENDBRANCH   3   6
BRANCH   1  17
ATOM     16  C   UNL     1      -0.019   1.526   0.010  0.00  0.00    +0.062 C 
ATOM     17  C   UNL     1       0.002  -0.004   0.002  0.00  0.00    +0.262 C 
BRANCH  17  18
ATOM     18  O   UNL     1      -1.339  -0.499   0.012  0.00  0.00    -0.448 OA
BRANCH  18  19
ATOM     19  C   UNL     1      -1.924  -0.704  -1.184  0.00  0.00    +0.340 C 
ATOM     20  O   UNL     1      -1.313  -0.469  -2.208  0.00  0.00    -0.245 OA
BRANCH  19  21
ATOM     21  C   UNL     1      -3.306  -1.213  -1.251  0.00  0.00    +0.059 A 
ATOM     22  C   UNL     1      -4.013  -1.478  -0.074  0.00  0.00    +0.018 A 
ATOM     23  C   UNL     1      -5.304  -1.953  -0.141  0.00  0.00    +0.046 A 
ATOM     24  C   UNL     1      -5.904  -2.170  -1.376  0.00  0.00    +0.117 A 
ATOM     25  C   UNL     1      -5.204  -1.908  -2.549  0.00  0.00    +0.046 A 
ATOM     26  C   UNL     1      -3.915  -1.427  -2.491  0.00  0.00    +0.018 A 
BRANCH  24  27
ATOM     27  O   UNL     1      -7.176  -2.639  -1.438  0.00  0.00    -0.507 OA
ATOM     28  H   UNL     1      -7.850  -1.946  -1.452  0.00  0.00    +0.292 HD
ENDBRANCH  24  27
ENDBRANCH  19  21
ENDBRANCH  18  19
ENDBRANCH  17  18
ENDBRANCH   1  17
TORSDOF 7
