REMARK  Name = ZINC40145572
REMARK  7 active torsions:
REMARK  status: ('A' for Active; 'I' for Inactive)
REMARK    1  A    between atoms: C_1  and  C_2
REMARK    2  A    between atoms: C_2  and  C_3
REMARK    3  A    between atoms: N_15  and  C_16
REMARK    4  A    between atoms: C_16  and  C_17
REMARK    5  A    between atoms: C_22  and  N_23
REMARK    6  A    between atoms: N_23  and  C_24
REMARK    7  A    between atoms: N_23  and  C_25
REMARK                            x       y       z     vdW  Elec       q    Type
REMARK                         _______ _______ _______ _____ _____    ______ ____
ROOT
ATOM      1  C   UNL     1       0.837  -0.761  -1.518  0.00  0.00    +0.108 C 
ATOM      2  C   UNL     1       0.810  -2.268  -1.764  0.00  0.00    -0.017 A 
ATOM      3  C   UNL     1      -0.341  -2.961  -2.135  0.00  0.00    +0.013 A 
ATOM      4  C   UNL     1      -0.292  -4.298  -2.332  0.00  0.00    +0.046 A 
ATOM      5  S   UNL     1       1.426  -4.657  -1.995  0.00  0.00    -0.101 S 
ATOM      6  C   UNL     1       1.946  -3.003  -1.621  0.00  0.00    -0.004 A 
ATOM      7  C   UNL     1       3.310  -2.523  -1.244  0.00  0.00    +0.062 C 
ATOM      8  C   UNL     1       3.186  -1.117  -0.637  0.00  0.00    +0.115 C 
ATOM      9  N   UNL     1       2.243  -0.340  -1.457  0.00  0.00    -0.278 N 
ATOM     10  C   UNL     1       2.663   0.741  -2.144  0.00  0.00    +0.303 C 
ATOM     11  O   UNL     1       1.900   1.321  -2.892  0.00  0.00    -0.253 OA
ATOM     12  N   UNL     1       3.930   1.180  -2.001  0.00  0.00    -0.295 N 
ATOM     13  H   UNL     1       4.560   0.676  -1.462  0.00  0.00    +0.151 HD
ENDROOT
BRANCH   1  15
ATOM     14  C   UNL     1       0.080   1.078  -0.006  0.00  0.00    +0.006 C 
ATOM     15  C   UNL     1       0.142  -0.439  -0.194  0.00  0.00    +0.024 C 
ENDBRANCH   1  15
BRANCH  12  16
ATOM     16  C   UNL     1       4.355   2.417  -2.661  0.00  0.00    +0.144 C 
BRANCH  16  17
ATOM     17  C   UNL     1       5.804   2.683  -2.344  0.00  0.00    +0.008 A 
ATOM     18  C   UNL     1       6.153   3.619  -1.386  0.00  0.00    +0.010 A 
ATOM     19  C   UNL     1       7.500   3.831  -1.127  0.00  0.00    +0.018 A 
ATOM     20  C   UNL     1       8.445   3.108  -1.826  0.00  0.00    +0.084 A 
ATOM     21  N   UNL     1       8.084   2.221  -2.734  0.00  0.00    -0.349 N 
ATOM     22  C   UNL     1       6.810   1.986  -3.006  0.00  0.00    +0.103 A 
ATOM     23  H   UNL     1       8.769   1.727  -3.212  0.00  0.00    +0.167 HD
BRANCH  22  24
ATOM     24  N   UNL     1       6.474   1.039  -3.966  0.00  0.00    -0.323 N 
ATOM     25  C   UNL     1       6.227   1.453  -5.349  0.00  0.00    +0.130 C 
ATOM     26  C   UNL     1       6.367  -0.374  -3.595  0.00  0.00    +0.130 C 
ENDBRANCH  22  24
ENDBRANCH  16  17
ENDBRANCH  12  16
TORSDOF 4
