REMARK  Name = ZINC38773897
REMARK  4 active torsions:
REMARK  status: ('A' for Active; 'I' for Inactive)
REMARK    1  A    between atoms: C_5  and  C_7
REMARK    2  A    between atoms: C_10  and  C_14
REMARK    3  A    between atoms: C_14  and  C_15
REMARK    4  A    between atoms: N_17  and  C_18
REMARK                            x       y       z     vdW  Elec       q    Type
REMARK                         _______ _______ _______ _____ _____    ______ ____
ROOT
ATOM      1  C   UNL     1      -1.661  -4.502   0.390  0.00  0.00    +0.115 C 
ENDROOT
BRANCH   1   4
ATOM      2  C   UNL     1       1.322  -2.338  -0.314  0.00  0.00    +0.146 C 
ATOM      3  N   UNL     1      -0.067  -2.837  -0.414  0.00  0.00    -0.297 NA
ATOM      4  C   UNL     1      -0.609  -3.466   0.792  0.00  0.00    +0.073 C 
ATOM      5  C   UNL     1       0.518  -4.170   1.603  0.00  0.00    +0.090 C 
ATOM      6  S   UNL     1       1.862  -2.920   1.349  0.00  0.00    -0.136 S 
ATOM      7  H   UNL     1      -0.686  -2.118  -0.757  0.00  0.00    +0.124 HD
BRANCH   2  12
ATOM      8  C   UNL     1       0.348   1.288   0.091  0.00  0.00    +0.001 A 
ATOM      9  C   UNL     1       1.408   1.930  -0.521  0.00  0.00    +0.003 A 
ATOM     10  C   UNL     1       2.441   1.192  -1.067  0.00  0.00    +0.039 A 
ATOM     11  C   UNL     1       2.415  -0.191  -1.000  0.00  0.00    +0.129 A 
ATOM     12  C   UNL     1       1.353  -0.833  -0.387  0.00  0.00    +0.015 A 
ATOM     13  C   UNL     1       0.320  -0.093   0.158  0.00  0.00    +0.009 A 
ATOM     14  F   UNL     1       3.424  -0.913  -1.533  0.00  0.00    -0.205 F 
ENDBRANCH   2  12
ENDBRANCH   1   4
BRANCH   1  15
ATOM     15  C   UNL     1      -2.844  -3.803  -0.228  0.00  0.00    +0.219 C 
ATOM     16  O   UNL     1      -2.847  -2.595  -0.336  0.00  0.00    -0.275 OA
ATOM     17  N   UNL     1      -3.901  -4.521  -0.660  0.00  0.00    -0.286 N 
ATOM     18  H   UNL     1      -3.931  -5.478  -0.508  0.00  0.00    +0.155 HD
BRANCH  17  19
ATOM     19  C   UNL     1      -4.953  -3.884  -1.328  0.00  0.00    +0.032 C 
ATOM     20  C   UNL     1      -6.199  -4.022  -0.843  0.00  0.00    +0.027 C 
ATOM     21  C   UNL     1      -7.341  -3.389  -1.581  0.00  0.00    +0.160 C 
ATOM     22  C   UNL     1      -6.797  -2.184  -2.325  0.00  0.00    -0.018 C 
ATOM     23  C   UNL     1      -7.635  -1.174  -2.033  0.00  0.00    +0.025 C 
ATOM     24  C   UNL     1      -8.556  -1.598  -1.049  0.00  0.00    +0.106 C 
ATOM     25  N   UNL     1      -8.399  -2.854  -0.736  0.00  0.00    -0.279 NA
ATOM     26  C   UNL     1      -5.569  -2.213  -3.014  0.00  0.00    +0.008 C 
ATOM     27  C   UNL     1      -4.648  -3.091  -2.520  0.00  0.00    +0.023 C 
ENDBRANCH  17  19
ENDBRANCH   1  15
TORSDOF 4
