REMARK  Name = ZINC40811344
REMARK  7 active torsions:
REMARK  status: ('A' for Active; 'I' for Inactive)
REMARK    1  A    between atoms: C_1  and  C_2
REMARK    2  A    between atoms: C_6  and  C_8
REMARK    3  A    between atoms: N_10  and  N_11
REMARK    4  A    between atoms: C_18  and  C_32
REMARK    5  A    between atoms: C_19  and  C_21
REMARK    6  A    between atoms: N_23  and  C_24
REMARK    7  A    between atoms: C_29  and  C_30
REMARK                            x       y       z     vdW  Elec       q    Type
REMARK                         _______ _______ _______ _____ _____    ______ ____
ROOT
ATOM      1  N   UNL     1       0.118  -4.912   3.645  0.00  0.00    -0.184 NA
ATOM      2  C   UNL     1       0.136  -6.209   3.634  0.00  0.00    +0.070 C 
ATOM      3  C   UNL     1       0.159  -7.015   2.344  0.00  0.00    +0.058 C 
ATOM      4  C   UNL     1      -0.804  -8.197   2.499  0.00  0.00    +0.014 C 
ATOM      5  C   UNL     1      -0.317  -9.150   3.593  0.00  0.00    +0.075 C 
ATOM      6  C   UNL     1      -0.070  -8.372   4.861  0.00  0.00    +0.115 A 
ATOM      7  C   UNL     1       0.144  -7.013   4.877  0.00  0.00    +0.042 A 
ATOM      8  C   UNL     1       0.340  -6.632   6.210  0.00  0.00    +0.009 A 
ATOM      9  C   UNL     1       0.247  -7.776   6.952  0.00  0.00    +0.193 A 
ATOM     10  O   UNL     1      -0.008  -8.812   6.116  0.00  0.00    -0.454 OA
ATOM     11  C   UNL     1       0.602  -5.239   6.723  0.00  0.00    +0.048 C 
ENDROOT
BRANCH   1  14
ATOM     12  C   UNL     1       0.092  -2.854   2.448  0.00  0.00    +0.263 C 
ATOM     13  O   UNL     1       0.080  -2.254   3.506  0.00  0.00    -0.268 OA
ATOM     14  N   UNL     1       0.112  -4.201   2.437  0.00  0.00    -0.203 N 
ATOM     15  H   UNL     1       0.121  -4.679   1.593  0.00  0.00    +0.178 HD
BRANCH  12  21
ATOM     16  C   UNL     1       0.035   1.492  -0.004  0.00  0.00    +0.044 C 
ATOM     17  C   UNL     1       0.058  -0.015  -0.011  0.00  0.00    -0.050 A 
ATOM     18  C   UNL     1       0.072  -0.701  -1.213  0.00  0.00    +0.003 A 
ATOM     19  C   UNL     1       0.093  -2.084  -1.228  0.00  0.00    +0.001 A 
ATOM     20  C   UNL     1       0.100  -2.789  -0.042  0.00  0.00    +0.013 A 
ATOM     21  C   UNL     1       0.086  -2.104   1.174  0.00  0.00    +0.039 A 
ATOM     22  C   UNL     1       0.070  -0.708   1.182  0.00  0.00    +0.016 A 
ENDBRANCH  12  21
ENDBRANCH   1  14
BRANCH   9  23
ATOM     23  C   UNL     1       0.386  -7.865   8.409  0.00  0.00    +0.284 C 
ATOM     24  O   UNL     1       0.604  -6.862   9.063  0.00  0.00    -0.266 OA
ATOM     25  N   UNL     1       0.272  -9.059   9.025  0.00  0.00    -0.279 N 
ATOM     26  H   UNL     1       0.019  -9.845   8.517  0.00  0.00    +0.155 HD
BRANCH  25  27
ATOM     27  C   UNL     1       0.518  -9.164  10.398  0.00  0.00    +0.038 A 
ATOM     28  C   UNL     1       1.345  -8.243  11.029  0.00  0.00    +0.043 A 
ATOM     29  C   UNL     1       1.586  -8.350  12.385  0.00  0.00    +0.043 A 
ATOM     30  C   UNL     1       1.004  -9.373  13.114  0.00  0.00    +0.020 A 
ATOM     31  C   UNL     1       0.181 -10.290  12.488  0.00  0.00    +0.006 A 
ATOM     32  C   UNL     1      -0.069 -10.185  11.134  0.00  0.00    -0.029 A 
ATOM     33  C   UNL     1      -0.972 -11.181  10.454  0.00  0.00    +0.045 C 
ATOM     34 CL   UNL     1       2.619  -7.200  13.176  0.00  0.00    -0.083 Cl
ENDBRANCH  25  27
ENDBRANCH   9  23
TORSDOF 4
