REMARK  Name = ZINC04601244
REMARK  8 active torsions:
REMARK  status: ('A' for Active; 'I' for Inactive)
REMARK    1  A    between atoms: C_1  and  C_2
REMARK    2  A    between atoms: C_7  and  C_26
REMARK    3  A    between atoms: C_7  and  C_27
REMARK    4  A    between atoms: C_10  and  C_24
REMARK    5  A    between atoms: C_10  and  C_25
REMARK    6  A    between atoms: C_19  and  C_20
REMARK    7  A    between atoms: C_20  and  O_22
REMARK    8  A    between atoms: O_22  and  C_23
REMARK                            x       y       z     vdW  Elec       q    Type
REMARK                         _______ _______ _______ _____ _____    ______ ____
ROOT
ATOM      1  C   UNL     1       0.235   1.498  -0.046  0.00  0.00    +0.018 C 
ATOM      2  C   UNL     1       0.231  -0.032  -0.034  0.00  0.00    +0.015 C 
ATOM      3  C   UNL     1      -1.190  -0.586   0.160  0.00  0.00    +0.033 C 
ATOM      4  C   UNL     1      -1.763  -0.001   1.435  0.00  0.00    +0.010 C 
ATOM      5  C   UNL     1      -1.005  -0.562   2.645  0.00  0.00    +0.011 C 
ATOM      6  C   UNL     1       0.494  -0.244   2.569  0.00  0.00    -0.013 C 
ATOM      7  C   UNL     1       0.981  -0.583   1.173  0.00  0.00    -0.059 C 
ATOM      8  C   UNL     1       1.936  -1.367   0.801  0.00  0.00    -0.018 C 
ATOM      9  C   UNL     1       1.990  -1.531  -0.700  0.00  0.00    +0.002 C 
ATOM     10  C   UNL     1       0.914  -0.600  -1.276  0.00  0.00    +0.090 C 
ATOM     11  N   UNL     1      -0.035  -1.346  -2.105  0.00  0.00    -0.338 N 
ATOM     12  C   UNL     1      -1.314  -0.814  -2.275  0.00  0.00    +0.045 A 
ATOM     13  C   UNL     1      -1.983  -0.361  -1.079  0.00  0.00    -0.022 A 
ATOM     14  C   UNL     1      -3.230   0.200  -1.127  0.00  0.00    +0.006 A 
ATOM     15  C   UNL     1      -3.874   0.356  -2.349  0.00  0.00    +0.001 A 
ATOM     16  C   UNL     1      -3.270  -0.049  -3.519  0.00  0.00    +0.017 A 
ATOM     17  C   UNL     1      -1.944  -0.681  -3.507  0.00  0.00    +0.080 A 
ATOM     18  C   UNL     1       1.707  -2.986  -1.079  0.00  0.00    +0.017 C 
ATOM     19  C   UNL     1       3.363  -1.108  -1.224  0.00  0.00    +0.017 C 
ATOM     20  C   UNL     1       0.722   1.242   2.849  0.00  0.00    +0.015 C 
ATOM     21  C   UNL     1       1.253  -1.086   3.598  0.00  0.00    +0.015 C 
ATOM     22  H   UNL     1       0.218  -2.184  -2.523  0.00  0.00    +0.146 HD
ENDROOT
BRANCH  17  23
ATOM     23  C   UNL     1      -1.271  -1.119  -4.742  0.00  0.00    +0.341 C 
ATOM     24  O   UNL     1      -0.156  -1.600  -4.689  0.00  0.00    -0.245 OA
BRANCH  23  25
ATOM     25  O   UNL     1      -1.891  -0.985  -5.931  0.00  0.00    -0.464 OA
ATOM     26  C   UNL     1      -1.179  -1.431  -7.088  0.00  0.00    +0.280 C 
ENDBRANCH  23  25
ENDBRANCH  17  23
TORSDOF 2
