REMARK  Name = ZINC03237135
REMARK  6 active torsions:
REMARK  status: ('A' for Active; 'I' for Inactive)
REMARK    1  A    between atoms: C_1  and  C_2
REMARK    2  A    between atoms: C_3  and  C_20
REMARK    3  A    between atoms: C_10  and  C_11
REMARK    4  A    between atoms: C_11  and  C_13
REMARK    5  A    between atoms: N_21  and  N_22
REMARK    6  A    between atoms: C_23  and  C_25
REMARK                            x       y       z     vdW  Elec       q    Type
REMARK                         _______ _______ _______ _____ _____    ______ ____
ROOT
ATOM      1  C   UNL     1       8.408  -5.661   5.216  0.00  0.00    +0.047 C 
ATOM      2  C   UNL     1       9.071  -4.320   5.037  0.00  0.00    -0.012 A 
ATOM      3  C   UNL     1       8.503  -3.191   4.441  0.00  0.00    +0.023 A 
ATOM      4  C   UNL     1       9.470  -2.162   4.491  0.00  0.00    +0.056 A 
ATOM      5  C   UNL     1       9.444  -0.832   4.052  0.00  0.00    +0.027 A 
ATOM      6  C   UNL     1      10.545  -0.045   4.233  0.00  0.00    +0.003 A 
ATOM      7  C   UNL     1      11.680  -0.582   4.855  0.00  0.00    +0.018 A 
ATOM      8  C   UNL     1      11.684  -1.868   5.272  0.00  0.00    +0.092 A 
ATOM      9  N   UNL     1      10.590  -2.662   5.096  0.00  0.00    -0.312 N 
ATOM     10  C   UNL     1      10.357  -3.983   5.429  0.00  0.00    +0.098 A 
ENDROOT
BRANCH  10  11
ATOM     11  C   UNL     1      11.277  -4.846   6.071  0.00  0.00    +0.210 C 
ATOM     12  O   UNL     1      11.361  -4.853   7.287  0.00  0.00    -0.285 OA
BRANCH  11  13
ATOM     13  C   UNL     1      12.136  -5.740   5.266  0.00  0.00    +0.024 A 
ATOM     14  C   UNL     1      12.121  -5.658   3.872  0.00  0.00    +0.014 A 
ATOM     15  C   UNL     1      12.928  -6.491   3.126  0.00  0.00    +0.039 A 
ATOM     16  C   UNL     1      13.747  -7.415   3.758  0.00  0.00    +0.123 A 
ATOM     17  C   UNL     1      13.762  -7.504   5.141  0.00  0.00    +0.039 A 
ATOM     18  C   UNL     1      12.963  -6.672   5.897  0.00  0.00    +0.014 A 
ATOM     19  F   UNL     1      14.532  -8.231   3.022  0.00  0.00    -0.205 F 
ENDBRANCH  11  13
ENDBRANCH  10  11
BRANCH   3  20
ATOM     20  C   UNL     1       7.151  -3.091   3.874  0.00  0.00    +0.140 C 
ATOM     21  N   UNL     1       6.746  -1.971   3.352  0.00  0.00    -0.187 NA
BRANCH  21  22
ATOM     22  N   UNL     1       5.457  -1.876   2.812  0.00  0.00    -0.203 N 
ATOM     23  C   UNL     1       5.037  -0.715   2.271  0.00  0.00    +0.263 C 
ATOM     24  O   UNL     1       5.777   0.250   2.252  0.00  0.00    -0.268 OA
ATOM     25  H   UNL     1       4.867  -2.646   2.827  0.00  0.00    +0.178 HD
BRANCH  23  26
ATOM     26  C   UNL     1       3.679  -0.615   1.702  0.00  0.00    +0.042 A 
ATOM     27  C   UNL     1       2.828  -1.722   1.722  0.00  0.00    +0.017 A 
ATOM     28  C   UNL     1       1.560  -1.627   1.190  0.00  0.00    +0.050 A 
ATOM     29  C   UNL     1       1.125  -0.432   0.632  0.00  0.00    +0.166 A 
ATOM     30  C   UNL     1       1.971   0.678   0.608  0.00  0.00    +0.167 A 
ATOM     31  C   UNL     1       3.242   0.588   1.140  0.00  0.00    +0.062 A 
ATOM     32  O   UNL     1       1.312   1.714   0.011  0.00  0.00    -0.453 OA
ATOM     33  C   UNL     1      -0.081   1.351   0.040  0.00  0.00    +0.466 C 
ATOM     34  O   UNL     1      -0.060  -0.088   0.050  0.00  0.00    -0.453 OA
ENDBRANCH  23  26
ENDBRANCH  21  22
ENDBRANCH   3  20
TORSDOF 5
