REMARK  Name = ZINC04786385
REMARK  5 active torsions:
REMARK  status: ('A' for Active; 'I' for Inactive)
REMARK    1  A    between atoms: C_1  and  C_2
REMARK    2  A    between atoms: C_8  and  C_10
REMARK    3  A    between atoms: C_10  and  S_11
REMARK    4  A    between atoms: S_11  and  C_12
REMARK    5  A    between atoms: C_17  and  N_21
REMARK                            x       y       z     vdW  Elec       q    Type
REMARK                         _______ _______ _______ _____ _____    ______ ____
ROOT
ATOM      1  C   UNL     1      -1.446  -2.018   7.078  0.00  0.00    +0.168 A 
ATOM      2  N   UNL     1      -0.299  -2.067   7.711  0.00  0.00    -0.222 NA
ATOM      3  C   UNL     1      -0.520  -2.217   9.044  0.00  0.00    +0.090 A 
ATOM      4  C   UNL     1       0.326  -2.325  10.150  0.00  0.00    +0.032 A 
ATOM      5  C   UNL     1      -0.211  -2.474  11.410  0.00  0.00    +0.035 A 
ATOM      6  C   UNL     1      -1.585  -2.519  11.588  0.00  0.00    +0.128 A 
ATOM      7  C   UNL     1      -2.434  -2.414  10.505  0.00  0.00    +0.060 A 
ATOM      8  C   UNL     1      -1.911  -2.263   9.230  0.00  0.00    +0.069 A 
ATOM      9  N   UNL     1      -2.474  -2.129   7.971  0.00  0.00    -0.333 N 
ATOM     10  H   UNL     1      -3.421  -2.118   7.762  0.00  0.00    +0.168 HD
ENDROOT
BRANCH   6  11
ATOM     11  N   UNL     1      -2.146  -2.680  12.949  0.00  0.00    +0.056 N 
ATOM     12  O   UNL     1      -1.405  -2.772  13.900  0.00  0.00    -0.126 OA
ATOM     13  O   UNL     1      -3.343  -2.719  13.108  0.00  0.00    -0.126 OA
ENDBRANCH   6  11
BRANCH   1  14
ATOM     14  S   UNL     1      -1.633  -1.828   5.336  0.00  0.00    -0.082 S 
BRANCH  14  15
ATOM     15  C   UNL     1       0.070  -1.739   4.719  0.00  0.00    +0.134 C 
BRANCH  15  23
ATOM     16  C   UNL     1      -0.018   1.503   0.010  0.00  0.00    +0.064 C 
ATOM     17  C   UNL     1       0.002  -0.004   0.002  0.00  0.00    +0.029 A 
ATOM     18  C   UNL     1       0.005  -0.656  -1.160  0.00  0.00    +0.070 A 
ATOM     19  S   UNL     1       0.032  -2.360  -0.627  0.00  0.00    -0.057 S 
ATOM     20  C   UNL     1       0.036  -2.059   1.125  0.00  0.00    +0.178 A 
ATOM     21  N   UNL     1       0.023  -0.691   1.196  0.00  0.00    -0.297 N 
ATOM     22  C   UNL     1       0.031  -0.406   2.559  0.00  0.00    +0.117 A 
ATOM     23  C   UNL     1       0.054  -1.575   3.221  0.00  0.00    +0.071 A 
ATOM     24  N   UNL     1       0.049  -2.571   2.322  0.00  0.00    -0.225 NA
ENDBRANCH  15  23
ENDBRANCH  14  15
ENDBRANCH   1  14
TORSDOF 4
