REMARK  Name = ZINC09530745
REMARK  9 active torsions:
REMARK  status: ('A' for Active; 'I' for Inactive)
REMARK    1  A    between atoms: C_1  and  C_2
REMARK    2  A    between atoms: C_5  and  C_32
REMARK    3  A    between atoms: C_9  and  C_10
REMARK    4  A    between atoms: C_9  and  N_58
REMARK    5  A    between atoms: C_11  and  O_31
REMARK    6  A    between atoms: C_18  and  C_19
REMARK    7  A    between atoms: C_22  and  C_25
REMARK    8  A    between atoms: C_25  and  O_27
REMARK    9  A    between atoms: O_27  and  C_28
REMARK                            x       y       z     vdW  Elec       q    Type
REMARK                         _______ _______ _______ _____ _____    ______ ____
ROOT
ATOM      1  C   UNL     1       0.041  -0.010  -0.069  0.00  0.00    +0.020 A 
ATOM      2  C   UNL     1      -0.985  -0.716  -0.678  0.00  0.00    +0.122 A 
ATOM      3  C   UNL     1      -0.979  -2.107  -0.690  0.00  0.00    +0.046 A 
ATOM      4  C   UNL     1       0.044  -2.793  -0.098  0.00  0.00    +0.019 A 
ATOM      5  C   UNL     1       1.084  -2.096   0.519  0.00  0.00    +0.068 A 
ATOM      6  C   UNL     1       1.090  -0.692   0.533  0.00  0.00    +0.144 A 
ATOM      7  O   UNL     1       2.191  -0.246   1.177  0.00  0.00    -0.451 OA
ATOM      8  C   UNL     1       2.966  -1.265   1.615  0.00  0.00    +0.176 C 
ATOM      9  C   UNL     1       4.133  -1.150   2.294  0.00  0.00    +0.058 C 
ATOM     10  C   UNL     1       2.303  -2.524   1.229  0.00  0.00    +0.231 C 
ATOM     11  O   UNL     1       2.683  -3.662   1.439  0.00  0.00    -0.283 OA
ENDROOT
BRANCH   9  12
ATOM     12  C   UNL     1       4.726   0.177   2.517  0.00  0.00    -0.021 A 
ATOM     13  C   UNL     1       4.028   1.329   2.136  0.00  0.00    +0.009 A 
ATOM     14  C   UNL     1       4.579   2.566   2.349  0.00  0.00    +0.015 A 
ATOM     15  C   UNL     1       5.843   2.677   2.936  0.00  0.00    +0.059 A 
ATOM     16  C   UNL     1       6.544   1.527   3.312  0.00  0.00    +0.015 A 
ATOM     17  C   UNL     1       5.992   0.289   3.104  0.00  0.00    +0.009 A 
BRANCH  15  18
ATOM     18  C   UNL     1       6.439   4.010   3.159  0.00  0.00    +0.339 C 
ATOM     19  O   UNL     1       7.537   4.106   3.670  0.00  0.00    -0.245 OA
BRANCH  18  20
ATOM     20  O   UNL     1       5.764   5.118   2.797  0.00  0.00    -0.464 OA
ATOM     21  C   UNL     1       6.410   6.394   3.047  0.00  0.00    +0.280 C 
ENDBRANCH  18  20
ENDBRANCH  15  18
ENDBRANCH   9  12
BRANCH   2  22
ATOM     22  O   UNL     1      -2.005  -0.043  -1.270  0.00  0.00    -0.506 OA
ATOM     23  H   UNL     1      -1.854   0.160  -2.203  0.00  0.00    +0.292 HD
ENDBRANCH   2  22
BRANCH   1  24
ATOM     24  C   UNL     1       0.020   1.497  -0.065  0.00  0.00    -0.036 C 
BRANCH  24  32
ATOM     25  C   UNL     1      -1.204   5.415   2.645  0.00  0.00    +0.005 C 
ATOM     26  C   UNL     1      -1.390   3.907   2.460  0.00  0.00    -0.031 C 
ATOM     27  C   UNL     1      -0.966   3.180   3.739  0.00  0.00    +0.003 C 
ATOM     28  C   UNL     1      -1.099   1.669   3.526  0.00  0.00    -0.031 C 
ATOM     29  C   UNL     1      -0.242   1.251   2.329  0.00  0.00    -0.075 C 
ATOM     30  C   UNL     1      -0.525   3.424   1.294  0.00  0.00    -0.075 C 
ATOM     31  C   UNL     1      -0.621   0.932   4.778  0.00  0.00    +0.005 C 
ATOM     32  N   UNL     1      -0.716   1.968   1.126  0.00  0.00    +0.383 N 
ATOM     33  H   UNL     1      -1.717   1.776   0.996  0.00  0.00    -0.081 HD
ENDBRANCH  24  32
ENDBRANCH   1  24
TORSDOF 6
