REMARK  Name = ZINC14199536
REMARK  6 active torsions:
REMARK  status: ('A' for Active; 'I' for Inactive)
REMARK    1  A    between atoms: C_1  and  C_2
REMARK    2  A    between atoms: C_2  and  C_4
REMARK    3  A    between atoms: C_2  and  S_17
REMARK    4  A    between atoms: S_17  and  C_18
REMARK    5  A    between atoms: C_26  and  N_28
REMARK    6  A    between atoms: N_28  and  C_29
REMARK                            x       y       z     vdW  Elec       q    Type
REMARK                         _______ _______ _______ _____ _____    ______ ____
ROOT
ATOM      1  C   UNL     1      -0.729   1.579   1.267  0.00  0.00    +0.029 C 
ATOM      2  C   UNL     1      -0.013   1.086   0.008  0.00  0.00    +0.137 C 
ENDROOT
BRANCH   2   3
ATOM      3  C   UNL     1      -0.742   1.585  -1.213  0.00  0.00    +0.233 C 
ATOM      4  O   UNL     1      -0.327   2.555  -1.812  0.00  0.00    -0.274 OA
ATOM      5  N   UNL     1      -1.854   0.954  -1.639  0.00  0.00    -0.260 N 
ATOM      6  C   UNL     1      -2.376  -0.224  -0.930  0.00  0.00    +0.209 C 
ATOM      7  C   UNL     1      -2.813  -1.252  -1.942  0.00  0.00    +0.235 C 
ATOM      8  O   UNL     1      -2.772  -2.430  -1.654  0.00  0.00    -0.274 OA
ATOM      9  N   UNL     1      -3.246  -0.880  -3.161  0.00  0.00    -0.283 N 
ATOM     10  C   UNL     1      -3.255   0.468  -3.536  0.00  0.00    +0.055 A 
ATOM     11  C   UNL     1      -2.553   1.403  -2.770  0.00  0.00    +0.058 A 
ATOM     12  C   UNL     1      -2.551   2.739  -3.127  0.00  0.00    +0.025 A 
ATOM     13  C   UNL     1      -3.255   3.152  -4.245  0.00  0.00    +0.002 A 
ATOM     14  C   UNL     1      -3.958   2.233  -5.002  0.00  0.00    +0.002 A 
ATOM     15  C   UNL     1      -3.954   0.887  -4.656  0.00  0.00    +0.025 A 
ATOM     16  H   UNL     1      -3.555  -1.554  -3.787  0.00  0.00    +0.155 HD
ENDBRANCH   2   3
BRANCH   2  17
ATOM     17  S   UNL     1       1.685   1.712  -0.005  0.00  0.00    -0.073 S 
BRANCH  17  18
ATOM     18  C   UNL     1       2.330   0.877   1.406  0.00  0.00    +0.191 A 
ATOM     19  N   UNL     1       1.533   0.073   2.084  0.00  0.00    -0.222 NA
ATOM     20  C   UNL     1       1.987  -0.581   3.164  0.00  0.00    +0.077 A 
ATOM     21  C   UNL     1       1.168  -1.442   3.907  0.00  0.00    +0.028 A 
ATOM     22  C   UNL     1       1.678  -2.083   4.996  0.00  0.00    +0.002 A 
ATOM     23  C   UNL     1       3.002  -1.897   5.383  0.00  0.00    +0.001 A 
ATOM     24  C   UNL     1       3.826  -1.065   4.682  0.00  0.00    +0.013 A 
ATOM     25  C   UNL     1       3.333  -0.392   3.560  0.00  0.00    +0.040 A 
ATOM     26  C   UNL     1       4.143   0.483   2.793  0.00  0.00    +0.131 A 
ATOM     27  N   UNL     1       3.603   1.079   1.740  0.00  0.00    -0.206 NA
BRANCH  26  28
ATOM     28  N   UNL     1       5.460   0.706   3.131  0.00  0.00    -0.326 N 
ATOM     29  H   UNL     1       5.845   0.260   3.903  0.00  0.00    +0.148 HD
BRANCH  28  30
ATOM     30  C   UNL     1       6.280   1.614   2.326  0.00  0.00    +0.072 C 
ATOM     31  C   UNL     1       7.702   1.165   1.982  0.00  0.00    +0.024 C 
ATOM     32  C   UNL     1       7.478   2.278   3.009  0.00  0.00    +0.024 C 
ENDBRANCH  28  30
ENDBRANCH  26  28
ENDBRANCH  17  18
ENDBRANCH   2  17
TORSDOF 5
