REMARK  Name = ZINC60351510
REMARK  4 active torsions:
REMARK  status: ('A' for Active; 'I' for Inactive)
REMARK    1  A    between atoms: C_6  and  C_7
REMARK    2  A    between atoms: C_7  and  N_12
REMARK    3  A    between atoms: C_13  and  C_15
REMARK    4  A    between atoms: N_20  and  C_22
REMARK                            x       y       z     vdW  Elec       q    Type
REMARK                         _______ _______ _______ _____ _____    ______ ____
ROOT
ATOM      1  N   UNL     1      -3.719  -0.471   0.110  0.00  0.00    -0.301 N 
ATOM      2  C   UNL     1      -3.721   0.855  -0.132  0.00  0.00    +0.265 C 
ATOM      3  O   UNL     1      -3.358   1.277  -1.213  0.00  0.00    -0.268 OA
ATOM      4  H   UNL     1      -4.070  -0.812   0.947  0.00  0.00    +0.150 HD
ENDROOT
BRANCH   2   5
ATOM      5  C   UNL     1      -4.165   1.797   0.918  0.00  0.00    +0.146 A 
ATOM      6  C   UNL     1      -4.172   3.189   0.660  0.00  0.00    +0.040 A 
ATOM      7  C   UNL     1      -4.588   4.027   1.652  0.00  0.00    +0.074 A 
ATOM      8  C   UNL     1      -4.987   3.454   2.879  0.00  0.00    +0.272 A 
ATOM      9  O   UNL     1      -5.367   4.165   3.794  0.00  0.00    -0.266 OA
ATOM     10  N   UNL     1      -4.946   2.117   3.031  0.00  0.00    -0.196 N 
ATOM     11  N   UNL     1      -4.557   1.339   2.087  0.00  0.00    -0.159 NA
BRANCH  10  12
ATOM     12  C   UNL     1      -5.344   1.559   4.251  0.00  0.00    +0.069 A 
ATOM     13  C   UNL     1      -4.521   0.647   4.900  0.00  0.00    +0.031 A 
ATOM     14  C   UNL     1      -4.915   0.098   6.104  0.00  0.00    +0.040 A 
ATOM     15  C   UNL     1      -6.131   0.454   6.664  0.00  0.00    +0.124 A 
ATOM     16  C   UNL     1      -6.953   1.363   6.018  0.00  0.00    +0.040 A 
ATOM     17  C   UNL     1      -6.560   1.920   4.817  0.00  0.00    +0.031 A 
ATOM     18  F   UNL     1      -6.516  -0.085   7.841  0.00  0.00    -0.205 F 
ENDBRANCH  10  12
ENDBRANCH   2   5
BRANCH   1  19
ATOM     19  C   UNL     1      -3.185  -1.397  -0.892  0.00  0.00    +0.060 C 
ATOM     20  C   UNL     1      -4.013  -1.323  -2.198  0.00  0.00    +0.030 C 
ATOM     21  C   UNL     1      -5.240  -2.211  -1.876  0.00  0.00    +0.002 C 
ATOM     22  C   UNL     1      -4.658  -3.374  -1.046  0.00  0.00    +0.002 C 
ATOM     23  C   UNL     1      -3.351  -2.856  -0.420  0.00  0.00    +0.030 C 
BRANCH  19  29
ATOM     24  C   UNL     1      -0.993  -0.370  -0.254  0.00  0.00    +0.007 A 
ATOM     25  C   UNL     1       0.337  -0.092  -0.507  0.00  0.00    +0.020 A 
ATOM     26  C   UNL     1       0.926  -0.539  -1.677  0.00  0.00    +0.041 A 
ATOM     27  C   UNL     1       0.183  -1.264  -2.592  0.00  0.00    +0.020 A 
ATOM     28  C   UNL     1      -1.147  -1.541  -2.337  0.00  0.00    +0.007 A 
ATOM     29  C   UNL     1      -1.735  -1.094  -1.169  0.00  0.00    -0.024 A 
ATOM     30 CL   UNL     1       2.596  -0.190  -1.996  0.00  0.00    -0.084 Cl
ENDBRANCH  19  29
ENDBRANCH   1  19
TORSDOF 4
