REMARK  Name = ZINC11783474
REMARK  12 active torsions:
REMARK  status: ('A' for Active; 'I' for Inactive)
REMARK    1  A    between atoms: C_1  and  C_2
REMARK    2  A    between atoms: C_7  and  C_8
REMARK    3  A    between atoms: C_8  and  C_9
REMARK    4  A    between atoms: C_9  and  C_21
REMARK    5  A    between atoms: N_12  and  C_16
REMARK    6  A    between atoms: C_16  and  C_17
REMARK    7  A    between atoms: C_17  and  C_18
REMARK    8  A    between atoms: C_18  and  N_71
REMARK    9  A    between atoms: C_19  and  N_71
REMARK   10  A    between atoms: C_20  and  N_71
REMARK   11  A    between atoms: C_27  and  C_29
REMARK   12  A    between atoms: C_29  and  C_32
REMARK                            x       y       z     vdW  Elec       q    Type
REMARK                         _______ _______ _______ _____ _____    ______ ____
ROOT
ATOM      1  C   UNL     1      -5.668   1.038  -2.575  0.00  0.00    +0.119 C 
ATOM      2  C   UNL     1      -5.123   0.869  -3.979  0.00  0.00    +0.247 C 
ATOM      3  O   UNL     1      -4.408  -0.021  -4.385  0.00  0.00    -0.273 OA
ATOM      4  N   UNL     1      -5.600   1.915  -4.684  0.00  0.00    -0.224 N 
ATOM      5  C   UNL     1      -6.363   2.712  -3.927  0.00  0.00    +0.309 C 
ATOM      6  O   UNL     1      -6.905   3.719  -4.340  0.00  0.00    -0.252 OA
ATOM      7  N   UNL     1      -6.466   2.274  -2.656  0.00  0.00    -0.284 N 
ATOM      8  H   UNL     1      -6.967   2.688  -1.936  0.00  0.00    +0.151 HD
ENDROOT
BRANCH   1   9
ATOM      9  C   UNL     1      -4.526   1.200  -1.570  0.00  0.00    +0.025 C 
ATOM     10  C   UNL     1      -3.587   2.313  -2.040  0.00  0.00    +0.025 C 
ATOM     11  C   UNL     1      -2.465   2.496  -1.014  0.00  0.00    +0.108 C 
ATOM     12  N   UNL     1      -1.805   1.200  -0.800  0.00  0.00    -0.301 N 
ATOM     13  C   UNL     1      -2.629   0.039  -0.439  0.00  0.00    +0.108 C 
ATOM     14  C   UNL     1      -3.749  -0.115  -1.466  0.00  0.00    +0.025 C 
ATOM     15  C   UNL     1      -0.470   1.079  -0.937  0.00  0.00    +0.221 C 
ATOM     16  O   UNL     1       0.210   2.061  -1.150  0.00  0.00    -0.275 OA
BRANCH  15  17
ATOM     17  C   UNL     1       0.178  -0.278  -0.833  0.00  0.00    +0.044 C 
ATOM     18  C   UNL     1       1.215  -0.649  -1.895  0.00  0.00    +0.017 C 
ATOM     19  C   UNL     1      -0.165  -1.309  -1.910  0.00  0.00    +0.017 C 
ATOM     20  C   UNL     1       0.408  -0.792   0.589  0.00  0.00    +0.021 C 
ENDBRANCH  15  17
ENDBRANCH   1   9
BRANCH   1  21
ATOM     21  C   UNL     1      -6.554  -0.151  -2.195  0.00  0.00    +0.071 C 
BRANCH  21  28
ATOM     22  C   UNL     1      -9.082   1.144  -1.665  0.00  0.00    +0.044 C 
ATOM     23  C   UNL     1      -8.894   0.347  -2.930  0.00  0.00    -0.047 A 
ATOM     24  C   UNL     1      -9.931   0.237  -3.838  0.00  0.00    +0.003 A 
ATOM     25  C   UNL     1      -9.758  -0.493  -4.999  0.00  0.00    +0.000 A 
ATOM     26  C   UNL     1      -8.548  -1.112  -5.253  0.00  0.00    +0.000 A 
ATOM     27  C   UNL     1      -7.510  -0.997  -4.348  0.00  0.00    +0.004 A 
ATOM     28  C   UNL     1      -7.684  -0.272  -3.184  0.00  0.00    -0.042 A 
ENDBRANCH  21  28
ENDBRANCH   1  21
BRANCH   4  29
ATOM     29  C   UNL     1      -5.318   2.149  -6.102  0.00  0.00    +0.116 C 
BRANCH  29  30
ATOM     30  C   UNL     1      -6.383   1.458  -6.955  0.00  0.00    +0.001 C 
BRANCH  30  31
ATOM     31  C   UNL     1      -6.088   1.703  -8.436  0.00  0.00    -0.078 C 
BRANCH  31  34
ATOM     32  C   UNL     1      -7.001   1.444 -10.664  0.00  0.00    -0.097 C 
ATOM     33  C   UNL     1      -7.027  -0.421  -9.120  0.00  0.00    -0.097 C 
ATOM     34  N   UNL     1      -7.136   1.047  -9.246  0.00  0.00    +0.376 N 
ATOM     35  H   UNL     1      -8.057   1.344  -8.903  0.00  0.00    -0.083 HD
ENDBRANCH  31  34
ENDBRANCH  30  31
ENDBRANCH  29  30
ENDBRANCH   4  29
TORSDOF 8
