REMARK  Name = ZINC22621307
REMARK  8 active torsions:
REMARK  status: ('A' for Active; 'I' for Inactive)
REMARK    1  A    between atoms: C_1  and  C_2
REMARK    2  A    between atoms: C_3  and  C_16
REMARK    3  A    between atoms: C_4  and  C_15
REMARK    4  A    between atoms: C_9  and  C_11
REMARK    5  A    between atoms: C_16  and  C_17
REMARK    6  A    between atoms: N_19  and  C_20
REMARK    7  A    between atoms: C_20  and  C_21
REMARK    8  A    between atoms: C_21  and  N_27
REMARK                            x       y       z     vdW  Elec       q    Type
REMARK                         _______ _______ _______ _____ _____    ______ ____
ROOT
ATOM      1  C   UNL     1       3.770  -3.704   0.417  0.00  0.00    +0.217 C 
ATOM      2  O   UNL     1       3.421  -4.585   1.175  0.00  0.00    -0.275 OA
ATOM      3  N   UNL     1       3.624  -2.413   0.772  0.00  0.00    -0.316 N 
ATOM      4  H   UNL     1       3.941  -1.614   0.085  0.00  0.00    +0.149 HD
ENDROOT
BRANCH   1   5
ATOM      5  C   UNL     1       4.367  -4.055  -0.921  0.00  0.00    +0.134 C 
BRANCH   5   8
ATOM      6  C   UNL     1       2.122  -5.490  -2.097  0.00  0.00    +0.066 C 
ATOM      7  C   UNL     1       3.341  -6.247  -1.636  0.00  0.00    +0.047 A 
ATOM      8  C   UNL     1       4.419  -5.554  -1.071  0.00  0.00    +0.004 A 
ATOM      9  C   UNL     1       5.513  -6.247  -0.665  0.00  0.00    +0.049 A 
ATOM     10  N   UNL     1       5.528  -7.599  -0.809  0.00  0.00    -0.200 N 
ATOM     11  C   UNL     1       4.459  -8.245  -1.364  0.00  0.00    +0.254 A 
ATOM     12  N   UNL     1       3.387  -7.553  -1.766  0.00  0.00    -0.216 NA
ATOM     13  N   UNL     1       4.750  -9.541  -1.383  0.00  0.00    -0.186 NA
ATOM     14  C   UNL     1       5.954  -9.738  -0.865  0.00  0.00    +0.257 A 
ATOM     15  N   UNL     1       6.470  -8.589  -0.500  0.00  0.00    -0.139 NA
ATOM     16  C   UNL     1       6.691  -5.530  -0.059  0.00  0.00    +0.066 C 
BRANCH  14  17
ATOM     17  C   UNL     1       6.627 -11.079  -0.717  0.00  0.00    +0.454 C 
ATOM     18  F   UNL     1       5.960 -12.025  -1.502  0.00  0.00    -0.163 F 
ATOM     19  F   UNL     1       7.958 -10.981  -1.135  0.00  0.00    -0.163 F 
ATOM     20  F   UNL     1       6.587 -11.475   0.625  0.00  0.00    -0.163 F 
ENDBRANCH  14  17
ENDBRANCH   5   8
ENDBRANCH   1   5
BRANCH   3  21
ATOM     21  C   UNL     1       3.044  -2.071   2.074  0.00  0.00    +0.092 C 
BRANCH  21  22
ATOM     22  C   UNL     1       2.991  -0.550   2.226  0.00  0.00    -0.050 C 
ATOM     23  C   UNL     1       2.385  -0.194   3.585  0.00  0.00    -0.010 C 
ATOM     24  C   UNL     1       3.248  -0.789   4.699  0.00  0.00    -0.001 C 
ATOM     25  C   UNL     1       4.665  -0.218   4.608  0.00  0.00    -0.000 C 
ATOM     26  C   UNL     1       5.271  -0.574   3.249  0.00  0.00    -0.001 C 
ATOM     27  C   UNL     1       4.408   0.021   2.134  0.00  0.00    -0.010 C 
BRANCH  22  28
ATOM     28  N   UNL     1       2.163   0.021   1.155  0.00  0.00    +0.384 N 
ATOM     29  C   UNL     1       0.793  -0.505   1.212  0.00  0.00    -0.078 C 
ATOM     30  C   UNL     1       0.002  -0.004   0.002  0.00  0.00    -0.019 C 
ATOM     31  C   UNL     1      -0.019   1.527   0.010  0.00  0.00    -0.004 C 
ATOM     32  C   UNL     1       1.421   2.049  -0.001  0.00  0.00    -0.019 C 
ATOM     33  C   UNL     1       2.171   1.488   1.210  0.00  0.00    -0.078 C 
ATOM     34  H   UNL     1       2.598  -0.281   0.191  0.00  0.00    -0.081 HD
ENDBRANCH  22  28
ENDBRANCH  21  22
ENDBRANCH   3  21
TORSDOF 6
