REMARK  Name = ZINC50389797
REMARK  7 active torsions:
REMARK  status: ('A' for Active; 'I' for Inactive)
REMARK    1  A    between atoms: C_1  and  C_2
REMARK    2  A    between atoms: C_2  and  C_4
REMARK    3  A    between atoms: C_2  and  N_9
REMARK    4  A    between atoms: C_4  and  C_5
REMARK    5  A    between atoms: N_6  and  O_7
REMARK    6  A    between atoms: N_9  and  S_10
REMARK    7  A    between atoms: S_10  and  C_13
REMARK                            x       y       z     vdW  Elec       q    Type
REMARK                         _______ _______ _______ _____ _____    ______ ____
ROOT
ATOM      1  N   UNL     1      -1.526  -0.497  -0.046  0.00  0.00    -0.187 NA
ATOM      2  H   UNL     1      -2.076  -0.630  -0.835  0.00  0.00    +0.148 HD
ENDROOT
BRANCH   1   3
ATOM      3  S   UNL     1      -2.050  -1.039   1.429  0.00  0.00    +0.060 S 
ATOM      4  O   UNL     1      -3.325  -1.627   1.216  0.00  0.00    -0.153 OA
ATOM      5  O   UNL     1      -0.967  -1.756   2.006  0.00  0.00    -0.153 OA
BRANCH   3   6
ATOM      6  C   UNL     1      -2.311   0.379   2.441  0.00  0.00    +0.119 A 
ATOM      7  C   UNL     1      -1.544   0.570   3.575  0.00  0.00    +0.029 A 
ATOM      8  C   UNL     1      -1.749   1.682   4.370  0.00  0.00    +0.002 A 
ATOM      9  C   UNL     1      -2.721   2.605   4.030  0.00  0.00    +0.001 A 
ATOM     10  C   UNL     1      -3.488   2.415   2.896  0.00  0.00    +0.017 A 
ATOM     11  C   UNL     1      -3.280   1.304   2.098  0.00  0.00    +0.044 A 
ATOM     12 BR   UNL     1      -4.325   1.048   0.543  0.00  0.00    -0.048 Br
ENDBRANCH   3   6
ENDBRANCH   1   3
BRANCH   1  14
ATOM     13  C   UNL     1      -0.445   1.696  -0.094  0.00  0.00    +0.026 C 
ATOM     14  C   UNL     1      -0.233   0.182  -0.161  0.00  0.00    +0.081 C 
BRANCH  14  15
ATOM     15  C   UNL     1       0.419  -0.184  -1.496  0.00  0.00    +0.094 C 
BRANCH  15  16
ATOM     16  C   UNL     1       0.740  -1.656  -1.511  0.00  0.00    +0.133 C 
ATOM     17  N   UNL     1       0.456  -2.390  -0.487  0.00  0.00    -0.077 NA
ATOM     18  N   UNL     1       1.336  -2.219  -2.618  0.00  0.00    -0.344 N 
ATOM     19  H   UNL     1       1.549  -1.668  -3.387  0.00  0.00    +0.144 HD
ATOM     20  H   UNL     1       1.542  -3.167  -2.628  0.00  0.00    +0.144 HD
BRANCH  17  21
ATOM     21  O   UNL     1       0.757  -3.773  -0.501  0.00  0.00    -0.408 OA
ATOM     22  H   UNL     1       0.508  -4.239   0.309  0.00  0.00    +0.328 HD
ENDBRANCH  17  21
ENDBRANCH  15  16
ENDBRANCH  14  15
ENDBRANCH   1  14
TORSDOF 6
