REMARK  Name = ZINC20853803
REMARK  8 active torsions:
REMARK  status: ('A' for Active; 'I' for Inactive)
REMARK    1  A    between atoms: C_1  and  C_2
REMARK    2  A    between atoms: C_2  and  N_3
REMARK    3  A    between atoms: C_12  and  S_13
REMARK    4  A    between atoms: S_13  and  C_14
REMARK    5  A    between atoms: C_14  and  C_15
REMARK    6  A    between atoms: N_17  and  N_18
REMARK    7  A    between atoms: C_19  and  C_21
REMARK    8  A    between atoms: C_29  and  C_33
REMARK                            x       y       z     vdW  Elec       q    Type
REMARK                         _______ _______ _______ _____ _____    ______ ____
ROOT
ATOM      1  N   UNL     1      -0.020   1.094   2.454  0.00  0.00    -0.288 N 
ATOM      2  C   UNL     1      -0.369  -0.089   2.993  0.00  0.00    +0.263 A 
ATOM      3  O   UNL     1      -1.266  -0.752   2.501  0.00  0.00    -0.267 OA
ATOM      4  C   UNL     1       0.332  -0.559   4.149  0.00  0.00    +0.076 A 
ATOM      5  C   UNL     1       0.126  -1.806   4.889  0.00  0.00    -0.023 A 
ATOM      6  C   UNL     1       0.918  -2.021   5.958  0.00  0.00    -0.004 A 
ATOM      7  S   UNL     1       1.971  -0.598   6.044  0.00  0.00    -0.073 S 
ATOM      8  C   UNL     1       1.342   0.285   4.638  0.00  0.00    +0.117 A 
ATOM      9  N   UNL     1       1.634   1.445   4.062  0.00  0.00    -0.216 NA
ATOM     10  C   UNL     1       0.977   1.853   2.995  0.00  0.00    +0.173 A 
ATOM     11  C   UNL     1       0.906  -3.208   6.873  0.00  0.00    +0.046 C 
ATOM     12  C   UNL     1      -0.396  -3.987   6.638  0.00  0.00    -0.009 C 
ATOM     13  C   UNL     1      -0.594  -4.172   5.131  0.00  0.00    +0.008 C 
ATOM     14  C   UNL     1      -0.933  -2.829   4.484  0.00  0.00    +0.037 C 
ATOM     15  C   UNL     1      -0.304  -5.355   7.319  0.00  0.00    +0.008 C 
ENDROOT
BRANCH   1  17
ATOM     16  C   UNL     1      -0.013   1.086   0.008  0.00  0.00    +0.027 C 
ATOM     17  C   UNL     1      -0.729   1.579   1.267  0.00  0.00    +0.124 C 
ENDBRANCH   1  17
BRANCH  10  18
ATOM     18  S   UNL     1       1.392   3.397   2.256  0.00  0.00    -0.078 S 
BRANCH  18  19
ATOM     19  C   UNL     1       2.725   3.926   3.361  0.00  0.00    +0.174 C 
BRANCH  19  20
ATOM     20  C   UNL     1       3.250   5.264   2.910  0.00  0.00    +0.239 C 
ATOM     21  O   UNL     1       2.771   5.808   1.937  0.00  0.00    -0.273 OA
ATOM     22  N   UNL     1       4.253   5.858   3.587  0.00  0.00    -0.233 N 
ATOM     23  H   UNL     1       4.688   5.365   4.469  0.00  0.00    +0.173 HD
BRANCH  22  24
ATOM     24  N   UNL     1       4.742   7.102   3.167  0.00  0.00    -0.230 N 
ATOM     25  C   UNL     1       5.744   7.696   3.845  0.00  0.00    +0.260 C 
ATOM     26  O   UNL     1       6.225   7.151   4.819  0.00  0.00    -0.269 OA
ATOM     27  H   UNL     1       4.307   7.595   2.285  0.00  0.00    +0.173 HD
BRANCH  25  28
ATOM     28  C   UNL     1       6.259   9.008   3.402  0.00  0.00    +0.038 A 
ATOM     29  C   UNL     1       5.713   9.633   2.280  0.00  0.00    +0.016 A 
ATOM     30  C   UNL     1       6.193  10.860   1.875  0.00  0.00    +0.039 A 
ATOM     31  C   UNL     1       7.225  11.468   2.573  0.00  0.00    +0.123 A 
ATOM     32  C   UNL     1       7.775  10.849   3.685  0.00  0.00    +0.039 A 
ATOM     33  C   UNL     1       7.298   9.625   4.102  0.00  0.00    +0.016 A 
ATOM     34  F   UNL     1       7.696  12.668   2.169  0.00  0.00    -0.205 F 
ENDBRANCH  25  28
ENDBRANCH  22  24
ENDBRANCH  19  20
ENDBRANCH  18  19
ENDBRANCH  10  18
TORSDOF 6
