REMARK  Name = ZINC44870760
REMARK  11 active torsions:
REMARK  status: ('A' for Active; 'I' for Inactive)
REMARK    1  A    between atoms: C_1  and  C_2
REMARK    2  A    between atoms: C_2  and  C_3
REMARK    3  A    between atoms: C_2  and  C_4
REMARK    4  A    between atoms: C_8  and  C_22
REMARK    5  A    between atoms: C_9  and  N_10
REMARK    6  A    between atoms: C_11  and  C_13
REMARK    7  A    between atoms: C_13  and  S_14
REMARK    8  A    between atoms: S_14  and  C_15
REMARK    9  A    between atoms: N_19  and  C_20
REMARK   10  A    between atoms: C_22  and  C_23
REMARK   11  A    between atoms: C_22  and  C_24
REMARK                            x       y       z     vdW  Elec       q    Type
REMARK                         _______ _______ _______ _____ _____    ______ ____
ROOT
ATOM      1  N   UNL     1      -0.977  -0.203  -2.353  0.00  0.00    -0.284 N 
ATOM      2  C   UNL     1      -0.807  -1.104  -3.341  0.00  0.00    +0.228 C 
ATOM      3  O   UNL     1      -1.344  -2.189  -3.271  0.00  0.00    -0.275 OA
ATOM      4  H   UNL     1      -0.612   0.691  -2.444  0.00  0.00    +0.155 HD
ENDROOT
BRANCH   1  10
ATOM      5  C   UNL     1      -1.049  -0.517   0.041  0.00  0.00    -0.023 A 
ATOM      6  C   UNL     1      -1.747  -0.862   1.182  0.00  0.00    +0.006 A 
ATOM      7  C   UNL     1      -3.070  -1.254   1.093  0.00  0.00    +0.001 A 
ATOM      8  C   UNL     1      -3.699  -1.301  -0.138  0.00  0.00    +0.006 A 
ATOM      9  C   UNL     1      -3.006  -0.957  -1.283  0.00  0.00    -0.023 A 
ATOM     10  C   UNL     1      -1.679  -0.558  -1.196  0.00  0.00    +0.040 A 
BRANCH   5  12
ATOM     11  C   UNL     1       0.500   1.147   1.032  0.00  0.00    +0.012 C 
ATOM     12  C   UNL     1       0.393  -0.091   0.139  0.00  0.00    +0.015 C 
ATOM     13  C   UNL     1       1.221  -1.228   0.742  0.00  0.00    +0.012 C 
ENDBRANCH   5  12
BRANCH   9  14
ATOM     14  C   UNL     1      -3.692  -1.009  -2.623  0.00  0.00    +0.015 C 
ATOM     15  C   UNL     1      -4.832  -2.029  -2.574  0.00  0.00    +0.012 C 
ATOM     16  C   UNL     1      -4.259   0.372  -2.961  0.00  0.00    +0.012 C 
ENDBRANCH   9  14
ENDBRANCH   1  10
BRANCH   2  17
ATOM     17  C   UNL     1       0.051  -0.762  -4.532  0.00  0.00    +0.173 C 
BRANCH  17  18
ATOM     18  S   UNL     1       0.082  -2.169  -5.678  0.00  0.00    -0.077 S 
BRANCH  18  19
ATOM     19  C   UNL     1       1.110  -1.620  -6.999  0.00  0.00    +0.193 A 
ATOM     20  N   UNL     1       1.700  -0.453  -7.082  0.00  0.00    -0.121 NA
ATOM     21  N   UNL     1       2.421  -0.417  -8.283  0.00  0.00    -0.113 NA
ATOM     22  C   UNL     1       2.249  -1.563  -8.893  0.00  0.00    +0.215 A 
ATOM     23  N   UNL     1       1.438  -2.339  -8.114  0.00  0.00    -0.294 N 
ATOM     24  C   UNL     1       0.995  -3.701  -8.421  0.00  0.00    +0.154 C 
ATOM     25  N   UNL     1       2.797  -1.928 -10.116  0.00  0.00    -0.328 N 
ATOM     26  H   UNL     1       3.367  -1.307 -10.596  0.00  0.00    +0.145 HD
ATOM     27  H   UNL     1       2.611  -2.803 -10.490  0.00  0.00    +0.145 HD
ENDBRANCH  18  19
ENDBRANCH  17  18
ENDBRANCH   2  17
TORSDOF 6
