REMARK  Name = ZINC04181642
REMARK  4 active torsions:
REMARK  status: ('A' for Active; 'I' for Inactive)
REMARK    1  A    between atoms: C_4  and  O_31
REMARK    2  A    between atoms: C_5  and  C_7
REMARK    3  A    between atoms: N_8  and  C_9
REMARK    4  A    between atoms: C_12  and  C_15
REMARK                            x       y       z     vdW  Elec       q    Type
REMARK                         _______ _______ _______ _____ _____    ______ ____
ROOT
ATOM      1  C   UNL     1      -3.571  -0.834   0.032  0.00  0.00    +0.064 A 
ATOM      2  C   UNL     1      -4.668  -0.364   0.758  0.00  0.00    +0.028 A 
ATOM      3  C   UNL     1      -5.849  -1.076   0.755  0.00  0.00    +0.007 A 
ATOM      4  C   UNL     1      -5.946  -2.259   0.044  0.00  0.00    -0.027 A 
ATOM      5  C   UNL     1      -4.862  -2.734  -0.672  0.00  0.00    +0.007 A 
ATOM      6  C   UNL     1      -3.676  -2.030  -0.683  0.00  0.00    +0.028 A 
ENDROOT
BRANCH   4   7
ATOM      7  C   UNL     1      -7.238  -3.035   0.052  0.00  0.00    +0.105 C 
ATOM      8  C   UNL     1      -8.131  -2.577  -1.088  0.00  0.00    +0.029 C 
ATOM      9  C   UNL     1      -8.405  -1.073  -1.171  0.00  0.00    +0.033 C 
ATOM     10  C   UNL     1      -8.640  -0.904  -2.674  0.00  0.00    -0.030 C 
ATOM     11  C   UNL     1      -7.995  -1.852  -3.344  0.00  0.00    -0.023 C 
ATOM     12  C   UNL     1      -7.259  -2.701  -2.373  0.00  0.00    +0.049 C 
ATOM     13  C   UNL     1      -7.011  -4.138  -2.619  0.00  0.00    -0.019 A 
ATOM     14  C   UNL     1      -6.916  -4.666  -3.888  0.00  0.00    +0.006 A 
ATOM     15  C   UNL     1      -6.661  -6.013  -4.066  0.00  0.00    +0.000 A 
ATOM     16  C   UNL     1      -6.501  -6.837  -2.967  0.00  0.00    +0.002 A 
ATOM     17  C   UNL     1      -6.601  -6.320  -1.692  0.00  0.00    +0.023 A 
ATOM     18  C   UNL     1      -6.863  -4.968  -1.502  0.00  0.00    +0.031 A 
ATOM     19  N   UNL     1      -6.975  -4.468  -0.199  0.00  0.00    -0.336 N 
ATOM     20  H   UNL     1      -6.877  -5.074   0.553  0.00  0.00    +0.147 HD
ENDBRANCH   4   7
BRANCH   1  22
ATOM     21  C   UNL     1      -2.414   1.162  -0.145  0.00  0.00    +0.123 C 
ATOM     22  N   UNL     1      -2.397  -0.130   0.025  0.00  0.00    -0.255 NA
BRANCH  21  27
ATOM     23  C   UNL     1       0.020   4.008  -0.338  0.00  0.00    +0.001 A 
ATOM     24  C   UNL     1       1.225   3.347  -0.164  0.00  0.00    +0.004 A 
ATOM     25  C   UNL     1       1.252   1.978   0.017  0.00  0.00    +0.046 A 
ATOM     26  C   UNL     1       0.070   1.254   0.025  0.00  0.00    +0.125 A 
ATOM     27  C   UNL     1      -1.153   1.919  -0.152  0.00  0.00    +0.034 A 
ATOM     28  C   UNL     1      -1.165   3.306  -0.334  0.00  0.00    +0.013 A 
BRANCH  26  29
ATOM     29  O   UNL     1       0.095  -0.090   0.208  0.00  0.00    -0.506 OA
ATOM     30  H   UNL     1       0.165  -0.598  -0.613  0.00  0.00    +0.292 HD
ENDBRANCH  26  29
ENDBRANCH  21  27
ENDBRANCH   1  22
TORSDOF 4
