REMARK  Name = ZINC39534428
REMARK  10 active torsions:
REMARK  status: ('A' for Active; 'I' for Inactive)
REMARK    1  A    between atoms: C_1  and  C_2
REMARK    2  A    between atoms: C_2  and  C_3
REMARK    3  A    between atoms: C_2  and  S_4
REMARK    4  A    between atoms: S_4  and  C_7
REMARK    5  A    between atoms: C_10  and  C_13
REMARK    6  A    between atoms: C_13  and  C_15
REMARK    7  A    between atoms: C_13  and  N_18
REMARK    8  A    between atoms: C_15  and  N_16
REMARK    9  A    between atoms: C_22  and  C_25
REMARK   10  A    between atoms: C_25  and  C_26
REMARK                            x       y       z     vdW  Elec       q    Type
REMARK                         _______ _______ _______ _____ _____    ______ ____
ROOT
ATOM      1  C   UNL     1      -1.140  -6.621   0.486  0.00  0.00    +0.101 C 
ENDROOT
BRANCH   1   2
ATOM      2  N   UNL     1      -0.265  -6.844   1.644  0.00  0.00    -0.297 NA
ATOM      3  C   UNL     1       0.570  -8.039   1.452  0.00  0.00    +0.066 C 
ATOM      4  C   UNL     1       1.506  -8.202   2.651  0.00  0.00    -0.067 C 
ATOM      5  N   UNL     1       0.712  -8.331   3.879  0.00  0.00    +0.383 N 
ATOM      6  C   UNL     1      -0.098  -7.121   4.071  0.00  0.00    -0.053 C 
ATOM      7  C   UNL     1      -1.048  -6.949   2.883  0.00  0.00    +0.069 C 
ATOM      8  H   UNL     1       0.104  -9.133   3.803  0.00  0.00    -0.085 HD
ATOM      9  H   UNL     1       1.329  -8.451   4.668  0.00  0.00    -0.085 HD
BRANCH   6  10
ATOM     10  C   UNL     1      -0.911  -7.250   5.360  0.00  0.00    +0.020 C 
BRANCH  10  11
ATOM     11  C   UNL     1       0.024  -7.296   6.541  0.00  0.00    -0.049 A 
ATOM     12  C   UNL     1       0.508  -8.509   6.992  0.00  0.00    +0.003 A 
ATOM     13  C   UNL     1       1.366  -8.551   8.076  0.00  0.00    +0.000 A 
ATOM     14  C   UNL     1       1.739  -7.380   8.708  0.00  0.00    +0.000 A 
ATOM     15  C   UNL     1       1.255  -6.166   8.256  0.00  0.00    +0.000 A 
ATOM     16  C   UNL     1       0.401  -6.124   7.170  0.00  0.00    +0.003 A 
ENDBRANCH  10  11
ENDBRANCH   6  10
ENDBRANCH   1   2
BRANCH   1  20
ATOM     17  C   UNL     1      -1.620  -2.425  -0.150  0.00  0.00    +0.088 A 
ATOM     18  C   UNL     1      -1.375  -3.262  -1.222  0.00  0.00    +0.027 A 
ATOM     19  C   UNL     1      -1.219  -4.620  -1.016  0.00  0.00    +0.007 A 
ATOM     20  C   UNL     1      -1.309  -5.141   0.261  0.00  0.00    -0.029 A 
ATOM     21  C   UNL     1      -1.554  -4.303   1.333  0.00  0.00    +0.007 A 
ATOM     22  C   UNL     1      -1.705  -2.944   1.128  0.00  0.00    +0.027 A 
BRANCH  17  23
ATOM     23  S   UNL     1      -1.819  -0.694  -0.413  0.00  0.00    -0.001 S 
ATOM     24  O   UNL     1      -2.621  -0.252   0.674  0.00  0.00    -0.169 OA
ATOM     25  O   UNL     1      -2.286  -0.581  -1.750  0.00  0.00    -0.169 OA
BRANCH  23  27
ATOM     26  C   UNL     1      -0.212   1.520  -0.363  0.00  0.00    +0.032 C 
ATOM     27  C   UNL     1      -0.146  -0.006  -0.275  0.00  0.00    +0.130 C 
ATOM     28  C   UNL     1       0.464  -0.413   1.068  0.00  0.00    +0.032 C 
ENDBRANCH  23  27
ENDBRANCH  17  23
ENDBRANCH   1  20
BRANCH   1  29
ATOM     29  C   UNL     1      -2.507  -7.256   0.749  0.00  0.00    +0.117 C 
BRANCH  29  30
ATOM     30  N   UNL     1      -2.336  -8.688   1.028  0.00  0.00    -0.254 NA
ATOM     31 BR   UNL     1      -3.966  -9.499   1.354  0.00  0.00    +0.010 Br
ATOM     32  H   UNL     1      -1.847  -9.148   0.274  0.00  0.00    +0.135 HD
ENDBRANCH  29  30
ENDBRANCH   1  29
TORSDOF 8
