REMARK  Name = ZINC09635751
REMARK  11 active torsions:
REMARK  status: ('A' for Active; 'I' for Inactive)
REMARK    1  A    between atoms: C_1  and  C_2
REMARK    2  A    between atoms: C_2  and  O_3
REMARK    3  A    between atoms: O_3  and  C_4
REMARK    4  A    between atoms: C_6  and  C_13
REMARK    5  A    between atoms: C_9  and  O_10
REMARK    6  A    between atoms: N_14  and  N_15
REMARK    7  A    between atoms: C_16  and  C_18
REMARK    8  A    between atoms: C_20  and  C_24
REMARK    9  A    between atoms: C_24  and  C_25
REMARK   10  A    between atoms: C_24  and  C_26
REMARK   11  A    between atoms: C_24  and  C_27
REMARK                            x       y       z     vdW  Elec       q    Type
REMARK                         _______ _______ _______ _____ _____    ______ ____
ROOT
ATOM      1  C   UNL     1      -1.263  -0.760   0.011  0.00  0.00    +0.139 C 
ATOM      2  N   UNL     1      -2.397  -0.128   0.025  0.00  0.00    -0.187 NA
ENDROOT
BRANCH   1   5
ATOM      3  C   UNL     1       2.407   0.031  -0.021  0.00  0.00    +0.163 A 
ATOM      4  C   UNL     1       1.224  -0.682  -0.013  0.00  0.00    +0.060 A 
ATOM      5  C   UNL     1       0.002  -0.004   0.002  0.00  0.00    +0.013 A 
ATOM      6  C   UNL     1      -0.017   1.394   0.010  0.00  0.00    +0.044 A 
ATOM      7  C   UNL     1       1.170   2.099   0.002  0.00  0.00    +0.077 A 
ATOM      8  C   UNL     1       2.382   1.424  -0.013  0.00  0.00    +0.174 A 
ATOM      9 BR   UNL     1       1.143   3.990   0.013  0.00  0.00    -0.045 Br
ATOM     10 BR   UNL     1      -1.667   2.318   0.022  0.00  0.00    -0.048 Br
BRANCH   8  11
ATOM     11  O   UNL     1       3.548   2.123  -0.021  0.00  0.00    -0.503 OA
ATOM     12  H   UNL     1       3.876   2.330  -0.906  0.00  0.00    +0.292 HD
ENDBRANCH   8  11
BRANCH   3  13
ATOM     13  O   UNL     1       3.598  -0.627  -0.036  0.00  0.00    -0.489 OA
BRANCH  13  15
ATOM     14  C   UNL     1       4.974  -2.613  -0.061  0.00  0.00    +0.048 C 
ATOM     15  C   UNL     1       3.549  -2.055  -0.044  0.00  0.00    +0.226 C 
ENDBRANCH  13  15
ENDBRANCH   3  13
ENDBRANCH   1   5
BRANCH   2  16
ATOM     16  N   UNL     1      -3.599  -0.847   0.033  0.00  0.00    -0.202 N 
ATOM     17  C   UNL     1      -4.777  -0.191   0.049  0.00  0.00    +0.281 C 
ATOM     18  O   UNL     1      -4.795   1.026   0.055  0.00  0.00    -0.267 OA
ATOM     19  H   UNL     1      -3.585  -1.817   0.028  0.00  0.00    +0.178 HD
BRANCH  17  20
ATOM     20  C   UNL     1      -6.039  -0.946   0.057  0.00  0.00    +0.122 A 
ATOM     21  C   UNL     1      -7.321  -0.421   0.078  0.00  0.00    +0.058 A 
ATOM     22  C   UNL     1      -8.173  -1.528   0.076  0.00  0.00    +0.069 A 
ATOM     23  N   UNL     1      -7.431  -2.606   0.063  0.00  0.00    -0.178 NA
ATOM     24  N   UNL     1      -6.183  -2.304   0.052  0.00  0.00    -0.272 N 
ATOM     25  H   UNL     1      -5.431  -2.963   0.041  0.00  0.00    +0.189 HD
BRANCH  22  26
ATOM     26  C   UNL     1      -9.679  -1.488   0.092  0.00  0.00    +0.006 C 
ATOM     27  C   UNL     1     -10.193  -1.093  -1.294  0.00  0.00    +0.017 C 
ATOM     28  C   UNL     1     -10.223  -2.869   0.463  0.00  0.00    +0.017 C 
ATOM     29  C   UNL     1     -10.151  -0.460   1.122  0.00  0.00    +0.017 C 
ENDBRANCH  22  26
ENDBRANCH  17  20
ENDBRANCH   2  16
TORSDOF 7
