REMARK  Name = ZINC13064609
REMARK  11 active torsions:
REMARK  status: ('A' for Active; 'I' for Inactive)
REMARK    1  A    between atoms: C_1  and  C_2
REMARK    2  A    between atoms: C_2  and  C_3
REMARK    3  A    between atoms: C_3  and  C_5
REMARK    4  A    between atoms: C_3  and  N_69
REMARK    5  A    between atoms: N_9  and  C_10
REMARK    6  A    between atoms: C_16  and  C_17
REMARK    7  A    between atoms: C_16  and  N_69
REMARK    8  A    between atoms: C_22  and  C_23
REMARK    9  A    between atoms: C_22  and  N_69
REMARK   10  A    between atoms: C_27  and  C_36
REMARK   11  A    between atoms: C_28  and  C_35
REMARK                            x       y       z     vdW  Elec       q    Type
REMARK                         _______ _______ _______ _____ _____    ______ ____
ROOT
ATOM      1  N   UNL     1      -5.844   3.143  -1.405  0.00  0.00    +0.392 N 
ATOM      2  H   UNL     1      -5.987   2.128  -1.353  0.00  0.00    -0.080 HD
ENDROOT
BRANCH   1   3
ATOM      3  C   UNL     1      -7.161   3.815  -1.392  0.00  0.00    +0.003 C 
BRANCH   3   4
ATOM      4  C   UNL     1      -6.998   5.301  -1.583  0.00  0.00    +0.138 A 
ATOM      5  N   UNL     1      -6.116   5.900  -2.346  0.00  0.00    -0.115 NA
ATOM      6  N   UNL     1      -6.298   7.171  -2.242  0.00  0.00    -0.023 NA
ATOM      7  N   UNL     1      -7.269   7.399  -1.428  0.00  0.00    -0.044 NA
ATOM      8  N   UNL     1      -7.726   6.271  -1.000  0.00  0.00    -0.228 N 
BRANCH   8   9
ATOM      9  C   UNL     1      -8.832   6.081  -0.057  0.00  0.00    +0.111 C 
ATOM     10  C   UNL     1     -10.143   6.515  -0.715  0.00  0.00    +0.027 C 
ATOM     11  C   UNL     1     -11.297   6.317   0.270  0.00  0.00    +0.002 C 
ATOM     12  C   UNL     1     -11.050   7.162   1.522  0.00  0.00    +0.000 C 
ATOM     13  C   UNL     1      -9.739   6.728   2.179  0.00  0.00    +0.002 C 
ATOM     14  C   UNL     1      -8.585   6.926   1.194  0.00  0.00    +0.027 C 
ENDBRANCH   8   9
ENDBRANCH   3   4
BRANCH   3  16
ATOM     15  C   UNL     1      -8.271   1.758  -2.275  0.00  0.00    +0.002 C 
ATOM     16  C   UNL     1      -8.018   3.246  -2.525  0.00  0.00    -0.011 C 
ENDBRANCH   3  16
ENDBRANCH   1   3
BRANCH   1  17
ATOM     17  C   UNL     1      -5.126   3.463  -2.656  0.00  0.00    -0.034 C 
BRANCH  17  18
ATOM     18  C   UNL     1      -4.044   2.436  -2.868  0.00  0.00    -0.027 A 
ATOM     19  C   UNL     1      -4.101   1.264  -3.548  0.00  0.00    +0.009 A 
ATOM     20  C   UNL     1      -2.971   0.471  -3.612  0.00  0.00    +0.008 A 
ATOM     21  C   UNL     1      -1.839   0.888  -2.994  0.00  0.00    +0.045 A 
ATOM     22  S   UNL     1      -2.353   2.449  -2.296  0.00  0.00    -0.103 S 
ENDBRANCH  17  18
ENDBRANCH   1  17
BRANCH   1  23
ATOM     23  C   UNL     1      -5.045   3.576  -0.239  0.00  0.00    -0.036 C 
BRANCH  23  24
ATOM     24  C   UNL     1      -5.531   2.836   0.981  0.00  0.00    +0.001 A 
ATOM     25  C   UNL     1      -4.937   1.673   1.345  0.00  0.00    +0.017 A 
ATOM     26  C   UNL     1      -5.435   0.976   2.533  0.00  0.00    -0.001 A 
ATOM     27  C   UNL     1      -4.872  -0.235   2.950  0.00  0.00    +0.013 A 
ATOM     28  C   UNL     1      -5.360  -0.861   4.062  0.00  0.00    -0.047 A 
ATOM     29  C   UNL     1      -6.409  -0.306   4.782  0.00  0.00    -0.046 A 
ATOM     30  C   UNL     1      -6.978   0.886   4.390  0.00  0.00    +0.030 A 
ATOM     31  C   UNL     1      -6.502   1.539   3.257  0.00  0.00    +0.049 A 
ATOM     32  N   UNL     1      -7.056   2.730   2.839  0.00  0.00    -0.322 N 
ATOM     33  H   UNL     1      -7.789   3.118   3.341  0.00  0.00    +0.169 HD
ATOM     34  C   UNL     1      -6.595   3.360   1.745  0.00  0.00    +0.251 A 
ATOM     35  O   UNL     1      -7.109   4.412   1.404  0.00  0.00    -0.268 OA
ATOM     36  C   UNL     1      -6.931  -1.015   6.005  0.00  0.00    +0.044 C 
ATOM     37  C   UNL     1      -4.753  -2.166   4.511  0.00  0.00    +0.044 C 
ENDBRANCH  23  24
ENDBRANCH   1  23
TORSDOF 8
