REMARK  Name = ZINC03424222
REMARK  10 active torsions:
REMARK  status: ('A' for Active; 'I' for Inactive)
REMARK    1  A    between atoms: C_1  and  C_2
REMARK    2  A    between atoms: C_2  and  C_4
REMARK    3  A    between atoms: C_2  and  O_15
REMARK    4  A    between atoms: N_6  and  C_7
REMARK    5  A    between atoms: O_15  and  C_16
REMARK    6  A    between atoms: C_16  and  C_18
REMARK    7  A    between atoms: C_22  and  N_23
REMARK    8  A    between atoms: C_24  and  C_26
REMARK    9  A    between atoms: C_26  and  C_27
REMARK   10  A    between atoms: C_26  and  C_28
REMARK                            x       y       z     vdW  Elec       q    Type
REMARK                         _______ _______ _______ _____ _____    ______ ____
ROOT
ATOM      1  C   UNL     1      -0.058  -0.729   2.263  0.00  0.00    +0.343 C 
ATOM      2  O   UNL     1      -1.258  -0.528   2.242  0.00  0.00    -0.245 OA
ENDROOT
BRANCH   1   3
ATOM      3  C   UNL     1       0.581  -1.220   3.485  0.00  0.00    +0.091 A 
ATOM      4  C   UNL     1       1.099  -0.299   4.497  0.00  0.00    -0.021 A 
ATOM      5  C   UNL     1       1.657  -0.907   5.558  0.00  0.00    -0.004 A 
ATOM      6  S   UNL     1       1.493  -2.641   5.218  0.00  0.00    -0.077 S 
ATOM      7  C   UNL     1       0.715  -2.574   3.734  0.00  0.00    +0.086 A 
ATOM      8  C   UNL     1       2.176   0.084   6.564  0.00  0.00    +0.043 C 
ATOM      9  C   UNL     1       2.253   1.420   5.792  0.00  0.00    +0.010 C 
ATOM     10  C   UNL     1       1.186   1.213   4.698  0.00  0.00    +0.037 C 
BRANCH   7  11
ATOM     11  N   UNL     1       0.303  -3.632   2.939  0.00  0.00    -0.279 N 
ATOM     12  C   UNL     1       0.517  -4.900   3.341  0.00  0.00    +0.220 C 
ATOM     13  O   UNL     1       1.069  -5.116   4.398  0.00  0.00    -0.275 OA
ATOM     14  H   UNL     1      -0.139  -3.459   2.093  0.00  0.00    +0.155 HD
BRANCH  12  15
ATOM     15  C   UNL     1       0.069  -6.050   2.476  0.00  0.00    +0.069 C 
ATOM     16  C   UNL     1       0.429  -7.372   3.158  0.00  0.00    +0.017 C 
ATOM     17  C   UNL     1      -1.446  -5.977   2.274  0.00  0.00    +0.017 C 
ENDBRANCH  12  15
ENDBRANCH   7  11
ENDBRANCH   1   3
BRANCH   1  18
ATOM     18  O   UNL     1       0.683  -0.499   1.160  0.00  0.00    -0.449 OA
BRANCH  18  20
ATOM     19  C   UNL     1      -0.032   1.509   0.021  0.00  0.00    +0.062 C 
ATOM     20  C   UNL     1      -0.006  -0.020   0.003  0.00  0.00    +0.259 C 
BRANCH  20  21
ATOM     21  C   UNL     1       0.705  -0.496  -1.238  0.00  0.00    +0.258 C 
ATOM     22  O   UNL     1       1.752  -1.100  -1.143  0.00  0.00    -0.271 OA
ATOM     23  N   UNL     1       0.176  -0.250  -2.453  0.00  0.00    -0.281 N 
ATOM     24  H   UNL     1      -0.692   0.175  -2.527  0.00  0.00    +0.155 HD
BRANCH  23  25
ATOM     25  C   UNL     1       0.882  -0.609  -3.609  0.00  0.00    +0.052 A 
ATOM     26  C   UNL     1       1.666  -1.754  -3.618  0.00  0.00    +0.027 A 
ATOM     27  C   UNL     1       2.361  -2.106  -4.758  0.00  0.00    +0.040 A 
ATOM     28  C   UNL     1       2.276  -1.317  -5.893  0.00  0.00    +0.125 A 
ATOM     29  C   UNL     1       1.496  -0.173  -5.887  0.00  0.00    +0.060 A 
ATOM     30  C   UNL     1       0.794   0.179  -4.750  0.00  0.00    +0.065 A 
ATOM     31 CL   UNL     1      -0.191   1.609  -4.745  0.00  0.00    -0.082 Cl
ATOM     32  F   UNL     1       2.957  -1.663  -7.008  0.00  0.00    -0.205 F 
ENDBRANCH  23  25
ENDBRANCH  20  21
ENDBRANCH  18  20
ENDBRANCH   1  18
TORSDOF 7
