REMARK  Name = ZINC33436059
REMARK  8 active torsions:
REMARK  status: ('A' for Active; 'I' for Inactive)
REMARK    1  A    between atoms: C_1  and  C_2
REMARK    2  A    between atoms: C_2  and  C_3
REMARK    3  A    between atoms: C_2  and  C_4
REMARK    4  A    between atoms: C_2  and  C_5
REMARK    5  A    between atoms: C_15  and  C_16
REMARK    6  A    between atoms: C_15  and  O_20
REMARK    7  A    between atoms: C_23  and  C_26
REMARK    8  A    between atoms: C_26  and  N_28
REMARK                            x       y       z     vdW  Elec       q    Type
REMARK                         _______ _______ _______ _____ _____    ______ ____
ROOT
ATOM      1  C   UNL     1       1.566  -1.964  -0.092  0.00  0.00    +0.041 C 
ATOM      2  C   UNL     1       2.611  -2.043  -1.217  0.00  0.00    +0.010 C 
ATOM      3  C   UNL     1       3.718  -1.018  -0.983  0.00  0.00    +0.001 C 
ATOM      4  C   UNL     1       3.170   0.412  -1.032  0.00  0.00    +0.014 C 
ATOM      5  C   UNL     1       2.198   0.595   0.135  0.00  0.00    +0.097 C 
ATOM      6  C   UNL     1       1.157  -0.510   0.014  0.00  0.00    +0.049 C 
ATOM      7  N   UNL     1       0.002  -0.004   0.002  0.00  0.00    -0.183 NA
ATOM      8  N   UNL     1      -0.017   1.392   0.010  0.00  0.00    -0.160 N 
ATOM      9  C   UNL     1       1.374   1.882  -0.001  0.00  0.00    +0.258 C 
ATOM     10  C   UNL     1      -1.152   2.184   0.020  0.00  0.00    +0.184 A 
ATOM     11  N   UNL     1      -2.420   1.822   0.024  0.00  0.00    -0.221 NA
ATOM     12  C   UNL     1      -3.398   2.729   0.034  0.00  0.00    +0.101 A 
ATOM     13  C   UNL     1      -3.070   4.062   0.040  0.00  0.00    +0.078 A 
ATOM     14  S   UNL     1      -1.284   3.966   0.037  0.00  0.00    -0.058 S 
ENDROOT
BRANCH   1  16
ATOM     15  C   UNL     1      -0.232  -2.369  -1.778  0.00  0.00    +0.011 C 
ATOM     16  C   UNL     1       0.351  -2.826  -0.440  0.00  0.00    -0.030 C 
ATOM     17  C   UNL     1       0.779  -4.292  -0.544  0.00  0.00    +0.011 C 
ATOM     18  C   UNL     1      -0.708  -2.680   0.655  0.00  0.00    +0.011 C 
ENDBRANCH   1  16
BRANCH   9  19
ATOM     19  C   UNL     1       1.628   2.814   1.185  0.00  0.00    +0.438 C 
ATOM     20  F   UNL     1       1.370   2.131   2.379  0.00  0.00    -0.166 F 
ATOM     21  F   UNL     1       2.961   3.237   1.169  0.00  0.00    -0.166 F 
ATOM     22  F   UNL     1       0.785   3.927   1.093  0.00  0.00    -0.166 F 
ENDBRANCH   9  19
BRANCH   9  23
ATOM     23  O   UNL     1       1.668   2.541  -1.234  0.00  0.00    -0.363 OA
ATOM     24  H   UNL     1       1.160   3.483  -1.489  0.00  0.00    +0.212 HD
ENDBRANCH   9  23
BRANCH  12  25
ATOM     25  C   UNL     1      -4.807   2.308   0.040  0.00  0.00    +0.096 C 
ATOM     26  S   UNL     1      -5.202   0.642   0.034  0.00  0.00    -0.034 S 
BRANCH  25  27
ATOM     27  N   UNL     1      -5.787   3.233   0.050  0.00  0.00    -0.351 N 
ATOM     28  H   UNL     1      -6.841   2.918   0.054  0.00  0.00    +0.143 HD
ATOM     29  H   UNL     1      -5.533   4.303   0.054  0.00  0.00    +0.143 HD
ENDBRANCH  25  27
ENDBRANCH  12  25
TORSDOF 5
