REMARK  Name = ZINC12040427
REMARK  12 active torsions:
REMARK  status: ('A' for Active; 'I' for Inactive)
REMARK    1  A    between atoms: C_1  and  C_2
REMARK    2  A    between atoms: C_2  and  C_3
REMARK    3  A    between atoms: C_2  and  C_4
REMARK    4  A    between atoms: C_4  and  C_5
REMARK    5  A    between atoms: C_5  and  C_6
REMARK    6  A    between atoms: C_6  and  C_17
REMARK    7  A    between atoms: N_9  and  C_13
REMARK    8  A    between atoms: C_13  and  C_14
REMARK    9  A    between atoms: C_14  and  N_72
REMARK   10  A    between atoms: C_15  and  N_72
REMARK   11  A    between atoms: C_16  and  N_72
REMARK   12  A    between atoms: C_23  and  C_25
REMARK                            x       y       z     vdW  Elec       q    Type
REMARK                         _______ _______ _______ _____ _____    ______ ____
ROOT
ATOM      1  C   UNL     1      -1.593   5.131   2.476  0.00  0.00    +0.115 C 
ATOM      2  C   UNL     1      -0.185   5.683   2.572  0.00  0.00    +0.247 C 
ATOM      3  O   UNL     1       0.608   5.514   3.473  0.00  0.00    -0.273 OA
ATOM      4  N   UNL     1       0.003   6.400   1.446  0.00  0.00    -0.226 N 
ATOM      5  C   UNL     1      -1.080   6.378   0.661  0.00  0.00    +0.309 C 
ATOM      6  O   UNL     1      -1.151   6.952  -0.409  0.00  0.00    -0.252 OA
ATOM      7  N   UNL     1      -2.081   5.650   1.186  0.00  0.00    -0.285 N 
ATOM      8  H   UNL     1      -2.955   5.496   0.793  0.00  0.00    +0.151 HD
ENDROOT
BRANCH   1   9
ATOM      9  C   UNL     1      -2.454   5.650   3.629  0.00  0.00    +0.024 C 
ATOM     10  C   UNL     1      -3.886   5.134   3.469  0.00  0.00    +0.025 C 
ATOM     11  C   UNL     1      -4.737   5.627   4.644  0.00  0.00    +0.108 C 
ATOM     12  N   UNL     1      -4.628   7.089   4.725  0.00  0.00    -0.298 N 
ATOM     13  C   UNL     1      -3.292   7.696   4.792  0.00  0.00    +0.108 C 
ATOM     14  C   UNL     1      -2.457   7.180   3.615  0.00  0.00    +0.025 C 
ATOM     15  C   UNL     1      -5.734   7.860   4.739  0.00  0.00    +0.257 C 
ATOM     16  O   UNL     1      -5.631   9.067   4.807  0.00  0.00    -0.272 OA
BRANCH  15  17
ATOM     17  C   UNL     1      -7.098   7.223   4.671  0.00  0.00    +0.263 C 
ATOM     18  C   UNL     1      -7.367   6.367   5.931  0.00  0.00    +0.093 C 
ATOM     19  C   UNL     1      -8.847   6.605   6.162  0.00  0.00    -0.002 A 
ATOM     20  C   UNL     1      -9.780   5.948   6.933  0.00  0.00    +0.007 A 
ATOM     21  C   UNL     1     -11.092   6.386   6.952  0.00  0.00    +0.000 A 
ATOM     22  C   UNL     1     -11.461   7.483   6.195  0.00  0.00    +0.004 A 
ATOM     23  C   UNL     1     -10.528   8.145   5.425  0.00  0.00    +0.046 A 
ATOM     24  C   UNL     1      -9.204   7.712   5.403  0.00  0.00    +0.125 A 
ATOM     25  O   UNL     1      -8.131   8.221   4.737  0.00  0.00    -0.479 OA
ENDBRANCH  15  17
ENDBRANCH   1   9
BRANCH   1  26
ATOM     26  C   UNL     1      -1.573   3.601   2.467  0.00  0.00    +0.036 C 
BRANCH  26  27
ATOM     27  C   UNL     1      -0.750   3.109   1.275  0.00  0.00    +0.005 C 
BRANCH  27  29
ATOM     28  C   UNL     1      -0.013   1.086   0.008  0.00  0.00    +0.007 C 
ATOM     29  C   UNL     1      -0.729   1.579   1.267  0.00  0.00    -0.017 C 
ATOM     30  C   UNL     1       0.011   1.072   2.506  0.00  0.00    +0.007 C 
ENDBRANCH  27  29
ENDBRANCH  26  27
ENDBRANCH   1  26
BRANCH   4  31
ATOM     31  C   UNL     1       1.240   7.115   1.122  0.00  0.00    +0.099 C 
BRANCH  31  32
ATOM     32  C   UNL     1       2.176   6.187   0.345  0.00  0.00    -0.060 C 
BRANCH  32  35
ATOM     33  C   UNL     1       4.431   5.985  -0.514  0.00  0.00    -0.097 C 
ATOM     34  C   UNL     1       3.159   8.005  -0.917  0.00  0.00    -0.097 C 
ATOM     35  N   UNL     1       3.427   6.915   0.044  0.00  0.00    +0.377 N 
ATOM     36  H   UNL     1       3.795   7.320   0.913  0.00  0.00    -0.083 HD
ENDBRANCH  32  35
ENDBRANCH  31  32
ENDBRANCH   4  31
TORSDOF 8
