REMARK  Name = ZINC31155964
REMARK  17 active torsions:
REMARK  status: ('A' for Active; 'I' for Inactive)
REMARK    1  A    between atoms: C_3  and  O_39
REMARK    2  A    between atoms: C_6  and  C_7
REMARK    3  A    between atoms: C_7  and  C_8
REMARK    4  A    between atoms: C_8  and  C_9
REMARK    5  A    between atoms: C_9  and  C_10
REMARK    6  A    between atoms: C_10  and  C_11
REMARK    7  A    between atoms: C_11  and  C_13
REMARK    8  A    between atoms: C_11  and  O_22
REMARK    9  A    between atoms: C_13  and  C_14
REMARK   10  A    between atoms: C_14  and  C_15
REMARK   11  A    between atoms: C_18  and  O_21
REMARK   12  A    between atoms: O_22  and  C_23
REMARK   13  A    between atoms: C_25  and  O_38
REMARK   14  A    between atoms: C_27  and  O_37
REMARK   15  A    between atoms: C_29  and  O_36
REMARK   16  A    between atoms: C_31  and  C_34
REMARK   17  A    between atoms: C_34  and  O_35
REMARK                            x       y       z     vdW  Elec       q    Type
REMARK                         _______ _______ _______ _____ _____    ______ ____
ROOT
ATOM      1  C   UNL     1      -4.753  -2.937  -2.853  0.00  0.00    +0.122 C 
ENDROOT
BRANCH   1   2
ATOM      2  O   UNL     1      -5.870  -2.208  -2.342  0.00  0.00    -0.345 OA
BRANCH   2   3
ATOM      3  C   UNL     1      -5.965  -2.214  -0.916  0.00  0.00    +0.282 C 
ATOM      4  C   UNL     1      -7.023  -1.201  -0.470  0.00  0.00    +0.201 C 
ATOM      5  C   UNL     1      -7.162  -1.256   1.054  0.00  0.00    +0.179 C 
ATOM      6  C   UNL     1      -7.515  -2.687   1.472  0.00  0.00    +0.177 C 
ATOM      7  C   UNL     1      -6.438  -3.643   0.951  0.00  0.00    +0.178 C 
ATOM      8  O   UNL     1      -6.338  -3.519  -0.469  0.00  0.00    -0.341 OA
BRANCH   4   9
ATOM      9  O   UNL     1      -6.624   0.113  -0.867  0.00  0.00    -0.384 OA
ATOM     10  H   UNL     1      -6.513   0.218  -1.822  0.00  0.00    +0.210 HD
ENDBRANCH   4   9
BRANCH   5  11
ATOM     11  O   UNL     1      -8.198  -0.365   1.472  0.00  0.00    -0.386 OA
ATOM     12  H   UNL     1      -8.041   0.559   1.234  0.00  0.00    +0.210 HD
ENDBRANCH   5  11
BRANCH   6  13
ATOM     13  O   UNL     1      -7.577  -2.767   2.897  0.00  0.00    -0.386 OA
ATOM     14  H   UNL     1      -8.237  -2.183   3.295  0.00  0.00    +0.210 HD
ENDBRANCH   6  13
BRANCH   7  15
ATOM     15  C   UNL     1      -6.814  -5.081   1.313  0.00  0.00    +0.190 C 
BRANCH  15  16
ATOM     16  O   UNL     1      -5.754  -5.961   0.930  0.00  0.00    -0.392 OA
ATOM     17  H   UNL     1      -5.925  -6.891   1.130  0.00  0.00    +0.210 HD
ENDBRANCH  15  16
ENDBRANCH   7  15
ENDBRANCH   2   3
ENDBRANCH   1   2
BRANCH   1  18
ATOM     18  C   UNL     1      -5.182  -3.725  -4.092  0.00  0.00    +0.036 C 
BRANCH  18  19
ATOM     19  C   UNL     1      -6.209  -4.786  -3.691  0.00  0.00    +0.037 C 
BRANCH  19  20
ATOM     20  C   UNL     1      -6.632  -5.562  -4.912  0.00  0.00    -0.047 A 
ATOM     21  C   UNL     1      -7.707  -5.131  -5.666  0.00  0.00    +0.007 A 
ATOM     22  C   UNL     1      -8.097  -5.841  -6.785  0.00  0.00    +0.045 A 
ATOM     23  C   UNL     1      -7.408  -6.988  -7.152  0.00  0.00    +0.117 A 
ATOM     24  C   UNL     1      -6.329  -7.419  -6.394  0.00  0.00    +0.045 A 
ATOM     25  C   UNL     1      -5.940  -6.702  -5.279  0.00  0.00    +0.007 A 
BRANCH  23  26
ATOM     26  O   UNL     1      -7.790  -7.688  -8.252  0.00  0.00    -0.507 OA
ATOM     27  H   UNL     1      -7.357  -7.405  -9.069  0.00  0.00    +0.292 HD
ENDBRANCH  23  26
ENDBRANCH  19  20
ENDBRANCH  18  19
ENDBRANCH   1  18
BRANCH   1  28
ATOM     28  C   UNL     1      -3.636  -1.961  -3.231  0.00  0.00    +0.032 C 
BRANCH  28  29
ATOM     29  C   UNL     1      -3.110  -1.275  -1.969  0.00  0.00    +0.003 C 
BRANCH  29  30
ATOM     30  C   UNL     1      -2.000  -0.293  -2.347  0.00  0.00    +0.005 C 
BRANCH  30  31
ATOM     31  C   UNL     1      -1.474   0.393  -1.085  0.00  0.00    +0.035 C 
BRANCH  31  37
ATOM     32  C   UNL     1      -0.692   2.672  -1.762  0.00  0.00    +0.007 A 
ATOM     33  C   UNL     1       0.309   3.561  -2.104  0.00  0.00    +0.045 A 
ATOM     34  C   UNL     1       1.629   3.136  -2.142  0.00  0.00    +0.117 A 
ATOM     35  C   UNL     1       1.940   1.819  -1.836  0.00  0.00    +0.045 A 
ATOM     36  C   UNL     1       0.935   0.934  -1.495  0.00  0.00    +0.007 A 
ATOM     37  C   UNL     1      -0.380   1.360  -1.458  0.00  0.00    -0.047 A 
BRANCH  34  38
ATOM     38  O   UNL     1       2.615   4.008  -2.478  0.00  0.00    -0.507 OA
ATOM     39  H   UNL     1       2.996   4.480  -1.725  0.00  0.00    +0.292 HD
ENDBRANCH  34  38
ENDBRANCH  31  37
ENDBRANCH  30  31
ENDBRANCH  29  30
ENDBRANCH  28  29
ENDBRANCH   1  28
TORSDOF 17
