REMARK  Name = ZINC46780330
REMARK  11 active torsions:
REMARK  status: ('A' for Active; 'I' for Inactive)
REMARK    1  A    between atoms: C_1  and  C_2
REMARK    2  A    between atoms: C_2  and  C_3
REMARK    3  A    between atoms: C_3  and  N_4
REMARK    4  A    between atoms: C_5  and  C_7
REMARK    5  A    between atoms: C_11  and  N_13
REMARK    6  A    between atoms: C_14  and  C_16
REMARK    7  A    between atoms: C_16  and  C_18
REMARK    8  A    between atoms: C_16  and  N_21
REMARK    9  A    between atoms: C_18  and  C_19
REMARK   10  A    between atoms: C_18  and  C_20
REMARK   11  A    between atoms: C_22  and  C_24
REMARK                            x       y       z     vdW  Elec       q    Type
REMARK                         _______ _______ _______ _____ _____    ______ ____
ROOT
ATOM      1  C   UNL     1       3.370  -8.942  -5.403  0.00  0.00    +0.162 C 
ENDROOT
BRANCH   1   3
ATOM      2  N   UNL     1       2.406  -7.113  -4.043  0.00  0.00    -0.284 N 
ATOM      3  C   UNL     1       2.413  -8.423  -4.361  0.00  0.00    +0.238 C 
ATOM      4  O   UNL     1       1.648  -9.184  -3.807  0.00  0.00    -0.273 OA
ATOM      5  H   UNL     1       3.013  -6.503  -4.491  0.00  0.00    +0.155 HD
BRANCH   2  10
ATOM      6  C   UNL     1       1.027  -5.118  -1.267  0.00  0.00    +0.038 A 
ATOM      7  C   UNL     1      -0.238  -5.694  -1.140  0.00  0.00    +0.013 A 
ATOM      8  C   UNL     1      -0.612  -6.729  -1.972  0.00  0.00    +0.003 A 
ATOM      9  C   UNL     1       0.263  -7.199  -2.934  0.00  0.00    +0.023 A 
ATOM     10  C   UNL     1       1.525  -6.633  -3.068  0.00  0.00    +0.034 A 
ATOM     11  C   UNL     1       1.908  -5.589  -2.241  0.00  0.00    +0.036 A 
BRANCH   6  13
ATOM     12  N   UNL     1       0.578  -3.556   0.564  0.00  0.00    -0.311 N 
ATOM     13  C   UNL     1       1.431  -4.009  -0.376  0.00  0.00    +0.244 C 
ATOM     14  O   UNL     1       2.531  -3.506  -0.492  0.00  0.00    -0.270 OA
ATOM     15  H   UNL     1      -0.300  -3.958   0.656  0.00  0.00    +0.149 HD
BRANCH  12  16
ATOM     16  C   UNL     1       0.978  -2.457   1.446  0.00  0.00    +0.104 C 
BRANCH  16  18
ATOM     17  C   UNL     1       0.253  -0.991   3.336  0.00  0.00    +0.005 C 
ATOM     18  C   UNL     1      -0.164  -2.139   2.414  0.00  0.00    +0.015 C 
ENDBRANCH  16  18
ENDBRANCH  12  16
ENDBRANCH   6  13
ENDBRANCH   2  10
ENDBRANCH   1   3
BRANCH   1  19
ATOM     19  N   UNL     1       3.474 -10.398  -5.288  0.00  0.00    -0.303 N 
ATOM     20  C   UNL     1       4.582 -11.031  -5.723  0.00  0.00    +0.220 C 
ATOM     21  O   UNL     1       5.493 -10.394  -6.209  0.00  0.00    -0.275 OA
ATOM     22  H   UNL     1       2.746 -10.908  -4.899  0.00  0.00    +0.149 HD
BRANCH  20  23
ATOM     23  C   UNL     1       4.690 -12.529  -5.604  0.00  0.00    +0.048 C 
ATOM     24  C   UNL     1       3.556 -13.186  -6.394  0.00  0.00    +0.019 C 
ATOM     25  C   UNL     1       3.665 -14.707  -6.274  0.00  0.00    -0.009 C 
ATOM     26  C   UNL     1       5.011 -15.168  -6.837  0.00  0.00    +0.007 C 
ATOM     27  C   UNL     1       6.145 -14.511  -6.047  0.00  0.00    -0.009 C 
ATOM     28  C   UNL     1       6.036 -12.990  -6.167  0.00  0.00    +0.019 C 
ATOM     29  C   UNL     1       6.042 -14.916  -4.575  0.00  0.00    +0.007 C 
ATOM     30  C   UNL     1       4.696 -14.455  -4.013  0.00  0.00    -0.009 C 
ATOM     31  C   UNL     1       3.562 -15.111  -4.803  0.00  0.00    +0.007 C 
ATOM     32  C   UNL     1       4.587 -12.934  -4.133  0.00  0.00    +0.019 C 
ENDBRANCH  20  23
ENDBRANCH   1  19
BRANCH   1  33
ATOM     33  C   UNL     1       2.855  -8.575  -6.796  0.00  0.00    +0.012 C 
ATOM     34  C   UNL     1       2.878  -7.055  -6.965  0.00  0.00    +0.009 C 
ATOM     35  C   UNL     1       3.749  -9.221  -7.856  0.00  0.00    +0.009 C 
ENDBRANCH   1  33
TORSDOF 8
