REMARK  Name = ZINC12891941
REMARK  6 active torsions:
REMARK  status: ('A' for Active; 'I' for Inactive)
REMARK    1  A    between atoms: C_1  and  C_2
REMARK    2  A    between atoms: C_5  and  S_7
REMARK    3  A    between atoms: S_7  and  N_10
REMARK    4  A    between atoms: C_14  and  C_17
REMARK    5  A    between atoms: N_19  and  C_20
REMARK    6  A    between atoms: C_25  and  C_26
REMARK                            x       y       z     vdW  Elec       q    Type
REMARK                         _______ _______ _______ _____ _____    ______ ____
ROOT
ATOM      1  C   UNL     1       3.556   2.215  -0.122  0.00  0.00    +0.222 C 
ATOM      2  O   UNL     1       3.538   3.427  -0.115  0.00  0.00    -0.275 OA
ATOM      3  N   UNL     1       2.405   1.522  -0.013  0.00  0.00    -0.285 N 
ATOM      4  H   UNL     1       2.425   0.554   0.048  0.00  0.00    +0.155 HD
ENDROOT
BRANCH   1   9
ATOM      5  N   UNL     1       7.288   1.768  -0.350  0.00  0.00    -0.175 NA
ATOM      6  C   UNL     1       7.559   0.823   0.742  0.00  0.00    +0.109 C 
ATOM      7  C   UNL     1       6.397  -0.171   0.833  0.00  0.00    +0.018 C 
ATOM      8  C   UNL     1       5.082   0.598   0.979  0.00  0.00    +0.015 C 
ATOM      9  C   UNL     1       4.867   1.482  -0.252  0.00  0.00    +0.091 C 
ATOM     10  C   UNL     1       6.011   2.495  -0.355  0.00  0.00    +0.122 C 
BRANCH   5  11
ATOM     11  S   UNL     1       8.401   2.009  -1.552  0.00  0.00    +0.067 S 
ATOM     12  O   UNL     1       8.141   3.297  -2.093  0.00  0.00    -0.152 OA
ATOM     13  O   UNL     1       9.666   1.650  -1.013  0.00  0.00    -0.152 OA
BRANCH  11  18
ATOM     14  C   UNL     1       7.839  -2.493  -5.349  0.00  0.00    +0.051 C 
ATOM     15  C   UNL     1       7.805  -1.217  -4.548  0.00  0.00    -0.011 A 
ATOM     16  C   UNL     1       7.109  -0.078  -4.785  0.00  0.00    +0.013 A 
ATOM     17  C   UNL     1       7.230   0.978  -3.900  0.00  0.00    +0.036 A 
ATOM     18  C   UNL     1       8.049   0.847  -2.828  0.00  0.00    +0.143 A 
ATOM     19  S   UNL     1       8.673  -0.813  -3.041  0.00  0.00    -0.074 S 
ENDBRANCH  11  18
ENDBRANCH   5  11
ENDBRANCH   1   9
BRANCH   3  20
ATOM     20  C   UNL     1       1.183   2.199   0.013  0.00  0.00    +0.041 A 
ATOM     21  C   UNL     1       1.086   3.440   0.625  0.00  0.00    +0.024 A 
ATOM     22  C   UNL     1      -0.123   4.107   0.649  0.00  0.00    +0.002 A 
ATOM     23  C   UNL     1      -1.244   3.544   0.064  0.00  0.00    +0.001 A 
ATOM     24  C   UNL     1      -1.161   2.313  -0.554  0.00  0.00    +0.010 A 
ATOM     25  C   UNL     1       0.051   1.628  -0.580  0.00  0.00    +0.003 A 
BRANCH  25  26
ATOM     26  C   UNL     1       0.143   0.302  -1.237  0.00  0.00    -0.016 A 
ATOM     27  C   UNL     1       1.147   0.053  -2.172  0.00  0.00    +0.008 A 
ATOM     28  C   UNL     1       1.232  -1.185  -2.776  0.00  0.00    +0.001 A 
ATOM     29  C   UNL     1       0.316  -2.174  -2.465  0.00  0.00    +0.000 A 
ATOM     30  C   UNL     1      -0.686  -1.930  -1.543  0.00  0.00    +0.001 A 
ATOM     31  C   UNL     1      -0.777  -0.698  -0.928  0.00  0.00    +0.008 A 
ENDBRANCH  25  26
ENDBRANCH   3  20
TORSDOF 5
