REMARK  Name = ZINC15654386
REMARK  11 active torsions:
REMARK  status: ('A' for Active; 'I' for Inactive)
REMARK    1  A    between atoms: C_1  and  C_2
REMARK    2  A    between atoms: C_5  and  N_8
REMARK    3  A    between atoms: C_9  and  C_30
REMARK    4  A    between atoms: C_11  and  C_17
REMARK    5  A    between atoms: N_19  and  C_20
REMARK    6  A    between atoms: C_23  and  O_28
REMARK    7  A    between atoms: C_25  and  O_26
REMARK    8  A    between atoms: O_26  and  C_27
REMARK    9  A    between atoms: O_28  and  C_29
REMARK   10  A    between atoms: C_35  and  O_36
REMARK   11  A    between atoms: O_36  and  C_37
REMARK                            x       y       z     vdW  Elec       q    Type
REMARK                         _______ _______ _______ _____ _____    ______ ____
ROOT
ATOM      1  N   UNL     1      -4.183   1.971  -1.386  0.00  0.00    -0.263 N 
ATOM      2  C   UNL     1      -4.096   1.283  -0.103  0.00  0.00    +0.127 C 
ATOM      3  C   UNL     1      -2.730   0.613   0.053  0.00  0.00    +0.101 C 
ATOM      4  C   UNL     1      -2.446  -0.228  -1.197  0.00  0.00    +0.024 C 
ATOM      5  C   UNL     1      -2.262   0.724  -2.385  0.00  0.00    +0.097 C 
ATOM      6  C   UNL     1      -3.385   1.720  -2.425  0.00  0.00    +0.220 C 
ATOM      7  O   UNL     1      -3.578   2.328  -3.456  0.00  0.00    -0.275 OA
ENDROOT
BRANCH   1  12
ATOM      8  C   UNL     1      -8.163   5.967  -1.995  0.00  0.00    +0.044 C 
ATOM      9  C   UNL     1      -7.106   4.906  -1.833  0.00  0.00    -0.050 A 
ATOM     10  C   UNL     1      -5.785   5.197  -2.123  0.00  0.00    +0.005 A 
ATOM     11  C   UNL     1      -4.814   4.226  -1.976  0.00  0.00    +0.024 A 
ATOM     12  C   UNL     1      -5.165   2.957  -1.536  0.00  0.00    +0.037 A 
ATOM     13  C   UNL     1      -6.492   2.666  -1.250  0.00  0.00    +0.024 A 
ATOM     14  C   UNL     1      -7.458   3.643  -1.394  0.00  0.00    +0.005 A 
ENDBRANCH   1  12
BRANCH   2  15
ATOM     15  C   UNL     1      -4.291   2.283   1.007  0.00  0.00    +0.016 A 
ATOM     16  C   UNL     1      -4.083   3.628   0.771  0.00  0.00    +0.009 A 
ATOM     17  C   UNL     1      -4.261   4.545   1.790  0.00  0.00    +0.001 A 
ATOM     18  C   UNL     1      -4.649   4.119   3.047  0.00  0.00    +0.004 A 
ATOM     19  C   UNL     1      -4.858   2.776   3.288  0.00  0.00    +0.046 A 
ATOM     20  C   UNL     1      -4.685   1.853   2.266  0.00  0.00    +0.125 A 
BRANCH  20  21
ATOM     21  O   UNL     1      -4.896   0.531   2.499  0.00  0.00    -0.495 OA
ATOM     22  C   UNL     1      -5.300   0.162   3.819  0.00  0.00    +0.277 C 
ENDBRANCH  20  21
ENDBRANCH   2  15
BRANCH   3  23
ATOM     23  C   UNL     1      -1.665   1.668   0.206  0.00  0.00    +0.223 C 
ATOM     24  O   UNL     1      -1.968   2.842   0.197  0.00  0.00    -0.275 OA
ATOM     25  N   UNL     1      -0.374   1.306   0.352  0.00  0.00    -0.282 N 
ATOM     26  H   UNL     1      -0.123   0.371   0.292  0.00  0.00    +0.155 HD
BRANCH  25  27
ATOM     27  C   UNL     1       0.606   2.282   0.586  0.00  0.00    +0.076 A 
ATOM     28  C   UNL     1       0.477   3.544   0.023  0.00  0.00    +0.030 A 
ATOM     29  C   UNL     1       1.440   4.507   0.258  0.00  0.00    +0.047 A 
ATOM     30  C   UNL     1       2.542   4.211   1.046  0.00  0.00    +0.124 A 
ATOM     31  C   UNL     1       2.678   2.950   1.607  0.00  0.00    +0.093 A 
ATOM     32  C   UNL     1       1.712   1.984   1.378  0.00  0.00    +0.145 A 
BRANCH  32  33
ATOM     33  O   UNL     1       1.843   0.747   1.927  0.00  0.00    -0.493 OA
ATOM     34  C   UNL     1       3.002   0.512   2.728  0.00  0.00    +0.277 C 
ENDBRANCH  32  33
BRANCH  30  35
ATOM     35  O   UNL     1       3.491   5.159   1.271  0.00  0.00    -0.495 OA
ATOM     36  C   UNL     1       3.288   6.436   0.663  0.00  0.00    +0.277 C 
ENDBRANCH  30  35
ENDBRANCH  25  27
ENDBRANCH   3  23
TORSDOF 7
