REMARK  Name = ZINC24899138
REMARK  7 active torsions:
REMARK  status: ('A' for Active; 'I' for Inactive)
REMARK    1  A    between atoms: C_1  and  C_2
REMARK    2  A    between atoms: C_2  and  C_4
REMARK    3  A    between atoms: C_2  and  N_12
REMARK    4  A    between atoms: C_13  and  C_15
REMARK    5  A    between atoms: C_15  and  N_16
REMARK    6  A    between atoms: C_19  and  C_23
REMARK    7  A    between atoms: C_19  and  C_24
REMARK                            x       y       z     vdW  Elec       q    Type
REMARK                         _______ _______ _______ _____ _____    ______ ____
ROOT
ATOM      1  N   UNL     1       1.390  -0.473  -0.014  0.00  0.00    -0.215 N 
ATOM      2  C   UNL     1       2.095  -0.715  -1.137  0.00  0.00    +0.251 C 
ATOM      3  O   UNL     1       1.714  -0.590  -2.281  0.00  0.00    -0.272 OA
ATOM      4  C   UNL     1       3.462  -1.175  -0.671  0.00  0.00    +0.135 C 
ATOM      5  N   UNL     1       3.357  -1.142   0.797  0.00  0.00    -0.281 N 
ATOM      6  C   UNL     1       2.112  -0.721   1.085  0.00  0.00    +0.310 C 
ATOM      7  O   UNL     1       1.691  -0.581   2.216  0.00  0.00    -0.252 OA
ATOM      8  C   UNL     1       3.743  -2.597  -1.160  0.00  0.00    +0.047 C 
ATOM      9  H   UNL     1       4.217  -1.435   1.417  0.00  0.00    +0.152 HD
ENDROOT
BRANCH   4  10
ATOM     10  C   UNL     1       4.537  -0.231  -1.147  0.00  0.00    -0.015 A 
ATOM     11  C   UNL     1       4.416   0.393  -2.375  0.00  0.00    +0.006 A 
ATOM     12  C   UNL     1       5.399   1.262  -2.806  0.00  0.00    +0.004 A 
ATOM     13  C   UNL     1       6.512   1.502  -2.018  0.00  0.00    -0.044 A 
ATOM     14  C   UNL     1       6.635   0.874  -0.792  0.00  0.00    -0.044 A 
ATOM     15  C   UNL     1       5.646   0.007  -0.359  0.00  0.00    +0.010 A 
ATOM     16  C   UNL     1       7.928   1.297  -0.128  0.00  0.00    +0.036 C 
ATOM     17  C   UNL     1       8.365   2.576  -0.874  0.00  0.00    +0.009 C 
ATOM     18  C   UNL     1       7.713   2.391  -2.260  0.00  0.00    +0.036 C 
ENDBRANCH   4  10
BRANCH   1  19
ATOM     19  C   UNL     1       0.002  -0.004   0.002  0.00  0.00    +0.213 C 
BRANCH  19  21
ATOM     20  N   UNL     1      -1.195   2.161   0.019  0.00  0.00    -0.307 N 
ATOM     21  C   UNL     1      -0.018   1.503   0.010  0.00  0.00    +0.231 C 
ATOM     22  O   UNL     1       1.024   2.123   0.004  0.00  0.00    -0.274 OA
ATOM     23  H   UNL     1      -2.140   1.598   0.021  0.00  0.00    +0.149 HD
BRANCH  20  25
ATOM     24  C   UNL     1      -1.103   4.145  -1.407  0.00  0.00    +0.033 C 
ATOM     25  C   UNL     1      -1.214   3.626   0.028  0.00  0.00    +0.100 C 
BRANCH  25  26
ATOM     26  C   UNL     1      -2.506   4.107   0.637  0.00  0.00    -0.026 A 
ATOM     27  C   UNL     1      -3.692   3.461   0.341  0.00  0.00    +0.007 A 
ATOM     28  C   UNL     1      -4.877   3.898   0.904  0.00  0.00    +0.022 A 
ATOM     29  C   UNL     1      -4.877   4.990   1.754  0.00  0.00    +0.059 A 
ATOM     30  C   UNL     1      -3.690   5.640   2.046  0.00  0.00    +0.060 A 
ATOM     31  C   UNL     1      -2.505   5.197   1.486  0.00  0.00    +0.027 A 
ATOM     32 CL   UNL     1      -3.689   7.009   3.113  0.00  0.00    -0.082 Cl
ATOM     33 CL   UNL     1      -6.365   5.543   2.456  0.00  0.00    -0.082 Cl
ENDBRANCH  25  26
ENDBRANCH  20  25
ENDBRANCH  19  21
ENDBRANCH   1  19
TORSDOF 5
