REMARK  Name = ZINC05091741
REMARK  3 active torsions:
REMARK  status: ('A' for Active; 'I' for Inactive)
REMARK    1  A    between atoms: C_1  and  N_2
REMARK    2  A    between atoms: C_6  and  N_22
REMARK    3  A    between atoms: C_16  and  O_17
REMARK                            x       y       z     vdW  Elec       q    Type
REMARK                         _______ _______ _______ _____ _____    ______ ____
ROOT
ATOM      1  C   UNL     1      -0.018   1.461   0.010  0.00  0.00    +0.138 C 
ATOM      2  N   UNL     1       0.002  -0.004   0.002  0.00  0.00    -0.269 N 
ATOM      3  C   UNL     1      -1.205  -0.691   0.004  0.00  0.00    +0.045 A 
ATOM      4  C   UNL     1      -2.395   0.022   0.014  0.00  0.00    +0.026 A 
ATOM      5  C   UNL     1      -3.617  -0.632   0.017  0.00  0.00    +0.026 A 
ATOM      6  C   UNL     1      -3.686  -2.012   0.011  0.00  0.00    +0.041 A 
ATOM      7  C   UNL     1      -2.492  -2.770   0.001  0.00  0.00    +0.048 A 
ATOM      8  C   UNL     1      -1.243  -2.097  -0.003  0.00  0.00    +0.019 A 
ATOM      9  C   UNL     1      -0.045  -2.843  -0.012  0.00  0.00    +0.022 A 
ATOM     10  C   UNL     1      -0.090  -4.254  -0.018  0.00  0.00    -0.004 A 
ATOM     11  C   UNL     1       1.090  -5.014  -0.027  0.00  0.00    +0.009 A 
ATOM     12  C   UNL     1       1.019  -6.374  -0.032  0.00  0.00    +0.001 A 
ATOM     13  C   UNL     1      -0.211  -7.027  -0.029  0.00  0.00    +0.001 A 
ATOM     14  C   UNL     1      -1.377  -6.324  -0.021  0.00  0.00    +0.012 A 
ATOM     15  C   UNL     1      -1.344  -4.918  -0.015  0.00  0.00    +0.025 A 
ATOM     16  C   UNL     1      -2.537  -4.171  -0.006  0.00  0.00    +0.134 A 
ATOM     17  C   UNL     1       1.233  -2.123  -0.015  0.00  0.00    +0.126 C 
ATOM     18  N   UNL     1       2.376  -2.767  -0.024  0.00  0.00    -0.294 NA
ATOM     19  C   UNL     1       1.188  -0.636  -0.013  0.00  0.00    +0.269 C 
ATOM     20  O   UNL     1       2.221   0.005  -0.019  0.00  0.00    -0.268 OA
ATOM     21  H   UNL     1       3.211  -2.274  -0.025  0.00  0.00    +0.187 HD
ENDROOT
BRANCH   6  22
ATOM     22  N   UNL     1      -4.920  -2.651   0.014  0.00  0.00    -0.329 N 
ATOM     23  C   UNL     1      -5.580  -2.996   1.281  0.00  0.00    +0.105 C 
ATOM     24  C   UNL     1      -6.997  -2.415   1.272  0.00  0.00    +0.019 C 
ATOM     25  C   UNL     1      -7.737  -2.904   0.024  0.00  0.00    +0.003 C 
ATOM     26  C   UNL     1      -7.006  -2.414  -1.228  0.00  0.00    +0.019 C 
ATOM     27  C   UNL     1      -5.591  -2.990  -1.248  0.00  0.00    +0.105 C 
ENDBRANCH   6  22
BRANCH  16  28
ATOM     28  O   UNL     1      -3.731  -4.808  -0.003  0.00  0.00    -0.505 OA
ATOM     29  H   UNL     1      -4.082  -4.989  -0.885  0.00  0.00    +0.292 HD
ENDBRANCH  16  28
TORSDOF 2
