REMARK  Name = ZINC25530602
REMARK  11 active torsions:
REMARK  status: ('A' for Active; 'I' for Inactive)
REMARK    1  A    between atoms: C_1  and  C_2
REMARK    2  A    between atoms: C_3  and  C_31
REMARK    3  A    between atoms: N_4  and  C_25
REMARK    4  A    between atoms: C_5  and  N_9
REMARK    5  A    between atoms: C_6  and  C_7
REMARK    6  A    between atoms: C_10  and  C_12
REMARK    7  A    between atoms: C_12  and  N_13
REMARK    8  A    between atoms: C_19  and  C_21
REMARK    9  A    between atoms: C_21  and  C_22
REMARK   10  A    between atoms: C_22  and  C_23
REMARK   11  A    between atoms: C_22  and  C_24
REMARK                            x       y       z     vdW  Elec       q    Type
REMARK                         _______ _______ _______ _____ _____    ______ ____
ROOT
ATOM      1  N   UNL     1      -1.546   4.307   0.305  0.00  0.00    -0.272 N 
ATOM      2  C   UNL     1      -2.826   3.890   0.227  0.00  0.00    +0.202 C 
ATOM      3  O   UNL     1      -3.074   2.705   0.154  0.00  0.00    -0.278 OA
ATOM      4  H   UNL     1      -1.323   5.380   0.394  0.00  0.00    +0.156 HD
ENDROOT
BRANCH   1   9
ATOM      5  C   UNL     1       1.398   0.375  -0.881  0.00  0.00    +0.047 C 
ATOM      6  C   UNL     1       0.840   1.619  -0.238  0.00  0.00    -0.011 A 
ATOM      7  C   UNL     1       1.397   2.326   0.757  0.00  0.00    +0.022 A 
ATOM      8  N   UNL     1       0.586   3.384   1.071  0.00  0.00    -0.329 N 
ATOM      9  C   UNL     1      -0.512   3.383   0.272  0.00  0.00    +0.123 A 
ATOM     10  C   UNL     1      -0.420   2.291  -0.579  0.00  0.00    +0.095 A 
ATOM     11  C   UNL     1       2.708   2.004   1.428  0.00  0.00    +0.064 C 
BRANCH   8  12
ATOM     12  C   UNL     1       0.864   4.374   2.114  0.00  0.00    +0.089 C 
ATOM     13  C   UNL     1      -0.294   4.400   3.114  0.00  0.00    +0.025 C 
ATOM     14  C   UNL     1      -0.004   5.434   4.203  0.00  0.00    +0.002 C 
ATOM     15  C   UNL     1       0.151   6.817   3.566  0.00  0.00    +0.000 C 
ATOM     16  C   UNL     1       1.309   6.791   2.566  0.00  0.00    +0.002 C 
ATOM     17  C   UNL     1       1.018   5.756   1.476  0.00  0.00    +0.025 C 
ENDBRANCH   8  12
BRANCH  10  18
ATOM     18  C   UNL     1      -1.361   1.900  -1.585  0.00  0.00    +0.103 C 
ATOM     19  N   UNL     1      -2.108   1.590  -2.383  0.00  0.00    -0.191 NA
ENDBRANCH  10  18
ENDBRANCH   1   9
BRANCH   2  20
ATOM     20  C   UNL     1      -3.948   4.896   0.231  0.00  0.00    +0.019 C 
BRANCH  20  21
ATOM     21  N   UNL     1      -5.237   4.192   0.233  0.00  0.00    +0.387 N 
ATOM     22  C   UNL     1      -5.497   3.566  -1.070  0.00  0.00    -0.059 C 
ATOM     23  C   UNL     1      -6.754   2.695  -0.973  0.00  0.00    +0.089 C 
ATOM     24  N   UNL     1      -7.854   3.519  -0.449  0.00  0.00    -0.305 N 
ATOM     25  C   UNL     1      -7.621   4.287   0.784  0.00  0.00    +0.089 C 
ATOM     26  C   UNL     1      -6.330   5.095   0.618  0.00  0.00    -0.059 C 
ATOM     27  C   UNL     1      -9.043   3.569  -1.081  0.00  0.00    +0.216 C 
ATOM     28  O   UNL     1      -9.939   4.253  -0.635  0.00  0.00    -0.276 OA
ATOM     29  H   UNL     1      -5.185   3.390   0.985  0.00  0.00    -0.081 HD
BRANCH  27  30
ATOM     30  C   UNL     1      -9.259   2.774  -2.343  0.00  0.00    +0.099 C 
BRANCH  30  31
ATOM     31  C   UNL     1     -10.683   3.006  -2.854  0.00  0.00    -0.008 C 
ATOM     32  C   UNL     1     -10.863   2.299  -4.199  0.00  0.00    +0.008 C 
ATOM     33  C   UNL     1     -11.685   2.443  -1.844  0.00  0.00    +0.008 C 
ENDBRANCH  30  31
ENDBRANCH  27  30
ENDBRANCH  20  21
ENDBRANCH   2  20
TORSDOF 7
