REMARK  Name = ZINC15275000
REMARK  6 active torsions:
REMARK  status: ('A' for Active; 'I' for Inactive)
REMARK    1  A    between atoms: C_1  and  C_2
REMARK    2  A    between atoms: C_2  and  C_4
REMARK    3  A    between atoms: C_2  and  S_10
REMARK    4  A    between atoms: S_10  and  C_11
REMARK    5  A    between atoms: C_14  and  C_24
REMARK    6  A    between atoms: N_15  and  C_16
REMARK                            x       y       z     vdW  Elec       q    Type
REMARK                         _______ _______ _______ _____ _____    ______ ____
ROOT
ATOM      1  C   UNL     1      -2.847   0.123   0.947  0.00  0.00    +0.197 A 
ATOM      2  N   UNL     1      -4.049  -0.272   0.589  0.00  0.00    -0.122 NA
ATOM      3  N   UNL     1      -4.391   0.296  -0.512  0.00  0.00    -0.128 NA
ATOM      4  C   UNL     1      -3.433   1.093  -0.923  0.00  0.00    +0.171 A 
ATOM      5  N   UNL     1      -2.410   1.003  -0.005  0.00  0.00    -0.270 N 
ENDROOT
BRANCH   5   6
ATOM      6  C   UNL     1      -1.181   1.677  -0.036  0.00  0.00    +0.052 A 
ATOM      7  C   UNL     1      -0.004   0.968  -0.242  0.00  0.00    +0.028 A 
ATOM      8  C   UNL     1       1.205   1.634  -0.278  0.00  0.00    +0.023 A 
ATOM      9  C   UNL     1       1.246   3.006  -0.103  0.00  0.00    +0.059 A 
ATOM     10  C   UNL     1       0.075   3.715   0.107  0.00  0.00    +0.061 A 
ATOM     11  C   UNL     1      -1.138   3.052   0.143  0.00  0.00    +0.047 A 
ATOM     12 CL   UNL     1       0.130   5.436   0.326  0.00  0.00    -0.082 Cl
ATOM     13 CL   UNL     1       2.768   3.840  -0.148  0.00  0.00    -0.082 Cl
ENDBRANCH   5   6
BRANCH   4  14
ATOM     14  C   UNL     1      -3.447   1.927  -2.143  0.00  0.00    +0.038 A 
ATOM     15  C   UNL     1      -2.255   2.440  -2.669  0.00  0.00    +0.014 A 
ATOM     16  C   UNL     1      -2.323   3.215  -3.813  0.00  0.00    +0.020 A 
ATOM     17  C   UNL     1      -3.555   3.456  -4.396  0.00  0.00    +0.111 A 
ATOM     18  N   UNL     1      -4.662   2.959  -3.879  0.00  0.00    -0.263 NA
ATOM     19  C   UNL     1      -4.649   2.212  -2.794  0.00  0.00    +0.122 A 
ENDBRANCH   4  14
BRANCH   1  20
ATOM     20  S   UNL     1      -1.964  -0.386   2.384  0.00  0.00    -0.073 S 
BRANCH  20  22
ATOM     21  C   UNL     1      -4.421  -0.742   3.525  0.00  0.00    +0.029 C 
ATOM     22  C   UNL     1      -3.172  -1.522   3.109  0.00  0.00    +0.137 C 
BRANCH  22  23
ATOM     23  C   UNL     1      -2.571  -2.190   4.319  0.00  0.00    +0.233 C 
ATOM     24  O   UNL     1      -1.675  -1.647   4.929  0.00  0.00    -0.274 OA
ATOM     25  N   UNL     1      -3.030  -3.391   4.724  0.00  0.00    -0.239 N 
ATOM     26  C   UNL     1      -2.492  -3.988   5.806  0.00  0.00    +0.303 C 
ATOM     27  O   UNL     1      -1.594  -3.443   6.417  0.00  0.00    -0.253 OA
ATOM     28  N   UNL     1      -2.951  -5.189   6.210  0.00  0.00    -0.313 N 
ATOM     29  H   UNL     1      -3.747  -3.826   4.236  0.00  0.00    +0.159 HD
ATOM     30  H   UNL     1      -3.668  -5.624   5.723  0.00  0.00    +0.146 HD
ATOM     31  H   UNL     1      -2.564  -5.619   6.989  0.00  0.00    +0.146 HD
ENDBRANCH  22  23
ENDBRANCH  20  22
ENDBRANCH   1  20
TORSDOF 5
