REMARK  Name = ZINC13253130
REMARK  7 active torsions:
REMARK  status: ('A' for Active; 'I' for Inactive)
REMARK    1  A    between atoms: C_1  and  C_2
REMARK    2  A    between atoms: C_5  and  S_21
REMARK    3  A    between atoms: C_7  and  N_8
REMARK    4  A    between atoms: C_9  and  C_11
REMARK    5  A    between atoms: C_17  and  C_19
REMARK    6  A    between atoms: S_21  and  N_24
REMARK    7  A    between atoms: N_24  and  C_25
REMARK                            x       y       z     vdW  Elec       q    Type
REMARK                         _______ _______ _______ _____ _____    ______ ____
ROOT
ATOM      1  C   UNL     1      -3.289   2.468   3.550  0.00  0.00    +0.045 C 
ATOM      2  C   UNL     1      -2.108   3.020   4.306  0.00  0.00    -0.029 A 
ATOM      3  C   UNL     1      -2.073   2.943   5.685  0.00  0.00    +0.007 A 
ATOM      4  C   UNL     1      -0.990   3.450   6.380  0.00  0.00    +0.029 A 
ATOM      5  C   UNL     1       0.061   4.035   5.697  0.00  0.00    +0.110 A 
ATOM      6  C   UNL     1       0.034   4.110   4.318  0.00  0.00    +0.052 A 
ATOM      7  C   UNL     1      -1.055   3.607   3.618  0.00  0.00    +0.038 A 
ENDROOT
BRANCH   7   8
ATOM      8  N   UNL     1      -1.088   3.687   2.221  0.00  0.00    -0.285 N 
ATOM      9  C   UNL     1      -0.414   4.666   1.586  0.00  0.00    +0.221 C 
ATOM     10  O   UNL     1       0.292   5.424   2.217  0.00  0.00    -0.275 OA
ATOM     11  H   UNL     1      -1.596   3.038   1.710  0.00  0.00    +0.155 HD
BRANCH   9  12
ATOM     12  C   UNL     1      -0.538   4.820   0.092  0.00  0.00    +0.093 C 
ATOM     13  C   UNL     1       0.802   5.264  -0.502  0.00  0.00    +0.040 C 
ATOM     14  C   UNL     1       1.097   6.680  -0.103  0.00  0.00    -0.030 C 
ATOM     15  C   UNL     1       0.209   7.508   0.347  0.00  0.00    -0.030 C 
ATOM     16  C   UNL     1      -1.237   7.162   0.547  0.00  0.00    +0.042 C 
ATOM     17  C   UNL     1      -1.587   5.891  -0.231  0.00  0.00    +0.118 C 
BRANCH  17  18
ATOM     18  C   UNL     1      -2.953   5.404   0.183  0.00  0.00    +0.360 C 
ATOM     19  O   UNL     1      -3.081   4.305   0.667  0.00  0.00    -0.246 OA
ATOM     20  O   UNL     1      -4.026   6.192   0.013  0.00  0.00    -0.246 OA
ENDBRANCH  17  18
ENDBRANCH   9  12
ENDBRANCH   7   8
BRANCH   5  21
ATOM     21  S   UNL     1       1.438   4.679   6.587  0.00  0.00    +0.072 S 
ATOM     22  O   UNL     1       2.107   5.574   5.708  0.00  0.00    -0.150 OA
ATOM     23  O   UNL     1       0.948   5.084   7.857  0.00  0.00    -0.150 OA
BRANCH  21  24
ATOM     24  N   UNL     1       2.477   3.419   6.860  0.00  0.00    -0.216 N 
ATOM     25  H   UNL     1       2.686   3.150   7.768  0.00  0.00    +0.174 HD
BRANCH  24  26
ATOM     26  C   UNL     1       3.054   2.743   5.781  0.00  0.00    +0.048 A 
ATOM     27  C   UNL     1       2.617   1.468   5.446  0.00  0.00    +0.026 A 
ATOM     28  C   UNL     1       3.185   0.804   4.376  0.00  0.00    +0.022 A 
ATOM     29  C   UNL     1       4.196   1.403   3.646  0.00  0.00    +0.041 A 
ATOM     30  C   UNL     1       4.637   2.671   3.981  0.00  0.00    +0.022 A 
ATOM     31  C   UNL     1       4.069   3.342   5.046  0.00  0.00    +0.026 A 
ATOM     32 CL   UNL     1       4.912   0.563   2.306  0.00  0.00    -0.084 Cl
ENDBRANCH  24  26
ENDBRANCH  21  24
ENDBRANCH   5  21
TORSDOF 6
