REMARK  Name = ZINC48262027
REMARK  5 active torsions:
REMARK  status: ('A' for Active; 'I' for Inactive)
REMARK    1  A    between atoms: C_8  and  C_10
REMARK    2  A    between atoms: C_10  and  C_11
REMARK    3  A    between atoms: C_11  and  C_12
REMARK    4  A    between atoms: C_12  and  S_13
REMARK    5  A    between atoms: S_13  and  C_14
REMARK                            x       y       z     vdW  Elec       q    Type
REMARK                         _______ _______ _______ _____ _____    ______ ____
ROOT
ATOM      1  C   UNL     1       3.890  -3.807  -1.499  0.00  0.00    +0.020 C 
ENDROOT
BRANCH   1   2
ATOM      2  C   UNL     1       3.642  -3.377  -0.051  0.00  0.00    +0.097 C 
BRANCH   2  10
ATOM      3  C   UNL     1      -0.017   1.373   0.010  0.00  0.00    +0.002 A 
ATOM      4  C   UNL     1       1.170   2.091   0.002  0.00  0.00    +0.004 A 
ATOM      5  C   UNL     1       2.384   1.437  -0.013  0.00  0.00    +0.048 A 
ATOM      6  C   UNL     1       2.421   0.051  -0.021  0.00  0.00    +0.155 A 
ATOM      7  C   UNL     1       1.223  -0.680  -0.013  0.00  0.00    +0.110 A 
ATOM      8  C   UNL     1       0.002  -0.004   0.002  0.00  0.00    +0.031 A 
ATOM      9  N   UNL     1       1.572  -1.995  -0.024  0.00  0.00    -0.213 NA
ATOM     10  C   UNL     1       2.868  -2.084  -0.037  0.00  0.00    +0.197 A 
ATOM     11  O   UNL     1       3.419  -0.860  -0.036  0.00  0.00    -0.440 OA
ENDBRANCH   2  10
ENDBRANCH   1   2
BRANCH   1  12
ATOM     12  C   UNL     1       4.676  -5.120  -1.514  0.00  0.00    +0.078 C 
BRANCH  12  13
ATOM     13  S   UNL     1       4.970  -5.629  -3.230  0.00  0.00    -0.087 S 
BRANCH  13  14
ATOM     14  C   UNL     1       5.872  -7.135  -3.079  0.00  0.00    +0.173 A 
ATOM     15  N   UNL     1       6.216  -7.708  -1.946  0.00  0.00    -0.229 NA
ATOM     16  C   UNL     1       6.892  -8.835  -2.194  0.00  0.00    +0.139 A 
ATOM     17  C   UNL     1       6.979  -8.981  -3.559  0.00  0.00    +0.067 A 
ATOM     18  N   UNL     1       6.319  -7.893  -4.114  0.00  0.00    -0.295 N 
ATOM     19  C   UNL     1       6.234  -7.767  -5.480  0.00  0.00    +0.094 A 
ATOM     20  C   UNL     1       6.784  -8.693  -6.287  0.00  0.00    +0.018 A 
ATOM     21  C   UNL     1       7.455  -9.809  -5.748  0.00  0.00    +0.003 A 
ATOM     22  C   UNL     1       7.561  -9.952  -4.402  0.00  0.00    +0.028 A 
ENDBRANCH  13  14
ENDBRANCH  12  13
ENDBRANCH   1  12
TORSDOF 5
