REMARK  Name = ZINC22909236
REMARK  9 active torsions:
REMARK  status: ('A' for Active; 'I' for Inactive)
REMARK    1  A    between atoms: C_1  and  C_2
REMARK    2  A    between atoms: C_7  and  N_8
REMARK    3  A    between atoms: C_9  and  C_11
REMARK    4  A    between atoms: C_11  and  N_12
REMARK    5  A    between atoms: N_12  and  C_13
REMARK    6  A    between atoms: C_16  and  S_19
REMARK    7  A    between atoms: S_19  and  N_22
REMARK    8  A    between atoms: C_24  and  C_31
REMARK    9  A    between atoms: C_27  and  C_30
REMARK                            x       y       z     vdW  Elec       q    Type
REMARK                         _______ _______ _______ _____ _____    ______ ____
ROOT
ATOM      1  C   UNL     1       2.476  -3.501   5.970  0.00  0.00    +0.028 A 
ATOM      2  C   UNL     1       1.663  -4.377   5.261  0.00  0.00    +0.025 A 
ATOM      3  C   UNL     1       1.475  -4.198   3.905  0.00  0.00    +0.030 A 
ATOM      4  C   UNL     1       2.096  -3.150   3.251  0.00  0.00    +0.106 A 
ATOM      5  C   UNL     1       2.911  -2.279   3.952  0.00  0.00    +0.030 A 
ATOM      6  C   UNL     1       3.098  -2.448   5.310  0.00  0.00    +0.025 A 
ENDROOT
BRANCH   4   7
ATOM      7  S   UNL     1       1.855  -2.926   1.520  0.00  0.00    +0.061 S 
ATOM      8  O   UNL     1       1.491  -4.195   0.994  0.00  0.00    -0.153 OA
ATOM      9  O   UNL     1       2.978  -2.197   1.044  0.00  0.00    -0.153 OA
BRANCH   7  10
ATOM     10  N   UNL     1       0.537  -1.941   1.333  0.00  0.00    -0.172 NA
ATOM     11  C   UNL     1      -0.819  -2.502   1.221  0.00  0.00    +0.140 C 
ATOM     12  C   UNL     1      -1.495  -1.891  -0.011  0.00  0.00    +0.131 C 
ATOM     13  O   UNL     1      -1.401  -0.466   0.059  0.00  0.00    -0.371 OA
ATOM     14  C   UNL     1      -0.062   0.034   0.038  0.00  0.00    +0.131 C 
ATOM     15  C   UNL     1       0.687  -0.478   1.273  0.00  0.00    +0.140 C 
ATOM     16  C   UNL     1      -0.088   1.564   0.054  0.00  0.00    +0.039 C 
ATOM     17  C   UNL     1      -0.794  -2.387  -1.277  0.00  0.00    +0.039 C 
ENDBRANCH   7  10
ENDBRANCH   4   7
BRANCH   1  18
ATOM     18  N   UNL     1       2.667  -3.678   7.342  0.00  0.00    -0.335 N 
ATOM     19  H   UNL     1       2.174  -4.512   7.863  0.00  0.00    +0.147 HD
BRANCH  18  20
ATOM     20  C   UNL     1       3.525  -2.753   8.087  0.00  0.00    +0.198 C 
BRANCH  20  22
ATOM     21  N   UNL     1       4.296  -2.452  10.418  0.00  0.00    -0.284 N 
ATOM     22  C   UNL     1       3.564  -3.162   9.537  0.00  0.00    +0.234 C 
ATOM     23  O   UNL     1       2.938  -4.131   9.911  0.00  0.00    -0.274 OA
ATOM     24  H   UNL     1       4.936  -1.630  10.065  0.00  0.00    +0.155 HD
BRANCH  21  31
ATOM     25  C   UNL     1       6.517  -1.736  12.047  0.00  0.00    +0.045 C 
ATOM     26  C   UNL     1       5.304  -2.429  12.613  0.00  0.00    -0.029 A 
ATOM     27  C   UNL     1       5.247  -2.735  13.959  0.00  0.00    +0.005 A 
ATOM     28  C   UNL     1       4.135  -3.369  14.479  0.00  0.00    +0.000 A 
ATOM     29  C   UNL     1       3.075  -3.700  13.654  0.00  0.00    +0.002 A 
ATOM     30  C   UNL     1       3.123  -3.393  12.308  0.00  0.00    +0.023 A 
ATOM     31  C   UNL     1       4.242  -2.760  11.782  0.00  0.00    +0.036 A 
ENDBRANCH  21  31
ENDBRANCH  20  22
ENDBRANCH  18  20
ENDBRANCH   1  18
TORSDOF 6
