REMARK  Name = ZINC40949450
REMARK  9 active torsions:
REMARK  status: ('A' for Active; 'I' for Inactive)
REMARK    1  A    between atoms: C_1  and  C_2
REMARK    2  A    between atoms: C_2  and  O_3
REMARK    3  A    between atoms: O_3  and  C_4
REMARK    4  A    between atoms: C_4  and  C_6
REMARK    5  A    between atoms: C_7  and  C_27
REMARK    6  A    between atoms: C_10  and  N_11
REMARK    7  A    between atoms: C_12  and  C_14
REMARK    8  A    between atoms: C_18  and  O_25
REMARK    9  A    between atoms: O_25  and  C_26
REMARK                            x       y       z     vdW  Elec       q    Type
REMARK                         _______ _______ _______ _____ _____    ______ ____
ROOT
ATOM      1  C   UNL     1      -2.841  -2.416   0.016  0.00  0.00    +0.095 A 
ATOM      2  C   UNL     1      -3.552  -2.716  -1.214  0.00  0.00    +0.005 A 
ATOM      3  C   UNL     1      -4.791  -3.249  -1.056  0.00  0.00    +0.056 A 
ATOM      4  S   UNL     1      -4.977  -3.336   0.712  0.00  0.00    -0.080 S 
ATOM      5  C   UNL     1      -3.499  -2.710   1.200  0.00  0.00    +0.087 A 
ENDROOT
BRANCH   2   6
ATOM      6  C   UNL     1      -2.966  -2.457  -2.551  0.00  0.00    -0.016 A 
ATOM      7  C   UNL     1      -2.407  -1.214  -2.841  0.00  0.00    +0.011 A 
ATOM      8  C   UNL     1      -1.862  -0.978  -4.086  0.00  0.00    +0.039 A 
ATOM      9  C   UNL     1      -1.871  -1.975  -5.048  0.00  0.00    +0.123 A 
ATOM     10  C   UNL     1      -2.426  -3.212  -4.765  0.00  0.00    +0.039 A 
ATOM     11  C   UNL     1      -2.968  -3.459  -3.521  0.00  0.00    +0.011 A 
ATOM     12  F   UNL     1      -1.338  -1.739  -6.267  0.00  0.00    -0.205 F 
ENDBRANCH   2   6
BRANCH   5  13
ATOM     13  N   UNL     1      -3.042  -2.527   2.494  0.00  0.00    -0.275 N 
ATOM     14  C   UNL     1      -3.820  -2.871   3.539  0.00  0.00    +0.256 C 
ATOM     15  O   UNL     1      -4.924  -3.344   3.346  0.00  0.00    -0.270 OA
ATOM     16  H   UNL     1      -2.162  -2.150   2.648  0.00  0.00    +0.156 HD
BRANCH  14  17
ATOM     17  C   UNL     1      -3.333  -2.676   4.915  0.00  0.00    +0.122 A 
ATOM     18  C   UNL     1      -4.110  -3.027   6.011  0.00  0.00    +0.032 A 
ATOM     19  C   UNL     1      -3.586  -2.779   7.307  0.00  0.00    +0.022 A 
ATOM     20  C   UNL     1      -4.230  -3.291   8.443  0.00  0.00    +0.057 A 
ATOM     21  C   UNL     1      -3.683  -3.076   9.691  0.00  0.00    +0.121 A 
ATOM     22  C   UNL     1      -2.503  -2.349   9.826  0.00  0.00    +0.049 A 
ATOM     23  C   UNL     1      -1.872  -1.824   8.719  0.00  0.00    +0.050 A 
ATOM     24  C   UNL     1      -2.408  -2.023   7.454  0.00  0.00    +0.139 A 
ATOM     25  O   UNL     1      -1.815  -1.473   6.366  0.00  0.00    -0.422 OA
ATOM     26  C   UNL     1      -2.000  -2.106   5.183  0.00  0.00    +0.350 A 
ATOM     27  O   UNL     1      -1.101  -2.199   4.368  0.00  0.00    -0.244 OA
BRANCH  21  28
ATOM     28  O   UNL     1      -4.300  -3.576  10.795  0.00  0.00    -0.495 OA
ATOM     29  C   UNL     1      -3.681  -3.318  12.057  0.00  0.00    +0.277 C 
ENDBRANCH  21  28
ENDBRANCH  14  17
ENDBRANCH   5  13
BRANCH   1  30
ATOM     30  C   UNL     1      -1.497  -1.838   0.006  0.00  0.00    +0.342 C 
ATOM     31  O   UNL     1      -0.522  -2.566  -0.007  0.00  0.00    -0.245 OA
BRANCH  30  32
ATOM     32  O   UNL     1      -1.339  -0.499   0.012  0.00  0.00    -0.461 OA
BRANCH  32  34
ATOM     33  C   UNL     1      -0.019   1.526   0.010  0.00  0.00    +0.048 C 
ATOM     34  C   UNL     1       0.002  -0.004   0.002  0.00  0.00    +0.229 C 
ENDBRANCH  32  34
ENDBRANCH  30  32
ENDBRANCH   1  30
TORSDOF 7
