REMARK  Name = ZINC33033735
REMARK  10 active torsions:
REMARK  status: ('A' for Active; 'I' for Inactive)
REMARK    1  A    between atoms: C_1  and  C_2
REMARK    2  A    between atoms: C_2  and  C_3
REMARK    3  A    between atoms: C_3  and  C_4
REMARK    4  A    between atoms: C_7  and  S_10
REMARK    5  A    between atoms: S_10  and  N_13
REMARK    6  A    between atoms: N_13  and  C_14
REMARK    7  A    between atoms: C_16  and  C_26
REMARK    8  A    between atoms: C_19  and  N_20
REMARK    9  A    between atoms: N_28  and  C_29
REMARK   10  A    between atoms: C_29  and  C_30
REMARK                            x       y       z     vdW  Elec       q    Type
REMARK                         _______ _______ _______ _____ _____    ______ ____
ROOT
ATOM      1  C   UNL     1       1.091   1.762  -0.271  0.00  0.00    +0.070 A 
ATOM      2  C   UNL     1      -0.216   1.322  -0.196  0.00  0.00    +0.039 A 
ATOM      3  C   UNL     1      -1.242   2.231   0.078  0.00  0.00    +0.039 A 
ATOM      4  C   UNL     1      -0.941   3.580   0.286  0.00  0.00    +0.015 A 
ATOM      5  C   UNL     1       0.364   4.015   0.210  0.00  0.00    +0.026 A 
ATOM      6  C   UNL     1       1.385   3.114  -0.067  0.00  0.00    +0.052 A 
ENDROOT
BRANCH   6   7
ATOM      7  N   UNL     1       2.704   3.558  -0.142  0.00  0.00    -0.332 N 
ATOM      8  C   UNL     1       2.765   5.026  -0.147  0.00  0.00    +0.086 C 
ATOM      9  C   UNL     1       4.220   5.473  -0.311  0.00  0.00    -0.063 C 
ATOM     10  N   UNL     1       5.026   4.919   0.786  0.00  0.00    +0.381 N 
ATOM     11  C   UNL     1       4.964   3.450   0.791  0.00  0.00    -0.063 C 
ATOM     12  C   UNL     1       3.510   3.004   0.955  0.00  0.00    +0.086 C 
ATOM     13  H   UNL     1       6.074   5.229   0.663  0.00  0.00    -0.086 HD
ATOM     14  H   UNL     1       4.643   5.292   1.747  0.00  0.00    -0.086 HD
ENDBRANCH   6   7
BRANCH   3  15
ATOM     15  C   UNL     1      -2.641   1.767   0.152  0.00  0.00    +0.244 C 
ATOM     16  O   UNL     1      -2.901   0.592  -0.025  0.00  0.00    -0.270 OA
ATOM     17  N   UNL     1      -3.629   2.644   0.416  0.00  0.00    -0.309 N 
ATOM     18  H   UNL     1      -3.393   3.707   0.576  0.00  0.00    +0.149 HD
BRANCH  17  19
ATOM     19  C   UNL     1      -5.018   2.183   0.490  0.00  0.00    +0.136 C 
BRANCH  19  20
ATOM     20  C   UNL     1      -5.933   3.369   0.800  0.00  0.00    +0.135 C 
ATOM     21  C   UNL     1      -7.397   2.894   0.879  0.00  0.00    +0.035 C 
ATOM     22  C   UNL     1      -7.847   3.290   2.307  0.00  0.00    +0.031 C 
ATOM     23  C   UNL     1      -6.824   4.394   2.675  0.00  0.00    +0.160 C 
ATOM     24  O   UNL     1      -5.594   3.926   2.080  0.00  0.00    -0.375 OA
ENDBRANCH  19  20
ENDBRANCH  17  19
ENDBRANCH   3  15
BRANCH   1  25
ATOM     25  N   UNL     1       2.122   0.856  -0.550  0.00  0.00    -0.214 N 
ATOM     26  H   UNL     1       2.710   0.421   0.272  0.00  0.00    +0.174 HD
BRANCH  25  27
ATOM     27  S   UNL     1       2.454   0.438  -2.117  0.00  0.00    +0.072 S 
ATOM     28  O   UNL     1       3.550  -0.466  -2.073  0.00  0.00    -0.150 OA
ATOM     29  O   UNL     1       1.212   0.101  -2.720  0.00  0.00    -0.150 OA
BRANCH  27  33
ATOM     30  C   UNL     1       3.939   4.167  -4.211  0.00  0.00    -0.047 A 
ATOM     31  C   UNL     1       4.835   3.325  -3.580  0.00  0.00    +0.005 A 
ATOM     32  C   UNL     1       4.382   2.186  -2.941  0.00  0.00    +0.029 A 
ATOM     33  C   UNL     1       3.032   1.889  -2.932  0.00  0.00    +0.109 A 
ATOM     34  C   UNL     1       2.136   2.728  -3.568  0.00  0.00    +0.029 A 
ATOM     35  C   UNL     1       2.589   3.869  -4.203  0.00  0.00    +0.005 A 
BRANCH  30  36
ATOM     36  C   UNL     1       4.433   5.409  -4.907  0.00  0.00    +0.035 C 
BRANCH  36  38
ATOM     37  C   UNL     1       5.260   6.341  -7.072  0.00  0.00    +0.004 C 
ATOM     38  C   UNL     1       4.758   5.080  -6.366  0.00  0.00    +0.001 C 
ENDBRANCH  36  38
ENDBRANCH  30  36
ENDBRANCH  27  33
ENDBRANCH  25  27
ENDBRANCH   1  25
TORSDOF 9
