REMARK  Name = ZINC15823566
REMARK  9 active torsions:
REMARK  status: ('A' for Active; 'I' for Inactive)
REMARK    1  A    between atoms: C_1  and  C_2
REMARK    2  A    between atoms: C_3  and  C_18
REMARK    3  A    between atoms: C_8  and  C_10
REMARK    4  A    between atoms: C_13  and  O_16
REMARK    5  A    between atoms: O_16  and  C_17
REMARK    6  A    between atoms: C_18  and  C_19
REMARK    7  A    between atoms: C_19  and  N_20
REMARK    8  A    between atoms: N_20  and  S_21
REMARK    9  A    between atoms: S_21  and  C_24
REMARK                            x       y       z     vdW  Elec       q    Type
REMARK                         _______ _______ _______ _____ _____    ______ ____
ROOT
ATOM      1  C   UNL     1       1.725   3.511   0.004  0.00  0.00    +0.066 C 
ATOM      2  C   UNL     1       1.281   2.071   0.001  0.00  0.00    +0.052 A 
ATOM      3  C   UNL     1      -0.022   1.782   0.012  0.00  0.00    +0.016 A 
ATOM      4  S   UNL     1       0.002  -0.004   0.002  0.00  0.00    -0.052 S 
ATOM      5  C   UNL     1       1.767  -0.213  -0.016  0.00  0.00    +0.196 A 
ATOM      6  N   UNL     1       2.222   1.070  -0.013  0.00  0.00    -0.210 N 
ATOM      7  N   UNL     1       3.635   0.940  -0.028  0.00  0.00    -0.144 NA
ATOM      8  C   UNL     1       3.917  -0.343  -0.037  0.00  0.00    +0.183 A 
ATOM      9  N   UNL     1       2.774  -1.040  -0.030  0.00  0.00    -0.200 NA
ENDROOT
BRANCH   8  10
ATOM     10  C   UNL     1       5.282  -0.925  -0.053  0.00  0.00    +0.021 A 
ATOM     11  C   UNL     1       6.397  -0.090  -0.064  0.00  0.00    +0.015 A 
ATOM     12  C   UNL     1       7.665  -0.634  -0.073  0.00  0.00    +0.046 A 
ATOM     13  C   UNL     1       7.829  -2.013  -0.081  0.00  0.00    +0.120 A 
ATOM     14  C   UNL     1       6.720  -2.848  -0.076  0.00  0.00    +0.046 A 
ATOM     15  C   UNL     1       5.450  -2.309  -0.062  0.00  0.00    +0.015 A 
BRANCH  13  16
ATOM     16  O   UNL     1       9.079  -2.546  -0.095  0.00  0.00    -0.495 OA
ATOM     17  C   UNL     1      10.175  -1.630  -0.100  0.00  0.00    +0.277 C 
ENDBRANCH  13  16
ENDBRANCH   8  10
BRANCH   3  18
ATOM     18  C   UNL     1      -1.204   2.717   0.023  0.00  0.00    +0.061 C 
BRANCH  18  19
ATOM     19  C   UNL     1      -1.611   3.041  -1.416  0.00  0.00    +0.111 C 
BRANCH  19  20
ATOM     20  N   UNL     1      -2.760   3.951  -1.405  0.00  0.00    -0.190 NA
ATOM     21  H   UNL     1      -3.271   4.077  -0.590  0.00  0.00    +0.148 HD
BRANCH  20  22
ATOM     22  S   UNL     1      -3.186   4.763  -2.784  0.00  0.00    +0.061 S 
ATOM     23  O   UNL     1      -4.337   5.532  -2.463  0.00  0.00    -0.153 OA
ATOM     24  O   UNL     1      -1.996   5.349  -3.294  0.00  0.00    -0.153 OA
BRANCH  22  25
ATOM     25  C   UNL     1      -3.698   3.556  -3.962  0.00  0.00    +0.140 A 
ATOM     26  C   UNL     1      -5.011   3.526  -4.394  0.00  0.00    +0.031 A 
ATOM     27  C   UNL     1      -5.412   2.583  -5.322  0.00  0.00    +0.002 A 
ATOM     28  C   UNL     1      -4.503   1.663  -5.811  0.00  0.00    +0.003 A 
ATOM     29  C   UNL     1      -3.192   1.688  -5.376  0.00  0.00    +0.040 A 
ATOM     30  C   UNL     1      -2.788   2.635  -4.450  0.00  0.00    +0.150 A 
ATOM     31  F   UNL     1      -1.506   2.660  -4.024  0.00  0.00    -0.203 F 
ENDBRANCH  22  25
ENDBRANCH  20  22
ENDBRANCH  19  20
ENDBRANCH  18  19
ENDBRANCH   3  18
TORSDOF 7
