REMARK  Name = ZINC22436627
REMARK  6 active torsions:
REMARK  status: ('A' for Active; 'I' for Inactive)
REMARK    1  A    between atoms: C_1  and  C_2
REMARK    2  A    between atoms: C_2  and  N_3
REMARK    3  A    between atoms: N_3  and  C_4
REMARK    4  A    between atoms: C_4  and  C_10
REMARK    5  A    between atoms: N_14  and  C_15
REMARK    6  A    between atoms: C_20  and  C_21
REMARK                            x       y       z     vdW  Elec       q    Type
REMARK                         _______ _______ _______ _____ _____    ______ ____
ROOT
ATOM      1  C   UNL     1       4.892  -0.147   0.040  0.00  0.00    +0.146 A 
ATOM      2  N   UNL     1       4.620  -0.918  -0.981  0.00  0.00    -0.114 NA
ATOM      3  N   UNL     1       4.266  -2.087  -0.585  0.00  0.00    -0.023 NA
ATOM      4  N   UNL     1       4.294  -2.148   0.703  0.00  0.00    -0.039 NA
ATOM      5  N   UNL     1       4.707  -0.883   1.157  0.00  0.00    -0.198 N 
ENDROOT
BRANCH   5   6
ATOM      6  C   UNL     1       4.884  -0.471   2.487  0.00  0.00    +0.073 A 
ATOM      7  C   UNL     1       6.106   0.044   2.898  0.00  0.00    +0.028 A 
ATOM      8  C   UNL     1       6.278   0.449   4.207  0.00  0.00    +0.004 A 
ATOM      9  C   UNL     1       5.234   0.342   5.109  0.00  0.00    +0.020 A 
ATOM     10  C   UNL     1       4.016  -0.171   4.702  0.00  0.00    +0.046 A 
ATOM     11  C   UNL     1       3.838  -0.578   3.392  0.00  0.00    -0.007 A 
ATOM     12  C   UNL     1       2.510  -1.137   2.949  0.00  0.00    +0.047 C 
ATOM     13 CL   UNL     1       2.708  -0.304   5.836  0.00  0.00    -0.083 Cl
ENDBRANCH   5   6
BRANCH   1  14
ATOM     14  C   UNL     1       5.334   1.292  -0.020  0.00  0.00    -0.005 C 
ATOM     15  C   UNL     1       4.684   1.976  -1.225  0.00  0.00    -0.005 C 
ATOM     16  C   UNL     1       5.132   3.437  -1.285  0.00  0.00    -0.001 C 
ATOM     17  C   UNL     1       6.655   3.498  -1.424  0.00  0.00    -0.000 C 
ATOM     18  C   UNL     1       7.304   2.815  -0.219  0.00  0.00    -0.001 C 
ATOM     19  C   UNL     1       6.856   1.353  -0.159  0.00  0.00    -0.005 C 
BRANCH  14  20
ATOM     20  N   UNL     1       4.926   1.981   1.212  0.00  0.00    +0.387 N 
ATOM     21  H   UNL     1       5.336   3.001   1.198  0.00  0.00    -0.085 HD
ATOM     22  H   UNL     1       5.336   1.433   2.074  0.00  0.00    -0.085 HD
BRANCH  20  24
ATOM     23  C   UNL     1       3.078   2.814   2.585  0.00  0.00    -0.017 C 
ATOM     24  C   UNL     1       3.463   2.042   1.322  0.00  0.00    -0.085 C 
ENDBRANCH  20  24
ENDBRANCH  14  20
ENDBRANCH   1  14
TORSDOF 4
