REMARK  Name = ZINC13063713
REMARK  16 active torsions:
REMARK  status: ('A' for Active; 'I' for Inactive)
REMARK    1  A    between atoms: C_1  and  C_2
REMARK    2  A    between atoms: C_2  and  C_3
REMARK    3  A    between atoms: C_10  and  C_15
REMARK    4  A    between atoms: C_15  and  N_74
REMARK    5  A    between atoms: C_16  and  C_17
REMARK    6  A    between atoms: C_16  and  N_74
REMARK    7  A    between atoms: C_20  and  C_23
REMARK    8  A    between atoms: C_24  and  C_26
REMARK    9  A    between atoms: C_24  and  C_28
REMARK   10  A    between atoms: C_24  and  N_74
REMARK   11  A    between atoms: C_26  and  C_27
REMARK   12  A    between atoms: N_32  and  C_33
REMARK   13  A    between atoms: C_33  and  C_34
REMARK   14  A    between atoms: C_33  and  C_35
REMARK   15  A    between atoms: C_33  and  C_36
REMARK   16  A    between atoms: C_36  and  C_37
REMARK                            x       y       z     vdW  Elec       q    Type
REMARK                         _______ _______ _______ _____ _____    ______ ____
ROOT
ATOM      1  N   UNL     1       0.763  -1.048   4.111  0.00  0.00    +0.392 N 
ATOM      2  H   UNL     1       0.033  -1.748   3.935  0.00  0.00    -0.080 HD
ENDROOT
BRANCH   1   3
ATOM      3  C   UNL     1       0.410  -0.278   5.322  0.00  0.00    -0.036 C 
BRANCH   3  11
ATOM      4  C   UNL     1      -5.606  -1.665   5.741  0.00  0.00    -0.047 A 
ATOM      5  C   UNL     1      -6.077  -0.373   5.551  0.00  0.00    +0.005 A 
ATOM      6  C   UNL     1      -5.202   0.673   5.358  0.00  0.00    +0.026 A 
ATOM      7  C   UNL     1      -3.831   0.435   5.351  0.00  0.00    +0.049 A 
ATOM      8  C   UNL     1      -3.357  -0.876   5.543  0.00  0.00    -0.001 A 
ATOM      9  C   UNL     1      -4.264  -1.923   5.738  0.00  0.00    +0.013 A 
ATOM     10  C   UNL     1      -1.913  -1.119   5.528  0.00  0.00    +0.017 A 
ATOM     11  C   UNL     1      -1.082  -0.064   5.338  0.00  0.00    +0.001 A 
ATOM     12  C   UNL     1      -1.609   1.232   5.150  0.00  0.00    +0.251 A 
ATOM     13  O   UNL     1      -0.844   2.164   4.977  0.00  0.00    -0.268 OA
ATOM     14  N   UNL     1      -2.933   1.463   5.157  0.00  0.00    -0.322 N 
ATOM     15  H   UNL     1      -3.261   2.366   5.025  0.00  0.00    +0.169 HD
BRANCH   4  17
ATOM     16  C   UNL     1      -6.867  -2.949   7.447  0.00  0.00    +0.009 C 
ATOM     17  C   UNL     1      -6.583  -2.793   5.952  0.00  0.00    +0.032 C 
ENDBRANCH   4  17
ENDBRANCH   3  11
ENDBRANCH   1   3
BRANCH   1  18
ATOM     18  C   UNL     1       2.053  -1.742   4.312  0.00  0.00    -0.042 C 
BRANCH  18  19
ATOM     19  C   UNL     1       2.212  -2.789   3.241  0.00  0.00    -0.064 A 
ATOM     20  C   UNL     1       1.518  -3.982   3.332  0.00  0.00    +0.002 A 
ATOM     21  C   UNL     1       1.660  -4.941   2.346  0.00  0.00    +0.003 A 
ATOM     22  C   UNL     1       2.503  -4.712   1.275  0.00  0.00    -0.050 A 
ATOM     23  C   UNL     1       3.200  -3.522   1.187  0.00  0.00    +0.003 A 
ATOM     24  C   UNL     1       3.055  -2.561   2.170  0.00  0.00    +0.002 A 
ATOM     25  C   UNL     1       2.661  -5.760   0.204  0.00  0.00    +0.044 C 
ENDBRANCH  18  19
ENDBRANCH   1  18
BRANCH   1  26
ATOM     26  C   UNL     1       0.853  -0.144   2.945  0.00  0.00    +0.003 C 
BRANCH  26  27
ATOM     27  C   UNL     1      -0.535   0.076   2.400  0.00  0.00    +0.139 A 
ATOM     28  N   UNL     1      -1.639   0.196   3.095  0.00  0.00    -0.115 NA
ATOM     29  N   UNL     1      -2.613   0.366   2.269  0.00  0.00    -0.023 NA
ATOM     30  N   UNL     1      -2.158   0.363   1.065  0.00  0.00    -0.043 NA
ATOM     31  N   UNL     1      -0.880   0.189   1.104  0.00  0.00    -0.225 N 
BRANCH  31  32
ATOM     32  C   UNL     1       0.025   0.122  -0.047  0.00  0.00    +0.061 C 
ATOM     33  C   UNL     1       0.623  -1.283  -0.144  0.00  0.00    +0.036 C 
ATOM     34  C   UNL     1       1.149   1.145   0.128  0.00  0.00    +0.036 C 
BRANCH  32  35
ATOM     35  C   UNL     1      -0.754   0.434  -1.327  0.00  0.00    +0.026 C 
ATOM     36  C   UNL     1       0.191   0.364  -2.528  0.00  0.00    +0.006 C 
ENDBRANCH  32  35
ENDBRANCH  31  32
ENDBRANCH  26  27
BRANCH  26  37
ATOM     37  C   UNL     1       1.457   1.200   3.357  0.00  0.00    -0.011 C 
ATOM     38  C   UNL     1       2.860   0.975   3.926  0.00  0.00    +0.002 C 
ENDBRANCH  26  37
ENDBRANCH   1  26
TORSDOF 10
