REMARK  Name = ZINC39362619
REMARK  9 active torsions:
REMARK  status: ('A' for Active; 'I' for Inactive)
REMARK    1  A    between atoms: C_1  and  C_2
REMARK    2  A    between atoms: C_2  and  O_3
REMARK    3  A    between atoms: O_3  and  C_4
REMARK    4  A    between atoms: C_7  and  N_10
REMARK    5  A    between atoms: C_11  and  C_25
REMARK    6  A    between atoms: C_15  and  S_16
REMARK    7  A    between atoms: S_16  and  C_17
REMARK    8  A    between atoms: C_17  and  C_18
REMARK    9  A    between atoms: C_25  and  C_26
REMARK                            x       y       z     vdW  Elec       q    Type
REMARK                         _______ _______ _______ _____ _____    ______ ____
ROOT
ATOM      1  N   UNL     1       1.102  -5.937  -1.834  0.00  0.00    -0.258 N 
ATOM      2  C   UNL     1       1.663  -6.642  -3.000  0.00  0.00    +0.187 C 
ATOM      3  N   UNL     1       1.532  -8.066  -2.648  0.00  0.00    -0.246 N 
ATOM      4  N   UNL     1       0.940  -8.102  -1.380  0.00  0.00    -0.162 NA
ATOM      5  C   UNL     1       0.709  -6.915  -0.932  0.00  0.00    +0.180 C 
ATOM      6  H   UNL     1       1.801  -8.826  -3.188  0.00  0.00    +0.170 HD
ENDROOT
BRANCH   1  10
ATOM      7  C   UNL     1       0.776  -1.811  -1.336  0.00  0.00    +0.121 A 
ATOM      8  C   UNL     1      -0.367  -2.588  -1.452  0.00  0.00    +0.047 A 
ATOM      9  C   UNL     1      -0.261  -3.954  -1.618  0.00  0.00    +0.027 A 
ATOM     10  C   UNL     1       0.992  -4.551  -1.667  0.00  0.00    +0.038 A 
ATOM     11  C   UNL     1       2.137  -3.773  -1.550  0.00  0.00    +0.027 A 
ATOM     12  C   UNL     1       2.028  -2.406  -1.391  0.00  0.00    +0.047 A 
BRANCH   7  13
ATOM     13  O   UNL     1       0.670  -0.465  -1.173  0.00  0.00    -0.492 OA
BRANCH  13  15
ATOM     14  C   UNL     1      -0.569   1.597  -0.939  0.00  0.00    +0.048 C 
ATOM     15  C   UNL     1      -0.650   0.080  -1.125  0.00  0.00    +0.225 C 
ENDBRANCH  13  15
ENDBRANCH   7  13
ENDBRANCH   1  10
BRANCH   5  16
ATOM     16  S   UNL     1      -0.022  -6.575   0.635  0.00  0.00    -0.084 S 
BRANCH  16  17
ATOM     17  C   UNL     1      -0.312  -8.218   1.349  0.00  0.00    +0.113 C 
BRANCH  17  18
ATOM     18  C   UNL     1      -0.944  -8.070   2.709  0.00  0.00    -0.019 A 
ATOM     19  C   UNL     1      -0.146  -7.971   3.834  0.00  0.00    +0.006 A 
ATOM     20  C   UNL     1      -0.725  -7.835   5.082  0.00  0.00    +0.000 A 
ATOM     21  C   UNL     1      -2.102  -7.799   5.205  0.00  0.00    +0.001 A 
ATOM     22  C   UNL     1      -2.900  -7.898   4.082  0.00  0.00    +0.020 A 
ATOM     23  C   UNL     1      -2.321  -8.028   2.832  0.00  0.00    +0.045 A 
ATOM     24 CL   UNL     1      -3.323  -8.146   1.419  0.00  0.00    -0.083 Cl
ENDBRANCH  17  18
ENDBRANCH  16  17
ENDBRANCH   5  16
BRANCH   2  25
ATOM     25  C   UNL     1       0.857  -6.320  -4.260  0.00  0.00    +0.097 C 
BRANCH  25  26
ATOM     26  C   UNL     1       1.451  -7.052  -5.436  0.00  0.00    +0.029 A 
ATOM     27  N   UNL     1       2.502  -6.511  -6.123  0.00  0.00    -0.311 N 
ATOM     28  C   UNL     1       3.040  -7.157  -7.174  0.00  0.00    +0.327 A 
ATOM     29  O   UNL     1       3.974  -6.657  -7.771  0.00  0.00    -0.247 OA
ATOM     30  N   UNL     1       2.558  -8.348  -7.574  0.00  0.00    -0.275 N 
ATOM     31  C   UNL     1       1.522  -8.915  -6.923  0.00  0.00    +0.254 A 
ATOM     32  O   UNL     1       1.086  -9.993  -7.284  0.00  0.00    -0.268 OA
ATOM     33  C   UNL     1       0.951  -8.249  -5.812  0.00  0.00    +0.091 A 
ATOM     34  H   UNL     1       2.957  -8.800  -8.334  0.00  0.00    +0.173 HD
ATOM     35  H   UNL     1       2.864  -5.653  -5.851  0.00  0.00    +0.170 HD
ENDBRANCH  25  26
ENDBRANCH   2  25
TORSDOF 8
