REMARK  Name = ZINC07069013
REMARK  10 active torsions:
REMARK  status: ('A' for Active; 'I' for Inactive)
REMARK    1  A    between atoms: C_1  and  C_2
REMARK    2  A    between atoms: C_2  and  C_4
REMARK    3  A    between atoms: C_2  and  N_13
REMARK    4  A    between atoms: C_8  and  N_10
REMARK    5  A    between atoms: N_13  and  C_14
REMARK    6  A    between atoms: C_15  and  C_17
REMARK    7  A    between atoms: C_17  and  C_18
REMARK    8  A    between atoms: C_18  and  C_19
REMARK    9  A    between atoms: C_19  and  N_20
REMARK   10  A    between atoms: C_21  and  C_23
REMARK                            x       y       z     vdW  Elec       q    Type
REMARK                         _______ _______ _______ _____ _____    ______ ____
ROOT
ATOM      1  C   UNL     1      -2.259   1.101  -0.531  0.00  0.00    +0.097 C 
ENDROOT
BRANCH   1   4
ATOM      2  N   UNL     1      -0.467   1.604   1.099  0.00  0.00    -0.298 N 
ATOM      3  C   UNL     1       0.400   1.946  -0.031  0.00  0.00    +0.132 C 
ATOM      4  C   UNL     1      -1.734   1.200   0.879  0.00  0.00    +0.216 C 
ATOM      5  O   UNL     1      -2.452   0.918   1.814  0.00  0.00    -0.276 OA
BRANCH   2   7
ATOM      6  C   UNL     1       1.492   1.212   2.510  0.00  0.00    +0.033 C 
ATOM      7  C   UNL     1       0.043   1.701   2.469  0.00  0.00    +0.103 C 
BRANCH   7   8
ATOM      8  C   UNL     1      -0.016   3.136   2.926  0.00  0.00    -0.025 A 
ATOM      9  C   UNL     1      -0.004   4.159   1.996  0.00  0.00    +0.005 A 
ATOM     10  C   UNL     1      -0.062   5.475   2.416  0.00  0.00    +0.003 A 
ATOM     11  C   UNL     1      -0.123   5.768   3.765  0.00  0.00    +0.033 A 
ATOM     12  C   UNL     1      -0.130   4.746   4.695  0.00  0.00    +0.127 A 
ATOM     13  C   UNL     1      -0.076   3.429   4.276  0.00  0.00    +0.038 A 
BRANCH  12  14
ATOM     14  N   UNL     1      -0.195   5.060   6.140  0.00  0.00    +0.056 N 
ATOM     15  O   UNL     1      -0.201   4.159   6.960  0.00  0.00    -0.126 OA
ATOM     16  O   UNL     1      -0.243   6.220   6.510  0.00  0.00    -0.126 OA
ENDBRANCH  12  14
ENDBRANCH   7   8
ENDBRANCH   2   7
ENDBRANCH   1   4
BRANCH   1  17
ATOM     17  C   UNL     1      -3.712   0.623  -0.501  0.00  0.00    +0.028 C 
BRANCH  17  18
ATOM     18  C   UNL     1      -4.245   0.522  -1.932  0.00  0.00    +0.104 C 
BRANCH  18  19
ATOM     19  N   UNL     1      -5.636   0.065  -1.904  0.00  0.00    -0.315 N 
ATOM     20  C   UNL     1      -6.315  -0.099  -3.057  0.00  0.00    +0.219 C 
ATOM     21  O   UNL     1      -5.774   0.132  -4.117  0.00  0.00    -0.275 OA
ATOM     22  H   UNL     1      -6.069  -0.120  -1.056  0.00  0.00    +0.149 HD
BRANCH  20  23
ATOM     23  C   UNL     1      -7.747  -0.569  -3.028  0.00  0.00    +0.048 C 
ATOM     24  C   UNL     1      -7.819  -1.943  -2.358  0.00  0.00    +0.019 C 
ATOM     25  C   UNL     1      -9.272  -2.420  -2.329  0.00  0.00    -0.009 C 
ATOM     26  C   UNL     1      -9.805  -2.522  -3.759  0.00  0.00    +0.007 C 
ATOM     27  C   UNL     1      -9.732  -1.148  -4.429  0.00  0.00    -0.009 C 
ATOM     28  C   UNL     1      -8.279  -0.671  -4.458  0.00  0.00    +0.019 C 
ATOM     29  C   UNL     1     -10.581  -0.150  -3.639  0.00  0.00    +0.007 C 
ATOM     30  C   UNL     1     -10.049  -0.049  -2.208  0.00  0.00    -0.009 C 
ATOM     31  C   UNL     1     -10.121  -1.423  -1.538  0.00  0.00    +0.007 C 
ATOM     32  C   UNL     1      -8.595   0.429  -2.237  0.00  0.00    +0.019 C 
ENDBRANCH  20  23
ENDBRANCH  18  19
ENDBRANCH  17  18
ENDBRANCH   1  17
TORSDOF 8
