REMARK  Name = ZINC09187730
REMARK  11 active torsions:
REMARK  status: ('A' for Active; 'I' for Inactive)
REMARK    1  A    between atoms: C_1  and  C_2
REMARK    2  A    between atoms: C_2  and  C_3
REMARK    3  A    between atoms: C_3  and  C_4
REMARK    4  A    between atoms: N_10  and  C_13
REMARK    5  A    between atoms: C_13  and  C_14
REMARK    6  A    between atoms: N_20  and  C_21
REMARK    7  A    between atoms: C_21  and  C_23
REMARK    8  A    between atoms: C_21  and  C_34
REMARK    9  A    between atoms: C_23  and  C_24
REMARK   10  A    between atoms: C_34  and  O_36
REMARK   11  A    between atoms: O_36  and  C_37
REMARK                            x       y       z     vdW  Elec       q    Type
REMARK                         _______ _______ _______ _____ _____    ______ ____
ROOT
ATOM      1  C   UNL     1       6.062   0.950  -4.144  0.00  0.00    +0.035 C 
ATOM      2  N   UNL     1       6.241   1.146  -5.465  0.00  0.00    -0.276 NA
ENDROOT
BRANCH   1   3
ATOM      3  C   UNL     1       5.317   1.851  -3.406  0.00  0.00    +0.205 C 
ATOM      4  C   UNL     1       4.574   2.947  -4.053  0.00  0.00    +0.238 C 
ATOM      5  O   UNL     1       4.596   3.089  -5.261  0.00  0.00    -0.274 OA
ATOM      6  N   UNL     1       3.868   3.789  -3.270  0.00  0.00    -0.239 N 
ATOM      7  C   UNL     1       3.836   3.644  -1.938  0.00  0.00    +0.315 C 
ATOM      8  O   UNL     1       3.181   4.437  -1.289  0.00  0.00    -0.252 OA
ATOM      9  N   UNL     1       4.486   2.672  -1.283  0.00  0.00    -0.220 N 
ATOM     10  C   UNL     1       5.236   1.761  -1.937  0.00  0.00    +0.241 C 
ATOM     11  O   UNL     1       5.826   0.887  -1.331  0.00  0.00    -0.274 OA
ATOM     12  H   UNL     1       3.374   4.515  -3.680  0.00  0.00    +0.159 HD
BRANCH   9  13
ATOM     13  C   UNL     1       4.385   2.601   0.177  0.00  0.00    +0.153 C 
BRANCH  13  14
ATOM     14  C   UNL     1       3.213   1.734   0.558  0.00  0.00    -0.030 A 
ATOM     15  C   UNL     1       1.964   2.300   0.733  0.00  0.00    +0.005 A 
ATOM     16  C   UNL     1       0.888   1.504   1.082  0.00  0.00    +0.000 A 
ATOM     17  C   UNL     1       1.062   0.144   1.257  0.00  0.00    +0.000 A 
ATOM     18  C   UNL     1       2.312  -0.421   1.084  0.00  0.00    +0.000 A 
ATOM     19  C   UNL     1       3.387   0.374   0.735  0.00  0.00    +0.005 A 
ENDBRANCH  13  14
ENDBRANCH   9  13
ENDBRANCH   1   3
BRANCH   1  21
ATOM     20  C   UNL     1       8.027   0.134  -2.871  0.00  0.00    +0.010 C 
ATOM     21  C   UNL     1       6.674  -0.251  -3.471  0.00  0.00    +0.048 C 
ENDBRANCH   1  21
BRANCH   2  22
ATOM     22  C   UNL     1       7.030   0.191  -6.247  0.00  0.00    +0.218 C 
BRANCH  22  23
ATOM     23  C   UNL     1       6.149  -0.951  -6.683  0.00  0.00    +0.332 C 
ATOM     24  O   UNL     1       4.981  -0.966  -6.372  0.00  0.00    -0.248 OA
BRANCH  23  25
ATOM     25  O   UNL     1       6.661  -1.952  -7.416  0.00  0.00    -0.466 OA
ATOM     26  C   UNL     1       5.754  -3.019  -7.800  0.00  0.00    +0.280 C 
ENDBRANCH  23  25
ENDBRANCH  22  23
BRANCH  22  27
ATOM     27  C   UNL     1       7.603   0.892  -7.481  0.00  0.00    +0.075 C 
BRANCH  27  28
ATOM     28  C   UNL     1       8.579   1.955  -7.046  0.00  0.00    -0.020 A 
ATOM     29  C   UNL     1       8.315   3.260  -6.875  0.00  0.00    +0.087 A 
ATOM     30  N   UNL     1       9.446   3.916  -6.473  0.00  0.00    -0.360 N 
ATOM     31  H   UNL     1       9.502   4.866  -6.283  0.00  0.00    +0.165 HD
ATOM     32  C   UNL     1      10.495   3.029  -6.382  0.00  0.00    +0.047 A 
ATOM     33  C   UNL     1       9.998   1.761  -6.738  0.00  0.00    +0.003 A 
ATOM     34  C   UNL     1      10.848   0.654  -6.737  0.00  0.00    +0.010 A 
ATOM     35  C   UNL     1      12.161   0.807  -6.390  0.00  0.00    +0.001 A 
ATOM     36  C   UNL     1      12.656   2.055  -6.039  0.00  0.00    +0.002 A 
ATOM     37  C   UNL     1      11.835   3.162  -6.033  0.00  0.00    +0.026 A 
ENDBRANCH  27  28
ENDBRANCH  22  27
ENDBRANCH   2  22
TORSDOF 9
