REMARK  Name = ZINC25581184
REMARK  17 active torsions:
REMARK  status: ('A' for Active; 'I' for Inactive)
REMARK    1  A    between atoms: C_1  and  C_2
REMARK    2  A    between atoms: C_3  and  C_32
REMARK    3  A    between atoms: C_4  and  C_16
REMARK    4  A    between atoms: C_5  and  C_9
REMARK    5  A    between atoms: C_6  and  C_8
REMARK    6  A    between atoms: C_9  and  O_11
REMARK    7  A    between atoms: O_11  and  C_12
REMARK    8  A    between atoms: C_12  and  C_13
REMARK    9  A    between atoms: C_12  and  C_14
REMARK   10  A    between atoms: C_12  and  C_15
REMARK   11  A    between atoms: N_18  and  C_26
REMARK   12  A    between atoms: C_20  and  C_21
REMARK   13  A    between atoms: C_32  and  O_34
REMARK   14  A    between atoms: O_34  and  C_35
REMARK   15  A    between atoms: C_35  and  C_36
REMARK   16  A    between atoms: C_35  and  C_37
REMARK   17  A    between atoms: C_35  and  C_38
REMARK                            x       y       z     vdW  Elec       q    Type
REMARK                         _______ _______ _______ _____ _____    ______ ____
ROOT
ATOM      1  C   UNL     1      -6.740   5.591  -0.416  0.00  0.00    +0.061 C 
ATOM      2  C   UNL     1      -5.461   5.521  -1.209  0.00  0.00    +0.016 C 
ATOM      3  C   UNL     1      -4.412   4.837  -0.719  0.00  0.00    +0.065 C 
ATOM      4  C   UNL     1      -3.115   4.748  -1.470  0.00  0.00    +0.099 C 
ATOM      5  C   UNL     1      -3.303   5.149  -2.906  0.00  0.00    +0.065 C 
ATOM      6  C   UNL     1      -4.396   5.821  -3.309  0.00  0.00    +0.016 C 
ATOM      7  N   UNL     1      -5.380   6.154  -2.419  0.00  0.00    -0.321 N 
ATOM      8  C   UNL     1      -4.538   6.210  -4.757  0.00  0.00    +0.061 C 
ATOM      9  H   UNL     1      -6.109   6.936  -2.680  0.00  0.00    +0.152 HD
ENDROOT
BRANCH   4  10
ATOM     10  C   UNL     1      -2.104   5.662  -0.828  0.00  0.00    +0.011 A 
ATOM     11  C   UNL     1      -2.222   7.000  -0.683  0.00  0.00    +0.119 A 
ATOM     12  N   UNL     1      -1.104   7.452  -0.057  0.00  0.00    -0.239 N 
ATOM     13  N   UNL     1      -0.274   6.353   0.197  0.00  0.00    -0.166 NA
ATOM     14  C   UNL     1      -0.869   5.274  -0.270  0.00  0.00    +0.104 A 
BRANCH  12  15
ATOM     15  C   UNL     1      -0.833   8.784   0.281  0.00  0.00    +0.065 A 
ATOM     16  C   UNL     1      -1.747   9.782  -0.030  0.00  0.00    +0.028 A 
ATOM     17  C   UNL     1      -1.479  11.093   0.310  0.00  0.00    +0.002 A 
ATOM     18  C   UNL     1      -0.296  11.415   0.949  0.00  0.00    +0.000 A 
ATOM     19  C   UNL     1       0.620  10.425   1.255  0.00  0.00    +0.002 A 
ATOM     20  C   UNL     1       0.355   9.111   0.923  0.00  0.00    +0.028 A 
ENDBRANCH  12  15
BRANCH  14  21
ATOM     21  C   UNL     1      -0.336   3.895  -0.213  0.00  0.00    +0.040 A 
ATOM     22  C   UNL     1       0.959   3.466  -0.320  0.00  0.00    +0.018 A 
ATOM     23  C   UNL     1       1.218   2.115  -0.235  0.00  0.00    +0.008 A 
ATOM     24  C   UNL     1       0.186   1.254  -0.050  0.00  0.00    +0.046 A 
ATOM     25  S   UNL     1      -1.217   2.357   0.004  0.00  0.00    -0.095 S 
ENDBRANCH  14  21
ENDBRANCH   4  10
BRANCH   5  26
ATOM     26  C   UNL     1      -2.309   4.814  -3.854  0.00  0.00    +0.338 C 
ATOM     27  O   UNL     1      -2.448   5.133  -5.020  0.00  0.00    -0.245 OA
BRANCH  26  28
ATOM     28  O   UNL     1      -1.206   4.140  -3.466  0.00  0.00    -0.456 OA
BRANCH  28  29
ATOM     29  C   UNL     1      -0.243   3.834  -4.476  0.00  0.00    +0.106 C 
ATOM     30  C   UNL     1       0.268   5.133  -5.103  0.00  0.00    +0.055 C 
ATOM     31  C   UNL     1       0.928   3.074  -3.852  0.00  0.00    +0.055 C 
ATOM     32  C   UNL     1      -0.895   2.968  -5.557  0.00  0.00    +0.055 C 
ENDBRANCH  28  29
ENDBRANCH  26  28
ENDBRANCH   5  26
BRANCH   3  33
ATOM     33  C   UNL     1      -4.534   4.188   0.532  0.00  0.00    +0.338 C 
ATOM     34  O   UNL     1      -4.644   2.978   0.581  0.00  0.00    -0.245 OA
BRANCH  33  35
ATOM     35  O   UNL     1      -4.526   4.912   1.671  0.00  0.00    -0.456 OA
BRANCH  35  36
ATOM     36  C   UNL     1      -4.652   4.191   2.898  0.00  0.00    +0.106 C 
ATOM     37  C   UNL     1      -3.492   3.203   3.031  0.00  0.00    +0.055 C 
ATOM     38  C   UNL     1      -4.623   5.172   4.072  0.00  0.00    +0.055 C 
ATOM     39  C   UNL     1      -5.977   3.426   2.906  0.00  0.00    +0.055 C 
ENDBRANCH  35  36
ENDBRANCH  33  35
ENDBRANCH   3  33
TORSDOF 9
