REMARK  Name = ZINC20082914
REMARK  14 active torsions:
REMARK  status: ('A' for Active; 'I' for Inactive)
REMARK    1  A    between atoms: C_1  and  C_2
REMARK    2  A    between atoms: C_12  and  C_14
REMARK    3  A    between atoms: C_14  and  C_16
REMARK    4  A    between atoms: C_14  and  N_25
REMARK    5  A    between atoms: N_20  and  C_21
REMARK    6  A    between atoms: C_21  and  C_22
REMARK    7  A    between atoms: C_22  and  O_23
REMARK    8  A    between atoms: O_23  and  C_24
REMARK    9  A    between atoms: N_25  and  C_26
REMARK   10  A    between atoms: N_25  and  C_35
REMARK   11  A    between atoms: C_26  and  C_27
REMARK   12  A    between atoms: C_30  and  O_33
REMARK   13  A    between atoms: O_33  and  C_34
REMARK   14  A    between atoms: C_35  and  C_36
REMARK                            x       y       z     vdW  Elec       q    Type
REMARK                         _______ _______ _______ _____ _____    ______ ____
ROOT
ATOM      1  C   UNL     1      -0.203  -2.540   4.362  0.00  0.00    +0.163 C 
ENDROOT
BRANCH   1  13
ATOM      2  C   UNL     1      -2.326   0.460  -1.088  0.00  0.00    +0.046 C 
ATOM      3  C   UNL     1      -2.195  -1.002  -0.743  0.00  0.00    -0.026 A 
ATOM      4  C   UNL     1      -2.562  -1.964  -1.658  0.00  0.00    +0.005 A 
ATOM      5  C   UNL     1      -2.439  -3.313  -1.355  0.00  0.00    +0.001 A 
ATOM      6  C   UNL     1      -1.965  -3.712  -0.137  0.00  0.00    +0.010 A 
ATOM      7  C   UNL     1      -1.593  -2.753   0.810  0.00  0.00    -0.001 A 
ATOM      8  C   UNL     1      -1.709  -1.383   0.503  0.00  0.00    +0.052 A 
ATOM      9  N   UNL     1      -1.340  -0.442   1.440  0.00  0.00    -0.322 N 
ATOM     10  H   UNL     1      -1.427   0.630   1.207  0.00  0.00    +0.169 HD
ATOM     11  C   UNL     1      -0.871  -0.812   2.645  0.00  0.00    +0.254 A 
ATOM     12  O   UNL     1      -0.554   0.048   3.449  0.00  0.00    -0.268 OA
ATOM     13  C   UNL     1      -0.734  -2.170   3.001  0.00  0.00    +0.042 A 
ATOM     14  C   UNL     1      -1.080  -3.145   2.124  0.00  0.00    +0.021 A 
ENDBRANCH   1  13
BRANCH   1  15
ATOM     15  C   UNL     1       1.228  -2.084   4.484  0.00  0.00    +0.173 A 
ATOM     16  N   UNL     1       1.642  -0.873   4.768  0.00  0.00    -0.111 NA
ATOM     17  N   UNL     1       2.930  -0.886   4.782  0.00  0.00    -0.023 NA
ATOM     18  N   UNL     1       3.349  -2.072   4.507  0.00  0.00    -0.044 NA
ATOM     19  N   UNL     1       2.329  -2.839   4.317  0.00  0.00    -0.225 N 
BRANCH  19  20
ATOM     20  C   UNL     1       2.364  -4.265   3.982  0.00  0.00    +0.175 C 
BRANCH  20  21
ATOM     21  C   UNL     1       2.388  -4.431   2.461  0.00  0.00    +0.183 C 
BRANCH  21  22
ATOM     22  O   UNL     1       2.422  -5.822   2.135  0.00  0.00    -0.381 OA
ATOM     23  C   UNL     1       2.447  -6.089   0.731  0.00  0.00    +0.194 C 
ENDBRANCH  21  22
ENDBRANCH  20  21
ENDBRANCH  19  20
ENDBRANCH   1  15
BRANCH   1  24
ATOM     24  N   UNL     1      -1.015  -1.887   5.398  0.00  0.00    -0.280 NA
BRANCH  24  25
ATOM     25  C   UNL     1      -0.712  -2.435   6.727  0.00  0.00    +0.121 C 
BRANCH  25  26
ATOM     26  C   UNL     1       0.587  -1.857   7.225  0.00  0.00    -0.033 A 
ATOM     27  C   UNL     1       1.764  -2.565   7.065  0.00  0.00    +0.008 A 
ATOM     28  C   UNL     1       2.958  -2.034   7.515  0.00  0.00    +0.046 A 
ATOM     29  C   UNL     1       2.973  -0.795   8.138  0.00  0.00    +0.120 A 
ATOM     30  C   UNL     1       1.790  -0.089   8.302  0.00  0.00    +0.046 A 
ATOM     31  C   UNL     1       0.600  -0.621   7.845  0.00  0.00    +0.008 A 
BRANCH  29  32
ATOM     32  O   UNL     1       4.145  -0.273   8.586  0.00  0.00    -0.495 OA
ATOM     33  C   UNL     1       5.324  -1.056   8.383  0.00  0.00    +0.277 C 
ENDBRANCH  29  32
ENDBRANCH  25  26
ENDBRANCH  24  25
BRANCH  24  34
ATOM     34  C   UNL     1      -2.448  -2.003   5.095  0.00  0.00    +0.122 C 
BRANCH  34  35
ATOM     35  C   UNL     1      -3.223  -1.039   5.956  0.00  0.00    -0.015 A 
ATOM     36  C   UNL     1      -3.804  -1.466   7.140  0.00  0.00    +0.008 A 
ATOM     37  C   UNL     1      -4.504  -0.543   7.902  0.00  0.00    +0.020 A 
ATOM     38  C   UNL     1      -4.607   0.761   7.454  0.00  0.00    +0.111 A 
ATOM     39  N   UNL     1      -4.046   1.130   6.319  0.00  0.00    -0.263 NA
ATOM     40  C   UNL     1      -3.369   0.281   5.572  0.00  0.00    +0.115 A 
ENDBRANCH  34  35
ENDBRANCH  24  34
ENDBRANCH   1  24
TORSDOF 11
