REMARK  Name = ZINC01368009
REMARK  4 active torsions:
REMARK  status: ('A' for Active; 'I' for Inactive)
REMARK    1  A    between atoms: C_6  and  N_7
REMARK    2  A    between atoms: C_8  and  C_10
REMARK    3  A    between atoms: C_10  and  S_11
REMARK    4  A    between atoms: S_11  and  C_12
REMARK                            x       y       z     vdW  Elec       q    Type
REMARK                         _______ _______ _______ _____ _____    ______ ____
ROOT
ATOM      1  S   UNL     1       6.945  -3.493   4.274  0.00  0.00    -0.078 S 
ENDROOT
BRANCH   1   2
ATOM      2  C   UNL     1       8.542  -3.299   4.993  0.00  0.00    +0.170 A 
ATOM      3  N   UNL     1       9.104  -4.339   5.675  0.00  0.00    -0.301 N 
ATOM      4  H   UNL     1       8.600  -5.198   5.761  0.00  0.00    +0.171 HD
ATOM      5  C   UNL     1      10.323  -4.229   6.234  0.00  0.00    +0.261 A 
ATOM      6  O   UNL     1      10.814  -5.169   6.836  0.00  0.00    -0.267 OA
ATOM      7  C   UNL     1      11.034  -2.993   6.115  0.00  0.00    +0.075 A 
ATOM      8  C   UNL     1      12.358  -2.654   6.642  0.00  0.00    -0.023 A 
ATOM      9  C   UNL     1      12.815  -1.410   6.393  0.00  0.00    -0.004 A 
ATOM     10  S   UNL     1      11.530  -0.626   5.458  0.00  0.00    -0.073 S 
ATOM     11  C   UNL     1      10.379  -1.976   5.402  0.00  0.00    +0.117 A 
ATOM     12  N   UNL     1       9.175  -2.149   4.870  0.00  0.00    -0.216 NA
ATOM     13  C   UNL     1      14.126  -0.823   6.819  0.00  0.00    +0.043 C 
ATOM     14  C   UNL     1      14.731  -1.725   7.904  0.00  0.00    +0.005 C 
ATOM     15  C   UNL     1      14.653  -3.180   7.434  0.00  0.00    +0.005 C 
ATOM     16  C   UNL     1      13.198  -3.649   7.437  0.00  0.00    +0.037 C 
ENDBRANCH   1   2
BRANCH   1  17
ATOM     17  C   UNL     1       6.728  -1.852   3.542  0.00  0.00    +0.173 C 
BRANCH  17  19
ATOM     18  N   UNL     1       5.010  -0.649   2.231  0.00  0.00    -0.285 N 
ATOM     19  C   UNL     1       5.390  -1.783   2.851  0.00  0.00    +0.227 C 
ATOM     20  O   UNL     1       4.656  -2.748   2.854  0.00  0.00    -0.275 OA
ATOM     21  H   UNL     1       5.627   0.097   2.162  0.00  0.00    +0.155 HD
BRANCH  18  27
ATOM     22  C   UNL     1       2.657  -1.190   2.296  0.00  0.00    +0.027 A 
ATOM     23  C   UNL     1       1.388  -1.091   1.758  0.00  0.00    +0.051 A 
ATOM     24  C   UNL     1       1.177  -0.348   0.608  0.00  0.00    +0.166 A 
ATOM     25  C   UNL     1       2.245   0.300  -0.007  0.00  0.00    +0.168 A 
ATOM     26  C   UNL     1       3.517   0.200   0.532  0.00  0.00    +0.072 A 
ATOM     27  C   UNL     1       3.724  -0.546   1.685  0.00  0.00    +0.037 A 
ATOM     28  O   UNL     1       1.781   0.958  -1.110  0.00  0.00    -0.453 OA
ATOM     29  C   UNL     1       0.354   1.043  -0.933  0.00  0.00    +0.466 C 
ATOM     30  O   UNL     1       0.042  -0.095  -0.109  0.00  0.00    -0.453 OA
ENDBRANCH  18  27
ENDBRANCH  17  19
ENDBRANCH   1  17
TORSDOF 4
