REMARK  Name = ZINC35532261
REMARK  9 active torsions:
REMARK  status: ('A' for Active; 'I' for Inactive)
REMARK    1  A    between atoms: C_1  and  O_2
REMARK    2  A    between atoms: O_2  and  C_3
REMARK    3  A    between atoms: C_6  and  O_37
REMARK    4  A    between atoms: C_7  and  C_9
REMARK    5  A    between atoms: C_14  and  S_18
REMARK    6  A    between atoms: S_18  and  C_19
REMARK    7  A    between atoms: C_19  and  C_20
REMARK    8  A    between atoms: C_23  and  N_26
REMARK    9  A    between atoms: O_37  and  C_38
REMARK                            x       y       z     vdW  Elec       q    Type
REMARK                         _______ _______ _______ _____ _____    ______ ____
ROOT
ATOM      1  C   UNL     1       1.387  -4.132   2.207  0.00  0.00    +0.096 C 
ATOM      2  C   UNL     1      -0.007  -4.683   2.259  0.00  0.00    +0.069 A 
ATOM      3  C   UNL     1      -0.594  -5.234   1.133  0.00  0.00    +0.135 A 
ATOM      4  N   UNL     1      -1.840  -5.714   1.200  0.00  0.00    -0.208 NA
ATOM      5  C   UNL     1      -2.525  -5.676   2.325  0.00  0.00    +0.171 A 
ATOM      6  N   UNL     1      -1.991  -5.148   3.462  0.00  0.00    -0.302 N 
ATOM      7  C   UNL     1      -0.738  -4.646   3.452  0.00  0.00    +0.258 A 
ATOM      8  O   UNL     1      -0.252  -4.169   4.465  0.00  0.00    -0.267 OA
ATOM      9  N   UNL     1       0.115  -5.288  -0.051  0.00  0.00    -0.302 N 
ATOM     10  C   UNL     1       1.479  -5.175  -0.053  0.00  0.00    +0.017 C 
ATOM     11  C   UNL     1       2.131  -4.639   0.998  0.00  0.00    +0.024 C 
ATOM     12  C   UNL     1       3.534  -4.537   1.001  0.00  0.00    +0.162 C 
ATOM     13  O   UNL     1       4.093  -4.043   1.960  0.00  0.00    -0.292 OA
ATOM     14  C   UNL     1       4.356  -5.027  -0.159  0.00  0.00    +0.080 C 
ATOM     15  C   UNL     1       3.608  -6.170  -0.853  0.00  0.00    +0.014 C 
ATOM     16  C   UNL     1       2.230  -5.661  -1.269  0.00  0.00    +0.051 C 
ATOM     17  H   UNL     1      -0.359  -5.407  -0.889  0.00  0.00    +0.153 HD
ATOM     18  H   UNL     1      -2.513  -5.132   4.279  0.00  0.00    +0.171 HD
ENDROOT
BRANCH   1  23
ATOM     19  C   UNL     1       0.626  -0.619   1.042  0.00  0.00    +0.121 A 
ATOM     20  C   UNL     1       1.202   0.139   2.051  0.00  0.00    +0.049 A 
ATOM     21  C   UNL     1       1.837  -0.485   3.107  0.00  0.00    +0.049 A 
ATOM     22  C   UNL     1       1.897  -1.870   3.159  0.00  0.00    +0.124 A 
ATOM     23  C   UNL     1       1.321  -2.628   2.151  0.00  0.00    +0.010 A 
ATOM     24  C   UNL     1       0.682  -2.003   1.097  0.00  0.00    +0.053 A 
BRANCH  19  26
ATOM     25  C   UNL     1      -0.017   1.425   0.010  0.00  0.00    +0.277 C 
ATOM     26  O   UNL     1       0.002  -0.004   0.002  0.00  0.00    -0.495 OA
ENDBRANCH  19  26
BRANCH  22  27
ATOM     27  O   UNL     1       2.522  -2.485   4.199  0.00  0.00    -0.495 OA
ATOM     28  C   UNL     1       3.094  -1.642   5.202  0.00  0.00    +0.277 C 
ENDBRANCH  22  27
ENDBRANCH   1  23
BRANCH   5  29
ATOM     29  S   UNL     1      -4.164  -6.320   2.360  0.00  0.00    -0.083 S 
BRANCH  29  30
ATOM     30  C   UNL     1      -4.444  -6.901   0.664  0.00  0.00    +0.112 C 
BRANCH  30  31
ATOM     31  C   UNL     1      -5.829  -7.484   0.555  0.00  0.00    -0.037 A 
ATOM     32  C   UNL     1      -6.036  -8.827   0.808  0.00  0.00    +0.007 A 
ATOM     33  C   UNL     1      -7.306  -9.362   0.708  0.00  0.00    +0.033 A 
ATOM     34  C   UNL     1      -8.371  -8.554   0.354  0.00  0.00    +0.126 A 
ATOM     35  C   UNL     1      -8.164  -7.210   0.102  0.00  0.00    +0.033 A 
ATOM     36  C   UNL     1      -6.894  -6.675   0.206  0.00  0.00    +0.007 A 
BRANCH  34  37
ATOM     37  N   UNL     1      -9.731  -9.127   0.246  0.00  0.00    +0.056 N 
ATOM     38  O   UNL     1      -9.912 -10.302   0.467  0.00  0.00    -0.126 OA
ATOM     39  O   UNL     1     -10.662  -8.420  -0.063  0.00  0.00    -0.126 OA
ENDBRANCH  34  37
ENDBRANCH  30  31
ENDBRANCH  29  30
ENDBRANCH   5  29
TORSDOF 7
