REMARK  Name = ZINC14160964
REMARK  9 active torsions:
REMARK  status: ('A' for Active; 'I' for Inactive)
REMARK    1  A    between atoms: C_1  and  C_2
REMARK    2  A    between atoms: C_5  and  N_9
REMARK    3  A    between atoms: C_6  and  C_8
REMARK    4  A    between atoms: N_9  and  C_10
REMARK    5  A    between atoms: C_10  and  N_12
REMARK    6  A    between atoms: C_17  and  C_22
REMARK    7  A    between atoms: C_19  and  C_21
REMARK    8  A    between atoms: N_26  and  C_29
REMARK    9  A    between atoms: C_29  and  C_30
REMARK                            x       y       z     vdW  Elec       q    Type
REMARK                         _______ _______ _______ _____ _____    ______ ____
ROOT
ATOM      1  N   UNL     1      10.126  -3.114  -0.021  0.00  0.00    -0.163 NA
ATOM      2  C   UNL     1       8.902  -3.358  -0.459  0.00  0.00    +0.180 C 
ATOM      3  N   UNL     1       8.542  -4.632  -0.810  0.00  0.00    -0.258 N 
ATOM      4  C   UNL     1       7.294  -4.871  -1.369  0.00  0.00    +0.222 A 
ATOM      5  N   UNL     1       6.427  -3.875  -1.463  0.00  0.00    -0.219 NA
ATOM      6  C   UNL     1       5.231  -4.067  -1.996  0.00  0.00    +0.044 A 
ATOM      7  C   UNL     1       4.888  -5.332  -2.446  0.00  0.00    +0.046 A 
ATOM      8  C   UNL     1       5.818  -6.353  -2.327  0.00  0.00    +0.044 A 
ATOM      9  N   UNL     1       6.998  -6.091  -1.790  0.00  0.00    -0.219 NA
ATOM     10  C   UNL     1       5.489  -7.744  -2.804  0.00  0.00    +0.066 C 
ATOM     11  C   UNL     1       4.252  -2.927  -2.105  0.00  0.00    +0.066 C 
ATOM     12  N   UNL     1       7.998  -2.341  -0.561  0.00  0.00    -0.302 N 
ATOM     13  C   UNL     1       7.995  -1.448  -1.729  0.00  0.00    +0.123 C 
ATOM     14  C   UNL     1       8.015   0.002  -1.234  0.00  0.00    +0.103 C 
ATOM     15  N   UNL     1       6.907   0.209  -0.292  0.00  0.00    -0.295 NA
ATOM     16  C   UNL     1       7.060  -0.632   0.903  0.00  0.00    +0.103 C 
ATOM     17  C   UNL     1       7.001  -2.108   0.495  0.00  0.00    +0.123 C 
ATOM     18  H   UNL     1       9.242  -5.465  -0.649  0.00  0.00    +0.157 HD
ENDROOT
BRANCH   1  19
ATOM     19  C   UNL     1      10.422  -1.918   0.507  0.00  0.00    +0.161 C 
ATOM     20  S   UNL     1       9.713  -1.438   1.990  0.00  0.00    -0.016 S 
BRANCH  19  21
ATOM     21  N   UNL     1      11.279  -1.094  -0.128  0.00  0.00    -0.295 N 
ATOM     22  H   UNL     1      11.661  -1.361  -1.125  0.00  0.00    +0.154 HD
BRANCH  21  27
ATOM     23  C   UNL     1      12.913   3.747   2.335  0.00  0.00    +0.044 C 
ATOM     24  C   UNL     1      12.479   2.461   1.681  0.00  0.00    -0.050 A 
ATOM     25  C   UNL     1      12.415   1.296   2.424  0.00  0.00    +0.005 A 
ATOM     26  C   UNL     1      12.018   0.115   1.827  0.00  0.00    +0.024 A 
ATOM     27  C   UNL     1      11.682   0.099   0.479  0.00  0.00    +0.036 A 
ATOM     28  C   UNL     1      11.752   1.269  -0.265  0.00  0.00    -0.029 A 
ATOM     29  C   UNL     1      12.145   2.448   0.339  0.00  0.00    +0.008 A 
ATOM     30  C   UNL     1      11.395   1.255  -1.729  0.00  0.00    +0.045 C 
ENDBRANCH  21  27
ENDBRANCH  19  21
ENDBRANCH   1  19
BRANCH  15  31
ATOM     31  C   UNL     1       6.785   1.627   0.075  0.00  0.00    +0.119 C 
BRANCH  31  32
ATOM     32  C   UNL     1       5.504   1.840   0.838  0.00  0.00    -0.030 A 
ATOM     33  C   UNL     1       5.494   1.721   2.216  0.00  0.00    +0.009 A 
ATOM     34  C   UNL     1       4.321   1.915   2.921  0.00  0.00    +0.050 A 
ATOM     35  C   UNL     1       3.151   2.230   2.248  0.00  0.00    +0.166 A 
ATOM     36  C   UNL     1       3.161   2.350   0.860  0.00  0.00    +0.167 A 
ATOM     37  C   UNL     1       4.341   2.154   0.160  0.00  0.00    +0.054 A 
ATOM     38  O   UNL     1       1.901   2.662   0.440  0.00  0.00    -0.453 OA
ATOM     39  C   UNL     1       1.210   3.133   1.613  0.00  0.00    +0.466 C 
ATOM     40  O   UNL     1       1.884   2.467   2.697  0.00  0.00    -0.453 OA
ENDBRANCH  31  32
ENDBRANCH  15  31
TORSDOF 5
