REMARK  Name = ZINC09886605
REMARK  10 active torsions:
REMARK  status: ('A' for Active; 'I' for Inactive)
REMARK    1  A    between atoms: C_1  and  C_2
REMARK    2  A    between atoms: C_2  and  C_3
REMARK    3  A    between atoms: C_2  and  C_4
REMARK    4  A    between atoms: C_4  and  C_6
REMARK    5  A    between atoms: C_4  and  N_25
REMARK    6  A    between atoms: N_8  and  N_9
REMARK    7  A    between atoms: C_10  and  C_11
REMARK    8  A    between atoms: C_13  and  N_22
REMARK    9  A    between atoms: C_16  and  N_17
REMARK   10  A    between atoms: C_26  and  C_28
REMARK                            x       y       z     vdW  Elec       q    Type
REMARK                         _______ _______ _______ _____ _____    ______ ____
ROOT
ATOM      1  C   UNL     1      -2.441   1.609  -1.289  0.00  0.00    +0.253 C 
ATOM      2  O   UNL     1      -3.268   2.486  -1.155  0.00  0.00    -0.272 OA
ATOM      3  N   UNL     1      -2.789   0.321  -1.097  0.00  0.00    -0.205 N 
ATOM      4  H   UNL     1      -2.140  -0.385  -1.250  0.00  0.00    +0.177 HD
ENDROOT
BRANCH   3   5
ATOM      5  N   UNL     1      -4.086   0.000  -0.677  0.00  0.00    -0.188 NA
ATOM      6  C   UNL     1      -4.393  -1.230  -0.398  0.00  0.00    +0.140 C 
BRANCH   6   7
ATOM      7  C   UNL     1      -5.784  -1.585  -0.065  0.00  0.00    +0.018 A 
ATOM      8  C   UNL     1      -6.100  -2.884   0.338  0.00  0.00    +0.044 A 
ATOM      9  C   UNL     1      -7.403  -3.210   0.648  0.00  0.00    +0.127 A 
ATOM     10  C   UNL     1      -8.402  -2.254   0.564  0.00  0.00    +0.034 A 
ATOM     11  C   UNL     1      -8.104  -0.965   0.168  0.00  0.00    +0.026 A 
ATOM     12  C   UNL     1      -6.798  -0.618  -0.144  0.00  0.00    +0.039 A 
BRANCH  12  13
ATOM     13  N   UNL     1      -6.494   0.684  -0.538  0.00  0.00    -0.329 N 
ATOM     14  C   UNL     1      -7.389   1.129  -1.637  0.00  0.00    +0.105 C 
ATOM     15  C   UNL     1      -7.285   2.674  -1.575  0.00  0.00    +0.020 C 
ATOM     16  C   UNL     1      -7.207   2.954  -0.057  0.00  0.00    +0.020 C 
ATOM     17  C   UNL     1      -6.712   1.638   0.570  0.00  0.00    +0.105 C 
ENDBRANCH  12  13
BRANCH   9  18
ATOM     18  N   UNL     1      -7.736  -4.588   1.075  0.00  0.00    +0.056 N 
ATOM     19  O   UNL     1      -6.860  -5.431   1.150  0.00  0.00    -0.126 OA
ATOM     20  O   UNL     1      -8.887  -4.879   1.350  0.00  0.00    -0.126 OA
ENDBRANCH   9  18
ENDBRANCH   6   7
ENDBRANCH   3   5
BRANCH   1  21
ATOM     21  C   UNL     1      -1.026   1.959  -1.669  0.00  0.00    +0.163 C 
BRANCH  21  22
ATOM     22  N   UNL     1      -0.966   3.359  -2.094  0.00  0.00    -0.300 N 
ATOM     23  C   UNL     1       0.009   3.769  -2.929  0.00  0.00    +0.245 C 
ATOM     24  O   UNL     1       0.839   2.977  -3.330  0.00  0.00    -0.270 OA
ATOM     25  H   UNL     1      -1.629   3.992  -1.774  0.00  0.00    +0.150 HD
BRANCH  23  26
ATOM     26  C   UNL     1       0.069   5.183  -3.358  0.00  0.00    +0.037 A 
ATOM     27  C   UNL     1      -0.887   6.094  -2.904  0.00  0.00    +0.014 A 
ATOM     28  C   UNL     1      -0.822   7.412  -3.302  0.00  0.00    +0.021 A 
ATOM     29  C   UNL     1       0.181   7.831  -4.161  0.00  0.00    +0.041 A 
ATOM     30  C   UNL     1       1.128   6.930  -4.620  0.00  0.00    +0.021 A 
ATOM     31  C   UNL     1       1.077   5.610  -4.223  0.00  0.00    +0.014 A 
ATOM     32 CL   UNL     1       0.252   9.491  -4.664  0.00  0.00    -0.084 Cl
ENDBRANCH  23  26
ENDBRANCH  21  22
BRANCH  21  34
ATOM     33  C   UNL     1      -0.068   0.266  -0.101  0.00  0.00    +0.009 C 
ATOM     34  C   UNL     1      -0.107   1.752  -0.463  0.00  0.00    +0.012 C 
ATOM     35  C   UNL     1       1.304   2.231  -0.809  0.00  0.00    +0.009 C 
ENDBRANCH  21  34
ENDBRANCH   1  21
TORSDOF 8
