REMARK  Name = ZINC35938710
REMARK  6 active torsions:
REMARK  status: ('A' for Active; 'I' for Inactive)
REMARK    1  A    between atoms: C_1  and  C_2
REMARK    2  A    between atoms: C_7  and  C_8
REMARK    3  A    between atoms: N_17  and  C_18
REMARK    4  A    between atoms: C_18  and  C_19
REMARK    5  A    between atoms: C_19  and  C_20
REMARK    6  A    between atoms: C_28  and  C_30
REMARK                            x       y       z     vdW  Elec       q    Type
REMARK                         _______ _______ _______ _____ _____    ______ ____
ROOT
ATOM      1  C   UNL     1      -3.308  -2.256   4.971  0.00  0.00    +0.214 C 
ATOM      2  O   UNL     1      -4.132  -1.716   4.264  0.00  0.00    -0.276 OA
ATOM      3  N   UNL     1      -3.650  -3.337   5.700  0.00  0.00    -0.299 N 
ATOM      4  C   UNL     1      -2.663  -3.998   6.566  0.00  0.00    +0.126 C 
ATOM      5  C   UNL     1      -3.225  -4.058   7.992  0.00  0.00    +0.127 C 
ATOM      6  N   UNL     1      -4.591  -4.596   7.936  0.00  0.00    -0.295 N 
ATOM      7  C   UNL     1      -5.578  -3.935   7.071  0.00  0.00    +0.127 C 
ATOM      8  C   UNL     1      -5.018  -3.871   5.649  0.00  0.00    +0.126 C 
ATOM      9  C   UNL     1      -4.933  -5.676   8.666  0.00  0.00    +0.247 C 
ATOM     10  O   UNL     1      -4.130  -6.171   9.433  0.00  0.00    -0.270 OA
ENDROOT
BRANCH   9  11
ATOM     11  C   UNL     1      -6.282  -6.258   8.533  0.00  0.00    +0.045 A 
ATOM     12  C   UNL     1      -7.408  -5.469   8.714  0.00  0.00    +0.014 A 
ATOM     13  C   UNL     1      -8.680  -6.011   8.591  0.00  0.00    +0.001 A 
ATOM     14  C   UNL     1      -8.860  -7.328   8.290  0.00  0.00    +0.008 A 
ATOM     15  C   UNL     1      -7.747  -8.166   8.098  0.00  0.00    -0.017 A 
ATOM     16  C   UNL     1      -6.442  -7.630   8.214  0.00  0.00    -0.006 A 
ATOM     17  C   UNL     1      -5.334  -8.465   8.018  0.00  0.00    +0.009 A 
ATOM     18  C   UNL     1      -5.525  -9.779   7.712  0.00  0.00    +0.001 A 
ATOM     19  C   UNL     1      -6.808 -10.307   7.592  0.00  0.00    +0.001 A 
ATOM     20  C   UNL     1      -7.907  -9.528   7.788  0.00  0.00    +0.008 A 
ENDBRANCH   9  11
BRANCH   1  21
ATOM     21  C   UNL     1      -1.901  -1.719   5.034  0.00  0.00    +0.077 C 
BRANCH  21  22
ATOM     22  C   UNL     1      -1.779  -0.499   4.119  0.00  0.00    -0.068 C 
BRANCH  22  31
ATOM     23  C   UNL     1      -0.265   1.118   3.212  0.00  0.00    -0.006 C 
ATOM     24  C   UNL     1       1.128   1.724   3.354  0.00  0.00    -0.047 A 
ATOM     25  C   UNL     1       1.746   2.495   2.373  0.00  0.00    +0.010 A 
ATOM     26  C   UNL     1       2.988   2.990   2.585  0.00  0.00    +0.045 A 
ATOM     27  S   UNL     1       3.356   2.378   4.223  0.00  0.00    -0.101 S 
ATOM     28  C   UNL     1       1.836   1.515   4.500  0.00  0.00    -0.010 A 
ATOM     29  C   UNL     1       1.386   0.731   5.690  0.00  0.00    +0.024 C 
ATOM     30  C   UNL     1      -0.127   0.494   5.544  0.00  0.00    -0.072 C 
ATOM     31  N   UNL     1      -0.408   0.024   4.180  0.00  0.00    +0.388 N 
ATOM     32  H   UNL     1       0.239  -0.714   3.945  0.00  0.00    -0.080 HD
BRANCH  23  39
ATOM     33  C   UNL     1      -1.317   2.828   1.134  0.00  0.00    +0.044 C 
ATOM     34  C   UNL     1      -0.947   1.401   0.821  0.00  0.00    -0.049 A 
ATOM     35  C   UNL     1      -1.105   0.912  -0.463  0.00  0.00    +0.003 A 
ATOM     36  C   UNL     1      -0.765  -0.396  -0.750  0.00  0.00    +0.000 A 
ATOM     37  C   UNL     1      -0.266  -1.216   0.245  0.00  0.00    +0.000 A 
ATOM     38  C   UNL     1      -0.107  -0.727   1.528  0.00  0.00    +0.002 A 
ATOM     39  C   UNL     1      -0.444   0.583   1.815  0.00  0.00    -0.054 A 
ENDBRANCH  23  39
ENDBRANCH  22  31
ENDBRANCH  21  22
ENDBRANCH   1  21
TORSDOF 5
