REMARK  Name = ZINC64790090
REMARK  11 active torsions:
REMARK  status: ('A' for Active; 'I' for Inactive)
REMARK    1  A    between atoms: C_1  and  C_2
REMARK    2  A    between atoms: N_8  and  C_9
REMARK    3  A    between atoms: C_9  and  C_11
REMARK    4  A    between atoms: C_9  and  C_25
REMARK    5  A    between atoms: C_13  and  C_24
REMARK    6  A    between atoms: C_15  and  N_16
REMARK    7  A    between atoms: C_17  and  C_19
REMARK    8  A    between atoms: C_27  and  O_33
REMARK    9  A    between atoms: C_30  and  O_31
REMARK   10  A    between atoms: O_31  and  C_32
REMARK   11  A    between atoms: O_33  and  C_34
REMARK                            x       y       z     vdW  Elec       q    Type
REMARK                         _______ _______ _______ _____ _____    ______ ____
ROOT
ATOM      1  C   UNL     1       0.028  -2.136   3.642  0.00  0.00    +0.138 C 
ENDROOT
BRANCH   1   9
ATOM      2  C   UNL     1      -0.531   2.422   1.368  0.00  0.00    +0.044 C 
ATOM      3  C   UNL     1      -0.313   1.011   0.888  0.00  0.00    -0.046 A 
ATOM      4  C   UNL     1      -0.221   0.729  -0.469  0.00  0.00    +0.021 A 
ATOM      5  C   UNL     1      -0.021  -0.575  -0.877  0.00  0.00    +0.084 A 
ATOM      6  N   UNL     1       0.084  -1.551   0.005  0.00  0.00    -0.350 N 
ATOM      7  C   UNL     1       0.002  -1.323   1.306  0.00  0.00    +0.097 A 
ATOM      8  C   UNL     1      -0.194  -0.032   1.788  0.00  0.00    +0.045 A 
ATOM      9  N   UNL     1       0.118  -2.381   2.200  0.00  0.00    -0.319 N 
ATOM     10  H   UNL     1       0.259  -3.282   1.869  0.00  0.00    +0.148 HD
ATOM     11  H   UNL     1       0.225  -2.458  -0.308  0.00  0.00    +0.166 HD
ENDBRANCH   1   9
BRANCH   1  12
ATOM     12  C   UNL     1      -0.427  -3.393   4.337  0.00  0.00    +0.006 A 
ATOM     13  C   UNL     1       0.474  -4.180   5.030  0.00  0.00    +0.018 A 
ATOM     14  C   UNL     1       0.031  -5.303   5.645  0.00  0.00    -0.011 A 
ATOM     15  S   UNL     1      -1.710  -5.281   5.253  0.00  0.00    -0.078 S 
ATOM     16  C   UNL     1      -1.736  -3.772   4.300  0.00  0.00    +0.078 A 
ATOM     17  C   UNL     1       0.809  -6.312   6.451  0.00  0.00    +0.051 C 
BRANCH  16  18
ATOM     18  N   UNL     1      -2.816  -3.144   3.676  0.00  0.00    -0.273 N 
ATOM     19  C   UNL     1      -4.063  -3.625   3.842  0.00  0.00    +0.284 C 
ATOM     20  O   UNL     1      -4.239  -4.658   4.462  0.00  0.00    -0.266 OA
ATOM     21  H   UNL     1      -2.668  -2.361   3.123  0.00  0.00    +0.156 HD
BRANCH  19  22
ATOM     22  C   UNL     1      -5.208  -2.905   3.277  0.00  0.00    +0.189 A 
ATOM     23  C   UNL     1      -6.524  -3.225   3.454  0.00  0.00    +0.054 A 
ATOM     24  C   UNL     1      -7.270  -2.275   2.739  0.00  0.00    +0.042 A 
ATOM     25  C   UNL     1      -6.388  -1.427   2.165  0.00  0.00    +0.196 A 
ATOM     26  O   UNL     1      -5.147  -1.807   2.495  0.00  0.00    -0.458 OA
ENDBRANCH  19  22
ENDBRANCH  16  18
ENDBRANCH   1  12
BRANCH   1  27
ATOM     27  C   UNL     1       1.381  -1.733   4.168  0.00  0.00    +0.022 A 
ATOM     28  C   UNL     1       2.527  -2.138   3.511  0.00  0.00    +0.055 A 
ATOM     29  C   UNL     1       3.772  -1.766   3.995  0.00  0.00    +0.121 A 
ATOM     30  C   UNL     1       3.867  -0.988   5.139  0.00  0.00    +0.049 A 
ATOM     31  C   UNL     1       2.722  -0.583   5.796  0.00  0.00    +0.049 A 
ATOM     32  C   UNL     1       1.476  -0.950   5.309  0.00  0.00    +0.126 A 
BRANCH  32  33
ATOM     33  O   UNL     1       0.348  -0.546   5.952  0.00  0.00    -0.495 OA
ATOM     34  C   UNL     1       0.515   0.344   7.057  0.00  0.00    +0.277 C 
ENDBRANCH  32  33
BRANCH  29  35
ATOM     35  O   UNL     1       4.900  -2.165   3.348  0.00  0.00    -0.495 OA
ATOM     36  C   UNL     1       6.149  -1.746   3.903  0.00  0.00    +0.277 C 
ENDBRANCH  29  35
ENDBRANCH   1  27
TORSDOF 7
