REMARK  Name = ZINC35226577
REMARK  14 active torsions:
REMARK  status: ('A' for Active; 'I' for Inactive)
REMARK    1  A    between atoms: C_1  and  C_2
REMARK    2  A    between atoms: C_2  and  C_3
REMARK    3  A    between atoms: C_2  and  N_4
REMARK    4  A    between atoms: N_4  and  C_5
REMARK    5  A    between atoms: N_4  and  C_16
REMARK    6  A    between atoms: C_5  and  C_6
REMARK    7  A    between atoms: C_9  and  C_12
REMARK    8  A    between atoms: C_12  and  C_13
REMARK    9  A    between atoms: C_12  and  C_14
REMARK   10  A    between atoms: C_12  and  C_15
REMARK   11  A    between atoms: C_16  and  C_17
REMARK   12  A    between atoms: C_20  and  C_22
REMARK   13  A    between atoms: N_27  and  C_30
REMARK   14  A    between atoms: C_33  and  N_36
REMARK                            x       y       z     vdW  Elec       q    Type
REMARK                         _______ _______ _______ _____ _____    ______ ____
ROOT
ATOM      1  C   UNL     1      -2.880   1.583  -1.861  0.00  0.00    +0.090 A 
ATOM      2  C   UNL     1      -2.106   2.385  -2.625  0.00  0.00    +0.043 A 
ATOM      3  C   UNL     1      -2.669   3.670  -2.577  0.00  0.00    +0.055 A 
ATOM      4  C   UNL     1      -3.772   3.586  -1.775  0.00  0.00    +0.190 A 
ATOM      5  O   UNL     1      -3.885   2.309  -1.355  0.00  0.00    -0.457 OA
ENDROOT
BRANCH   4   6
ATOM      6  C   UNL     1      -4.676   4.689  -1.435  0.00  0.00    +0.282 C 
ATOM      7  O   UNL     1      -4.559   5.765  -1.991  0.00  0.00    -0.267 OA
ATOM      8  N   UNL     1      -5.636   4.511  -0.506  0.00  0.00    -0.292 N 
ATOM      9  C   UNL     1      -5.694   3.272   0.282  0.00  0.00    +0.127 C 
ATOM     10  C   UNL     1      -5.673   3.638   1.771  0.00  0.00    +0.124 C 
ATOM     11  N   UNL     1      -6.681   4.679   2.014  0.00  0.00    -0.327 N 
ATOM     12  C   UNL     1      -6.623   5.918   1.225  0.00  0.00    +0.124 C 
ATOM     13  C   UNL     1      -6.641   5.555  -0.260  0.00  0.00    +0.127 C 
BRANCH  11  14
ATOM     14  C   UNL     1      -7.676   4.495   2.976  0.00  0.00    +0.030 A 
ATOM     15  C   UNL     1      -7.654   3.372   3.795  0.00  0.00    +0.025 A 
ATOM     16  C   UNL     1      -8.639   3.193   4.745  0.00  0.00    +0.034 A 
ATOM     17  C   UNL     1      -9.647   4.130   4.883  0.00  0.00    +0.126 A 
ATOM     18  C   UNL     1      -9.672   5.248   4.071  0.00  0.00    +0.034 A 
ATOM     19  C   UNL     1      -8.687   5.436   3.121  0.00  0.00    +0.025 A 
BRANCH  17  20
ATOM     20  N   UNL     1     -10.702   3.934   5.903  0.00  0.00    +0.056 N 
ATOM     21  O   UNL     1     -10.681   2.957   6.614  0.00  0.00    -0.126 OA
ATOM     22  O   UNL     1     -11.584   4.752   6.025  0.00  0.00    -0.126 OA
ENDBRANCH  17  20
ENDBRANCH  11  14
ENDBRANCH   4   6
BRANCH   1  23
ATOM     23  C   UNL     1      -2.653   0.112  -1.623  0.00  0.00    -0.002 C 
BRANCH  23  24
ATOM     24  N   UNL     1      -1.977  -0.076  -0.333  0.00  0.00    +0.389 N 
ATOM     25  H   UNL     1      -2.485   0.414   0.388  0.00  0.00    -0.080 HD
BRANCH  24  27
ATOM     26  C   UNL     1      -0.037   0.176  -1.806  0.00  0.00    -0.013 C 
ATOM     27  C   UNL     1      -0.609   0.453  -0.414  0.00  0.00    -0.074 C 
ATOM     28  C   UNL     1      -0.630   1.962  -0.163  0.00  0.00    -0.013 C 
ENDBRANCH  24  27
BRANCH  24  29
ATOM     29  C   UNL     1      -1.929  -1.508  -0.009  0.00  0.00    -0.042 C 
BRANCH  29  30
ATOM     30  C   UNL     1      -1.392  -1.691   1.386  0.00  0.00    -0.064 A 
ATOM     31  C   UNL     1      -0.044  -1.927   1.583  0.00  0.00    +0.002 A 
ATOM     32  C   UNL     1       0.449  -2.094   2.863  0.00  0.00    +0.004 A 
ATOM     33  C   UNL     1      -0.405  -2.025   3.947  0.00  0.00    -0.042 A 
ATOM     34  C   UNL     1      -1.753  -1.788   3.751  0.00  0.00    +0.004 A 
ATOM     35  C   UNL     1      -2.245  -1.617   2.471  0.00  0.00    +0.002 A 
BRANCH  33  36
ATOM     36  C   UNL     1       0.132  -2.208   5.343  0.00  0.00    -0.013 C 
ATOM     37  C   UNL     1       1.182  -1.133   5.631  0.00  0.00    +0.015 C 
ATOM     38  C   UNL     1      -1.013  -2.086   6.351  0.00  0.00    +0.015 C 
ATOM     39  C   UNL     1       0.773  -3.593   5.465  0.00  0.00    +0.015 C 
ENDBRANCH  33  36
ENDBRANCH  29  30
ENDBRANCH  24  29
ENDBRANCH  23  24
ENDBRANCH   1  23
TORSDOF 9
