REMARK  Name = ZINC12533977
REMARK  7 active torsions:
REMARK  status: ('A' for Active; 'I' for Inactive)
REMARK    1  A    between atoms: C_4  and  S_8
REMARK    2  A    between atoms: S_8  and  N_11
REMARK    3  A    between atoms: N_11  and  C_12
REMARK    4  A    between atoms: C_12  and  C_13
REMARK    5  A    between atoms: C_13  and  O_15
REMARK    6  A    between atoms: O_15  and  C_16
REMARK    7  A    between atoms: C_16  and  C_17
REMARK                            x       y       z     vdW  Elec       q    Type
REMARK                         _______ _______ _______ _____ _____    ______ ____
ROOT
ATOM      1  C   UNL     1       1.741   2.699   6.261  0.00  0.00    +0.308 C 
ENDROOT
BRANCH   1   2
ATOM      2  C   UNL     1       1.113   2.306   4.949  0.00  0.00    +0.170 A 
ATOM      3  N   UNL     1       1.886   1.892   3.961  0.00  0.00    -0.214 NA
ATOM      4  C   UNL     1       1.396   1.533   2.785  0.00  0.00    +0.128 A 
ATOM      5  C   UNL     1      -0.010   1.594   2.575  0.00  0.00    +0.051 A 
ATOM      6  C   UNL     1      -0.771   1.244   1.367  0.00  0.00    -0.025 A 
ATOM      7  C   UNL     1      -2.105   1.407   1.426  0.00  0.00    -0.004 A 
ATOM      8  S   UNL     1      -2.433   1.997   3.067  0.00  0.00    -0.073 S 
ATOM      9  C   UNL     1      -0.768   2.045   3.672  0.00  0.00    +0.114 A 
ATOM     10  N   UNL     1      -0.197   2.383   4.812  0.00  0.00    -0.221 NA
ATOM     11  C   UNL     1      -3.107   1.150   0.343  0.00  0.00    +0.043 C 
ATOM     12  C   UNL     1      -2.857  -0.237  -0.263  0.00  0.00    +0.005 C 
ATOM     13  C   UNL     1      -1.872  -0.085  -1.417  0.00  0.00    +0.001 C 
ATOM     14  C   UNL     1      -0.888   1.045  -1.120  0.00  0.00    +0.005 C 
ATOM     15  C   UNL     1      -0.064   0.721   0.120  0.00  0.00    +0.037 C 
ATOM     16  N   UNL     1       2.239   1.105   1.775  0.00  0.00    -0.343 N 
ATOM     17  H   UNL     1       1.911   0.493   1.098  0.00  0.00    +0.144 HD
ATOM     18  H   UNL     1       3.157   1.416   1.745  0.00  0.00    +0.144 HD
ENDBRANCH   1   2
BRANCH   1  19
ATOM     19  O   UNL     1       1.820   1.536   7.127  0.00  0.00    -0.456 OA
BRANCH  19  20
ATOM     20  C   UNL     1       2.359   1.717   8.343  0.00  0.00    +0.323 C 
ATOM     21  O   UNL     1       2.752   2.811   8.673  0.00  0.00    -0.249 OA
BRANCH  20  22
ATOM     22  C   UNL     1       2.475   0.556   9.297  0.00  0.00    +0.226 C 
BRANCH  22  23
ATOM     23  N   UNL     1       3.091   1.010  10.546  0.00  0.00    -0.179 NA
ATOM     24  H   UNL     1       3.547   1.865  10.579  0.00  0.00    +0.149 HD
BRANCH  23  25
ATOM     25  S   UNL     1       3.011   0.061  11.901  0.00  0.00    +0.062 S 
ATOM     26  O   UNL     1       3.714   0.753  12.923  0.00  0.00    -0.153 OA
ATOM     27  O   UNL     1       1.652  -0.331  12.042  0.00  0.00    -0.153 OA
BRANCH  25  31
ATOM     28  C   UNL     1       5.363  -3.711  11.038  0.00  0.00    +0.003 A 
ATOM     29  C   UNL     1       5.794  -2.834  12.017  0.00  0.00    +0.002 A 
ATOM     30  C   UNL     1       5.079  -1.680  12.276  0.00  0.00    +0.031 A 
ATOM     31  C   UNL     1       3.926  -1.406  11.565  0.00  0.00    +0.140 A 
ATOM     32  C   UNL     1       3.493  -2.283  10.585  0.00  0.00    +0.150 A 
ATOM     33  C   UNL     1       4.214  -3.436  10.322  0.00  0.00    +0.040 A 
ATOM     34  F   UNL     1       2.370  -2.014   9.885  0.00  0.00    -0.203 F 
ENDBRANCH  25  31
ENDBRANCH  23  25
ENDBRANCH  22  23
ENDBRANCH  20  22
ENDBRANCH  19  20
ENDBRANCH   1  19
TORSDOF 7
