REMARK  Name = ZINC08789994
REMARK  3 active torsions:
REMARK  status: ('A' for Active; 'I' for Inactive)
REMARK    1  A    between atoms: C_4  and  N_7
REMARK    2  A    between atoms: C_12  and  C_29
REMARK    3  A    between atoms: C_29  and  C_30
REMARK                            x       y       z     vdW  Elec       q    Type
REMARK                         _______ _______ _______ _____ _____    ______ ____
ROOT
ATOM      1  N   UNL     1       1.237  -2.082  -0.020  0.00  0.00    -0.210 N 
ATOM      2  C   UNL     1       0.129  -2.824   0.090  0.00  0.00    +0.228 C 
ATOM      3  O   UNL     1      -0.997  -2.389   0.210  0.00  0.00    -0.275 OA
ATOM      4  C   UNL     1       0.498  -4.289   0.039  0.00  0.00    +0.074 C 
ATOM      5  C   UNL     1       0.237  -4.940   1.413  0.00  0.00    -0.053 C 
ATOM      6  C   UNL     1       2.562  -4.879   1.203  0.00  0.00    +0.050 C 
ATOM      7  C   UNL     1       2.045  -4.264  -0.103  0.00  0.00    +0.088 C 
ATOM      8  C   UNL     1       2.368  -2.787  -0.133  0.00  0.00    +0.229 C 
ATOM      9  O   UNL     1       3.479  -2.315  -0.242  0.00  0.00    -0.275 OA
ATOM     10  C   UNL     1       3.843  -4.234   1.649  0.00  0.00    -0.026 A 
ATOM     11  C   UNL     1       4.192  -2.941   1.971  0.00  0.00    +0.024 A 
ATOM     12  C   UNL     1       5.489  -2.649   2.359  0.00  0.00    +0.041 A 
ATOM     13  C   UNL     1       6.432  -3.659   2.421  0.00  0.00    +0.022 A 
ATOM     14  C   UNL     1       6.087  -4.955   2.098  0.00  0.00    +0.025 A 
ATOM     15  C   UNL     1       4.784  -5.257   1.709  0.00  0.00    +0.036 A 
ATOM     16  N   UNL     1       4.200  -6.472   1.341  0.00  0.00    -0.286 N 
ATOM     17  C   UNL     1       2.897  -6.335   1.029  0.00  0.00    +0.211 C 
ATOM     18  O   UNL     1       2.141  -7.215   0.677  0.00  0.00    -0.277 OA
ATOM     19 CL   UNL     1       5.929  -1.020   2.766  0.00  0.00    -0.084 Cl
ATOM     20  H   UNL     1       4.678  -7.316   1.312  0.00  0.00    +0.155 HD
ATOM     21  N   UNL     1       1.482  -4.721   2.154  0.00  0.00    +0.394 N 
ATOM     22  H   UNL     1       1.571  -5.411   2.909  0.00  0.00    -0.083 HD
ATOM     23  H   UNL     1       1.496  -3.775   2.552  0.00  0.00    -0.083 HD
ENDROOT
BRANCH   1  27
ATOM     24  C   UNL     1       1.170   2.086   0.001  0.00  0.00    +0.000 A 
ATOM     25  C   UNL     1       1.534   1.408  -1.147  0.00  0.00    +0.002 A 
ATOM     26  C   UNL     1       1.558   0.027  -1.158  0.00  0.00    +0.024 A 
ATOM     27  C   UNL     1       1.214  -0.680  -0.013  0.00  0.00    +0.044 A 
ATOM     28  C   UNL     1       0.849   0.004   1.138  0.00  0.00    +0.024 A 
ATOM     29  C   UNL     1       0.827   1.385   1.142  0.00  0.00    +0.002 A 
ENDBRANCH   1  27
BRANCH   5  30
ATOM     30  C   UNL     1      -0.949  -4.264   2.106  0.00  0.00    +0.022 C 
BRANCH  30  31
ATOM     31  C   UNL     1      -1.264  -4.992   3.387  0.00  0.00    -0.024 A 
ATOM     32  C   UNL     1      -2.178  -5.961   3.550  0.00  0.00    +0.087 A 
ATOM     33  N   UNL     1      -2.182  -6.384   4.852  0.00  0.00    -0.360 N 
ATOM     34  H   UNL     1      -2.758  -7.077   5.211  0.00  0.00    +0.165 HD
ATOM     35  C   UNL     1      -1.246  -5.680   5.576  0.00  0.00    +0.047 A 
ATOM     36  C   UNL     1      -0.626  -4.781   4.689  0.00  0.00    +0.003 A 
ATOM     37  C   UNL     1       0.372  -3.923   5.152  0.00  0.00    +0.010 A 
ATOM     38  C   UNL     1       0.750  -3.967   6.465  0.00  0.00    +0.001 A 
ATOM     39  C   UNL     1       0.145  -4.856   7.342  0.00  0.00    +0.002 A 
ATOM     40  C   UNL     1      -0.846  -5.708   6.907  0.00  0.00    +0.026 A 
ENDBRANCH  30  31
ENDBRANCH   5  30
TORSDOF 3
