REMARK  Name = ZINC15814098
REMARK  7 active torsions:
REMARK  status: ('A' for Active; 'I' for Inactive)
REMARK    1  A    between atoms: C_1  and  C_2
REMARK    2  A    between atoms: C_5  and  N_8
REMARK    3  A    between atoms: C_18  and  S_19
REMARK    4  A    between atoms: S_19  and  C_20
REMARK    5  A    between atoms: C_20  and  C_22
REMARK    6  A    between atoms: C_20  and  C_23
REMARK    7  A    between atoms: N_25  and  C_26
REMARK                            x       y       z     vdW  Elec       q    Type
REMARK                         _______ _______ _______ _____ _____    ______ ____
ROOT
ATOM      1  N   UNL     1       5.300   9.577   0.670  0.00  0.00    -0.255 N 
ATOM      2  C   UNL     1       6.556  10.078   0.612  0.00  0.00    +0.267 A 
ATOM      3  O   UNL     1       6.797  11.219   0.958  0.00  0.00    -0.267 OA
ATOM      4  C   UNL     1       7.617   9.195   0.109  0.00  0.00    +0.065 A 
ATOM      5  C   UNL     1       8.941   9.619   0.004  0.00  0.00    +0.015 A 
ATOM      6  C   UNL     1       9.889   8.756  -0.470  0.00  0.00    +0.001 A 
ATOM      7  C   UNL     1       9.548   7.464  -0.849  0.00  0.00    +0.002 A 
ATOM      8  C   UNL     1       8.258   7.022  -0.758  0.00  0.00    +0.028 A 
ATOM      9  C   UNL     1       7.266   7.880  -0.276  0.00  0.00    +0.079 A 
ATOM     10  N   UNL     1       5.976   7.484  -0.169  0.00  0.00    -0.223 NA
ATOM     11  C   UNL     1       5.047   8.290   0.282  0.00  0.00    +0.177 A 
ENDROOT
BRANCH   1  16
ATOM     12  C   UNL     1       1.056  12.834   2.562  0.00  0.00    +0.044 C 
ATOM     13  C   UNL     1       2.183  11.969   2.059  0.00  0.00    -0.050 A 
ATOM     14  C   UNL     1       2.831  12.295   0.882  0.00  0.00    +0.005 A 
ATOM     15  C   UNL     1       3.864  11.505   0.419  0.00  0.00    +0.026 A 
ATOM     16  C   UNL     1       4.252  10.381   1.137  0.00  0.00    +0.052 A 
ATOM     17  C   UNL     1       3.596  10.054   2.316  0.00  0.00    +0.026 A 
ATOM     18  C   UNL     1       2.567  10.851   2.777  0.00  0.00    +0.005 A 
ENDBRANCH   1  16
BRANCH  11  19
ATOM     19  S   UNL     1       3.393   7.691   0.388  0.00  0.00    -0.075 S 
BRANCH  19  20
ATOM     20  C   UNL     1       3.628   6.008  -0.234  0.00  0.00    +0.137 C 
ATOM     21  C   UNL     1       4.061   6.062  -1.701  0.00  0.00    +0.029 C 
BRANCH  20  22
ATOM     22  C   UNL     1       2.334   5.244  -0.120  0.00  0.00    +0.230 C 
ATOM     23  O   UNL     1       1.278   5.840  -0.108  0.00  0.00    -0.274 OA
ATOM     24  N   UNL     1       2.351   3.899  -0.030  0.00  0.00    -0.282 N 
ATOM     25  H   UNL     1       3.196   3.429   0.043  0.00  0.00    +0.155 HD
BRANCH  24  26
ATOM     26  C   UNL     1       1.148   3.182  -0.042  0.00  0.00    +0.072 A 
ATOM     27  C   UNL     1       0.020   3.727  -0.639  0.00  0.00    +0.064 A 
ATOM     28  C   UNL     1      -1.167   3.016  -0.649  0.00  0.00    +0.125 A 
ATOM     29  C   UNL     1      -1.228   1.760  -0.069  0.00  0.00    +0.041 A 
ATOM     30  C   UNL     1      -0.107   1.217   0.531  0.00  0.00    +0.043 A 
ATOM     31  C   UNL     1       1.082   1.923   0.544  0.00  0.00    +0.145 A 
ATOM     32  F   UNL     1       2.178   1.390   1.127  0.00  0.00    -0.204 F 
ATOM     33  F   UNL     1      -2.266   3.545  -1.230  0.00  0.00    -0.205 F 
ENDBRANCH  24  26
ENDBRANCH  20  22
ENDBRANCH  19  20
ENDBRANCH  11  19
TORSDOF 5
