REMARK  Name = ZINC17025850
REMARK  9 active torsions:
REMARK  status: ('A' for Active; 'I' for Inactive)
REMARK    1  A    between atoms: C_1  and  C_2
REMARK    2  A    between atoms: C_5  and  N_9
REMARK    3  A    between atoms: C_6  and  C_8
REMARK    4  A    between atoms: C_10  and  C_12
REMARK    5  A    between atoms: C_12  and  S_13
REMARK    6  A    between atoms: S_13  and  C_14
REMARK    7  A    between atoms: C_17  and  S_21
REMARK    8  A    between atoms: C_18  and  N_20
REMARK    9  A    between atoms: S_21  and  C_24
REMARK                            x       y       z     vdW  Elec       q    Type
REMARK                         _______ _______ _______ _____ _____    ______ ____
ROOT
ATOM      1  C   UNL     1      -2.333  -2.023   4.250  0.00  0.00    +0.190 A 
ATOM      2  N   UNL     1      -3.222  -1.395   3.494  0.00  0.00    -0.228 NA
ATOM      3  C   UNL     1      -2.966  -1.128   2.222  0.00  0.00    +0.144 A 
ATOM      4  C   UNL     1      -1.758  -1.520   1.679  0.00  0.00    +0.152 A 
ATOM      5  C   UNL     1      -0.841  -2.180   2.500  0.00  0.00    +0.146 A 
ATOM      6  N   UNL     1      -1.162  -2.412   3.769  0.00  0.00    -0.205 NA
ENDROOT
BRANCH   5   7
ATOM      7  N   UNL     1       0.385  -2.587   1.999  0.00  0.00    -0.342 N 
ATOM      8  H   UNL     1       0.612  -2.414   1.072  0.00  0.00    +0.144 HD
ATOM      9  H   UNL     1       1.016  -3.045   2.576  0.00  0.00    +0.144 HD
ENDBRANCH   5   7
BRANCH   4  10
ATOM     10  S   UNL     1      -1.380  -1.190  -0.010  0.00  0.00    +0.036 S 
ATOM     11  O   UNL     1      -2.496  -0.493  -0.547  0.00  0.00    -0.164 OA
ATOM     12  O   UNL     1      -0.902  -2.408  -0.566  0.00  0.00    -0.164 OA
BRANCH  10  13
ATOM     13  C   UNL     1      -0.026  -0.062  -0.030  0.00  0.00    +0.132 A 
ATOM     14  C   UNL     1       1.304  -0.326  -0.047  0.00  0.00    +0.036 A 
ATOM     15  C   UNL     1       2.197   0.730  -0.060  0.00  0.00    +0.029 A 
ATOM     16  C   UNL     1       1.715   1.998  -0.056  0.00  0.00    +0.080 A 
ATOM     17  S   UNL     1      -0.049   1.723  -0.033  0.00  0.00    -0.058 S 
ATOM     18 CL   UNL     1       2.587   3.499  -0.071  0.00  0.00    -0.076 Cl
ENDBRANCH  10  13
ENDBRANCH   4  10
BRANCH   1  19
ATOM     19  S   UNL     1      -2.720  -2.350   5.938  0.00  0.00    -0.077 S 
BRANCH  19  20
ATOM     20  C   UNL     1      -4.376  -1.625   6.028  0.00  0.00    +0.173 C 
BRANCH  20  22
ATOM     21  N   UNL     1      -6.150  -1.324   7.725  0.00  0.00    -0.285 N 
ATOM     22  C   UNL     1      -4.922  -1.791   7.422  0.00  0.00    +0.227 C 
ATOM     23  O   UNL     1      -4.257  -2.345   8.272  0.00  0.00    -0.275 OA
ATOM     24  H   UNL     1      -6.649  -0.811   7.070  0.00  0.00    +0.155 HD
BRANCH  21  29
ATOM     25  C   UNL     1      -8.398  -2.359  12.830  0.00  0.00    +0.044 C 
ATOM     26  C   UNL     1      -7.801  -2.084  11.474  0.00  0.00    -0.050 A 
ATOM     27  C   UNL     1      -6.837  -2.932  10.959  0.00  0.00    +0.005 A 
ATOM     28  C   UNL     1      -6.288  -2.683   9.717  0.00  0.00    +0.024 A 
ATOM     29  C   UNL     1      -6.704  -1.579   8.984  0.00  0.00    +0.036 A 
ATOM     30  C   UNL     1      -7.667  -0.726   9.506  0.00  0.00    -0.029 A 
ATOM     31  C   UNL     1      -8.217  -0.984  10.747  0.00  0.00    +0.008 A 
ATOM     32  C   UNL     1      -8.117   0.476   8.717  0.00  0.00    +0.045 C 
ENDBRANCH  21  29
ENDBRANCH  20  22
ENDBRANCH  19  20
ENDBRANCH   1  19
TORSDOF 7
