REMARK  Name = ZINC43746376
REMARK  11 active torsions:
REMARK  status: ('A' for Active; 'I' for Inactive)
REMARK    1  A    between atoms: C_1  and  C_2
REMARK    2  A    between atoms: N_20  and  C_23
REMARK    3  A    between atoms: C_28  and  C_29
REMARK    4  A    between atoms: N_31  and  C_32
REMARK    5  A    between atoms: C_32  and  C_34
REMARK    6  A    between atoms: C_32  and  C_35
REMARK    7  A    between atoms: C_35  and  C_36
REMARK    8  A    between atoms: C_36  and  C_37
REMARK    9  A    between atoms: C_37  and  C_38
REMARK   10  A    between atoms: C_38  and  C_39
REMARK   11  A    between atoms: C_38  and  C_40
REMARK                            x       y       z     vdW  Elec       q    Type
REMARK                         _______ _______ _______ _____ _____    ______ ____
ROOT
ATOM      1  C   UNL     1      -0.019   1.526   0.010  0.00  0.00    +0.035 C 
ATOM      2  C   UNL     1       0.002  -0.004   0.002  0.00  0.00    +0.122 C 
ATOM      3  C   UNL     1       0.742  -0.508  -1.222  0.00  0.00    +0.041 A 
ATOM      4  C   UNL     1       1.937  -1.133  -1.168  0.00  0.00    -0.015 A 
ATOM      5  C   UNL     1       2.306  -1.446  -2.537  0.00  0.00    +0.003 A 
ATOM      6  C   UNL     1       3.422  -2.078  -3.093  0.00  0.00    +0.010 A 
ATOM      7  C   UNL     1       3.443  -2.210  -4.460  0.00  0.00    +0.001 A 
ATOM      8  C   UNL     1       2.413  -1.742  -5.260  0.00  0.00    +0.002 A 
ATOM      9  C   UNL     1       1.298  -1.112  -4.735  0.00  0.00    +0.026 A 
ATOM     10  C   UNL     1       1.249  -0.965  -3.350  0.00  0.00    +0.047 A 
ATOM     11  N   UNL     1       0.321  -0.405  -2.521  0.00  0.00    -0.356 N 
ATOM     12  H   UNL     1      -0.511   0.003  -2.808  0.00  0.00    +0.166 HD
ATOM     13  C   UNL     1       2.714  -1.447   0.086  0.00  0.00    +0.069 C 
ATOM     14  C   UNL     1       2.220  -0.551   1.228  0.00  0.00    +0.169 C 
ATOM     15  N   UNL     1       0.741  -0.505   1.168  0.00  0.00    -0.265 N 
ATOM     16  C   UNL     1       0.278  -0.996   2.319  0.00  0.00    +0.317 C 
ATOM     17  O   UNL     1      -0.900  -1.044   2.611  0.00  0.00    -0.252 OA
ATOM     18  N   UNL     1       1.265  -1.431   3.115  0.00  0.00    -0.192 N 
ATOM     19  C   UNL     1       2.508  -1.217   2.558  0.00  0.00    +0.248 C 
ATOM     20  O   UNL     1       3.595  -1.498   3.015  0.00  0.00    -0.273 OA
ENDROOT
BRANCH  18  21
ATOM     21  C   UNL     1       1.062  -2.021   4.365  0.00  0.00    +0.058 A 
ATOM     22  C   UNL     1       0.909  -3.397   4.470  0.00  0.00    +0.025 A 
ATOM     23  C   UNL     1       0.709  -3.978   5.706  0.00  0.00    +0.002 A 
ATOM     24  C   UNL     1       0.658  -3.196   6.848  0.00  0.00    +0.001 A 
ATOM     25  C   UNL     1       0.807  -1.829   6.763  0.00  0.00    +0.015 A 
ATOM     26  C   UNL     1       1.016  -1.228   5.519  0.00  0.00    +0.059 A 
BRANCH  26  27
ATOM     27  C   UNL     1       1.183   0.235   5.421  0.00  0.00    +0.246 C 
ATOM     28  O   UNL     1       1.360   0.756   4.337  0.00  0.00    -0.270 OA
ATOM     29  N   UNL     1       1.139   0.995   6.534  0.00  0.00    -0.309 N 
ATOM     30  H   UNL     1       0.997   0.580   7.399  0.00  0.00    +0.149 HD
BRANCH  29  31
ATOM     31  C   UNL     1       1.304   2.447   6.436  0.00  0.00    +0.070 C 
ATOM     32  C   UNL     1       2.794   2.792   6.437  0.00  0.00    +0.028 C 
BRANCH  31  33
ATOM     33  C   UNL     1       0.624   3.119   7.631  0.00  0.00    +0.022 C 
BRANCH  33  34
ATOM     34  C   UNL     1      -0.885   2.877   7.562  0.00  0.00    +0.002 C 
BRANCH  34  35
ATOM     35  C   UNL     1      -1.565   3.549   8.757  0.00  0.00    +0.003 C 
BRANCH  35  36
ATOM     36  C   UNL     1      -3.074   3.308   8.687  0.00  0.00    -0.017 C 
ATOM     37  C   UNL     1      -3.359   1.813   8.847  0.00  0.00    +0.007 C 
ATOM     38  C   UNL     1      -3.767   4.082   9.810  0.00  0.00    +0.007 C 
ENDBRANCH  35  36
ENDBRANCH  34  35
ENDBRANCH  33  34
ENDBRANCH  31  33
ENDBRANCH  29  31
ENDBRANCH  26  27
ENDBRANCH  18  21
TORSDOF 7
