REMARK  Name = ZINC39898854
REMARK  11 active torsions:
REMARK  status: ('A' for Active; 'I' for Inactive)
REMARK    1  A    between atoms: C_1  and  C_2
REMARK    2  A    between atoms: C_2  and  C_3
REMARK    3  A    between atoms: C_3  and  C_4
REMARK    4  A    between atoms: C_4  and  C_5
REMARK    5  A    between atoms: C_5  and  O_6
REMARK    6  A    between atoms: O_6  and  C_7
REMARK    7  A    between atoms: C_10  and  C_13
REMARK    8  A    between atoms: C_16  and  C_31
REMARK    9  A    between atoms: N_23  and  C_24
REMARK   10  A    between atoms: C_24  and  C_25
REMARK   11  A    between atoms: C_36  and  O_37
REMARK                            x       y       z     vdW  Elec       q    Type
REMARK                         _______ _______ _______ _____ _____    ______ ____
ROOT
ATOM      1  C   UNL     1       3.716  -6.586   6.447  0.00  0.00    +0.142 C 
ATOM      2  C   UNL     1       2.934  -6.941   7.682  0.00  0.00    +0.035 A 
ATOM      3  C   UNL     1       2.127  -6.496   8.735  0.00  0.00    +0.102 A 
ATOM      4  N   UNL     1       1.823  -7.548   9.469  0.00  0.00    -0.173 NA
ATOM      5  N   UNL     1       2.357  -8.612   8.985  0.00  0.00    -0.272 N 
ATOM      6  H   UNL     1       2.268  -9.501   9.361  0.00  0.00    +0.189 HD
ATOM      7  C   UNL     1       3.070  -8.304   7.861  0.00  0.00    +0.126 A 
ATOM      8  C   UNL     1       3.911  -8.835   6.783  0.00  0.00    +0.266 C 
ATOM      9  O   UNL     1       4.221 -10.004   6.655  0.00  0.00    -0.268 OA
ATOM     10  N   UNL     1       4.294  -7.844   5.955  0.00  0.00    -0.281 N 
ENDROOT
BRANCH   3  11
ATOM     11  C   UNL     1       1.694  -5.098   8.980  0.00  0.00    +0.045 A 
ATOM     12  C   UNL     1       2.192  -4.063   8.192  0.00  0.00    +0.033 A 
ATOM     13  C   UNL     1       1.785  -2.764   8.424  0.00  0.00    +0.042 A 
ATOM     14  C   UNL     1       0.884  -2.486   9.438  0.00  0.00    +0.023 A 
ATOM     15  C   UNL     1       0.385  -3.506  10.226  0.00  0.00    +0.047 A 
ATOM     16  C   UNL     1       0.780  -4.815   9.999  0.00  0.00    +0.126 A 
ATOM     17 CL   UNL     1       2.407  -1.474   7.442  0.00  0.00    -0.084 Cl
BRANCH  16  18
ATOM     18  O   UNL     1       0.285  -5.819  10.769  0.00  0.00    -0.506 OA
ATOM     19  H   UNL     1       0.809  -6.003  11.560  0.00  0.00    +0.292 HD
ENDBRANCH  16  18
ENDBRANCH   3  11
BRANCH   1  23
ATOM     20  C   UNL     1       1.120  -4.907   3.496  0.00  0.00    +0.121 A 
ATOM     21  C   UNL     1       1.011  -6.247   3.835  0.00  0.00    +0.046 A 
ATOM     22  C   UNL     1       1.851  -6.788   4.789  0.00  0.00    +0.009 A 
ATOM     23  C   UNL     1       2.800  -5.994   5.406  0.00  0.00    -0.022 A 
ATOM     24  C   UNL     1       2.911  -4.657   5.070  0.00  0.00    +0.009 A 
ATOM     25  C   UNL     1       2.077  -4.113   4.112  0.00  0.00    +0.046 A 
BRANCH  20  26
ATOM     26  O   UNL     1       0.295  -4.373   2.558  0.00  0.00    -0.492 OA
BRANCH  26  27
ATOM     27  C   UNL     1      -0.666  -5.248   1.965  0.00  0.00    +0.229 C 
BRANCH  27  28
ATOM     28  C   UNL     1      -1.498  -4.474   0.940  0.00  0.00    +0.041 C 
BRANCH  28  29
ATOM     29  C   UNL     1      -2.527  -5.412   0.306  0.00  0.00    +0.003 C 
BRANCH  29  31
ATOM     30  C   UNL     1      -4.388  -5.575  -1.353  0.00  0.00    +0.004 C 
ATOM     31  C   UNL     1      -3.359  -4.638  -0.719  0.00  0.00    -0.003 C 
ENDBRANCH  29  31
ENDBRANCH  28  29
ENDBRANCH  27  28
ENDBRANCH  26  27
ENDBRANCH  20  26
ENDBRANCH   1  23
BRANCH  10  32
ATOM     32  C   UNL     1       5.138  -7.993   4.767  0.00  0.00    +0.144 C 
BRANCH  32  33
ATOM     33  C   UNL     1       6.585  -7.824   5.155  0.00  0.00    -0.030 A 
ATOM     34  C   UNL     1       7.164  -6.569   5.132  0.00  0.00    +0.005 A 
ATOM     35  C   UNL     1       8.491  -6.414   5.488  0.00  0.00    +0.000 A 
ATOM     36  C   UNL     1       9.238  -7.514   5.868  0.00  0.00    +0.000 A 
ATOM     37  C   UNL     1       8.658  -8.768   5.892  0.00  0.00    +0.000 A 
ATOM     38  C   UNL     1       7.330  -8.923   5.540  0.00  0.00    +0.005 A 
ENDBRANCH  32  33
ENDBRANCH  10  32
TORSDOF 10
