REMARK  Name = ZINC16712480
REMARK  7 active torsions:
REMARK  status: ('A' for Active; 'I' for Inactive)
REMARK    1  A    between atoms: C_4  and  C_8
REMARK    2  A    between atoms: N_9  and  N_10
REMARK    3  A    between atoms: C_11  and  C_13
REMARK    4  A    between atoms: C_13  and  S_14
REMARK    5  A    between atoms: S_14  and  C_15
REMARK    6  A    between atoms: C_18  and  C_27
REMARK    7  A    between atoms: N_19  and  C_20
REMARK                            x       y       z     vdW  Elec       q    Type
REMARK                         _______ _______ _______ _____ _____    ______ ____
ROOT
ATOM      1  C   UNL     1       2.565   4.530   0.002  0.00  0.00    +0.197 A 
ATOM      2  N   UNL     1       3.677   3.827  -0.013  0.00  0.00    -0.122 NA
ATOM      3  N   UNL     1       4.696   4.611  -0.019  0.00  0.00    -0.128 NA
ATOM      4  C   UNL     1       4.299   5.862  -0.009  0.00  0.00    +0.169 A 
ATOM      5  N   UNL     1       2.921   5.850   0.000  0.00  0.00    -0.270 N 
ENDROOT
BRANCH   5   6
ATOM      6  C   UNL     1       2.063   6.959   0.008  0.00  0.00    +0.051 A 
ATOM      7  C   UNL     1       2.034   7.823  -1.078  0.00  0.00    +0.028 A 
ATOM      8  C   UNL     1       1.185   8.912  -1.069  0.00  0.00    +0.022 A 
ATOM      9  C   UNL     1       0.371   9.148   0.025  0.00  0.00    +0.041 A 
ATOM     10  C   UNL     1       0.402   8.291   1.111  0.00  0.00    +0.022 A 
ATOM     11  C   UNL     1       1.246   7.197   1.105  0.00  0.00    +0.028 A 
ATOM     12 CL   UNL     1      -0.691  10.522   0.035  0.00  0.00    -0.084 Cl
ENDBRANCH   5   6
BRANCH   4  13
ATOM     13  C   UNL     1       5.166   7.058  -0.012  0.00  0.00    +0.022 A 
ATOM     14  C   UNL     1       4.652   8.322   0.305  0.00  0.00    +0.031 A 
ATOM     15  C   UNL     1       5.498   9.410   0.295  0.00  0.00    +0.111 A 
ATOM     16  N   UNL     1       6.773   9.274  -0.018  0.00  0.00    -0.263 NA
ATOM     17  C   UNL     1       7.298   8.103  -0.328  0.00  0.00    +0.111 A 
ATOM     18  C   UNL     1       6.525   6.961  -0.337  0.00  0.00    +0.031 A 
ENDBRANCH   4  13
BRANCH   1  19
ATOM     19  S   UNL     1       0.924   3.890   0.014  0.00  0.00    -0.076 S 
BRANCH  19  20
ATOM     20  C   UNL     1       1.278   2.115   0.001  0.00  0.00    +0.174 C 
BRANCH  20  22
ATOM     21  N   UNL     1       0.002  -0.004   0.002  0.00  0.00    -0.206 N 
ATOM     22  C   UNL     1      -0.016   1.344   0.009  0.00  0.00    +0.242 C 
ATOM     23  O   UNL     1      -1.075   1.936   0.018  0.00  0.00    -0.273 OA
ATOM     24  H   UNL     1       0.849  -0.478  -0.009  0.00  0.00    +0.177 HD
BRANCH  21  26
ATOM     25  C   UNL     1      -1.184  -2.019   0.003  0.00  0.00    +0.142 C 
ATOM     26  N   UNL     1      -1.202  -0.721   0.010  0.00  0.00    -0.188 NA
BRANCH  25  30
ATOM     27  C   UNL     1      -4.832  -4.192   0.027  0.00  0.00    +0.004 A 
ATOM     28  C   UNL     1      -4.856  -2.809   0.034  0.00  0.00    +0.039 A 
ATOM     29  C   UNL     1      -3.674  -2.094   0.032  0.00  0.00    +0.133 A 
ATOM     30  C   UNL     1      -2.450  -2.773   0.011  0.00  0.00    +0.048 A 
ATOM     31  C   UNL     1      -2.436  -4.171   0.003  0.00  0.00    +0.052 A 
ATOM     32  C   UNL     1      -3.626  -4.870   0.011  0.00  0.00    +0.021 A 
ATOM     33 CL   UNL     1      -0.925  -5.025  -0.017  0.00  0.00    -0.083 Cl
ATOM     34  F   UNL     1      -3.698  -0.743   0.044  0.00  0.00    -0.205 F 
ENDBRANCH  25  30
ENDBRANCH  21  26
ENDBRANCH  20  22
ENDBRANCH  19  20
ENDBRANCH   1  19
TORSDOF 7
