REMARK  Name = ZINC08694081
REMARK  8 active torsions:
REMARK  status: ('A' for Active; 'I' for Inactive)
REMARK    1  A    between atoms: C_1  and  N_2
REMARK    2  A    between atoms: C_6  and  C_8
REMARK    3  A    between atoms: C_8  and  C_10
REMARK    4  A    between atoms: C_8  and  O_16
REMARK    5  A    between atoms: O_16  and  C_17
REMARK    6  A    between atoms: C_17  and  C_19
REMARK    7  A    between atoms: C_23  and  S_25
REMARK    8  A    between atoms: S_25  and  N_28
REMARK                            x       y       z     vdW  Elec       q    Type
REMARK                         _______ _______ _______ _____ _____    ______ ____
ROOT
ATOM      1  O   UNL     1       1.833  -4.676   3.202  0.00  0.00    -0.444 OA
ENDROOT
BRANCH   1   2
ATOM      2  C   UNL     1       1.407  -5.869   3.662  0.00  0.00    +0.340 C 
ATOM      3  O   UNL     1       0.560  -6.488   3.050  0.00  0.00    -0.245 OA
BRANCH   2   4
ATOM      4  C   UNL     1       1.970  -6.423   4.911  0.00  0.00    +0.061 A 
ATOM      5  C   UNL     1       2.939  -5.710   5.620  0.00  0.00    +0.015 A 
ATOM      6  C   UNL     1       3.461  -6.234   6.784  0.00  0.00    +0.003 A 
ATOM      7  C   UNL     1       3.025  -7.462   7.251  0.00  0.00    +0.028 A 
ATOM      8  C   UNL     1       2.064  -8.173   6.553  0.00  0.00    +0.106 A 
ATOM      9  C   UNL     1       1.530  -7.658   5.390  0.00  0.00    +0.043 A 
BRANCH   8  10
ATOM     10  S   UNL     1       1.518  -9.736   7.156  0.00  0.00    +0.061 S 
ATOM     11  O   UNL     1       1.013 -10.449   6.035  0.00  0.00    -0.153 OA
ATOM     12  O   UNL     1       2.562 -10.243   7.974  0.00  0.00    -0.153 OA
BRANCH  10  13
ATOM     13  N   UNL     1       0.229  -9.451   8.156  0.00  0.00    -0.177 NA
ATOM     14  C   UNL     1       0.433  -9.212   9.591  0.00  0.00    +0.109 C 
ATOM     15  C   UNL     1      -0.254  -7.897   9.974  0.00  0.00    +0.017 C 
ATOM     16  C   UNL     1      -1.723  -7.950   9.549  0.00  0.00    +0.003 C 
ATOM     17  C   UNL     1      -1.810  -8.115   8.030  0.00  0.00    +0.017 C 
ATOM     18  C   UNL     1      -1.141  -9.427   7.623  0.00  0.00    +0.109 C 
ENDBRANCH  10  13
ENDBRANCH   8  10
ENDBRANCH   2   4
ENDBRANCH   1   2
BRANCH   1  19
ATOM     19  C   UNL     1       1.245  -4.201   1.989  0.00  0.00    +0.292 C 
BRANCH  19  25
ATOM     20  C   UNL     1      -0.018   1.461   0.010  0.00  0.00    +0.129 C 
ATOM     21  N   UNL     1       0.002  -0.004   0.002  0.00  0.00    -0.302 N 
ATOM     22  C   UNL     1       0.604  -0.675   1.004  0.00  0.00    +0.306 C 
ATOM     23  O   UNL     1       1.131  -0.066   1.913  0.00  0.00    -0.252 OA
ATOM     24  N   UNL     1       0.623  -2.023   0.996  0.00  0.00    -0.237 N 
ATOM     25  C   UNL     1       1.225  -2.694   1.998  0.00  0.00    +0.266 C 
ATOM     26  O   UNL     1       1.750  -2.086   2.905  0.00  0.00    -0.271 OA
ATOM     27  H   UNL     1      -0.418  -0.491  -0.724  0.00  0.00    +0.150 HD
ATOM     28  H   UNL     1       0.202  -2.510   0.270  0.00  0.00    +0.159 HD
ENDBRANCH  19  25
BRANCH  19  29
ATOM     29  C   UNL     1       2.056  -4.686   0.815  0.00  0.00    +0.002 A 
ATOM     30  C   UNL     1       3.429  -4.805   0.925  0.00  0.00    +0.008 A 
ATOM     31  C   UNL     1       4.172  -5.250  -0.152  0.00  0.00    +0.000 A 
ATOM     32  C   UNL     1       3.543  -5.576  -1.339  0.00  0.00    +0.000 A 
ATOM     33  C   UNL     1       2.170  -5.458  -1.449  0.00  0.00    +0.000 A 
ATOM     34  C   UNL     1       1.426  -5.017  -0.370  0.00  0.00    +0.008 A 
ENDBRANCH  19  29
ENDBRANCH   1  19
TORSDOF 7
