REMARK  Name = ZINC02535064
REMARK  8 active torsions:
REMARK  status: ('A' for Active; 'I' for Inactive)
REMARK    1  A    between atoms: C_1  and  C_2
REMARK    2  A    between atoms: C_4  and  O_10
REMARK    3  A    between atoms: C_6  and  C_9
REMARK    4  A    between atoms: O_10  and  C_11
REMARK    5  A    between atoms: C_11  and  N_12
REMARK    6  A    between atoms: C_13  and  C_19
REMARK    7  A    between atoms: C_14  and  N_18
REMARK    8  A    between atoms: C_15  and  C_17
REMARK                            x       y       z     vdW  Elec       q    Type
REMARK                         _______ _______ _______ _____ _____    ______ ____
ROOT
ATOM      1  C   UNL     1       2.425   4.109   0.001  0.00  0.00    +0.374 C 
ENDROOT
BRANCH   1   2
ATOM      2  N   UNL     1       2.215   5.559   0.012  0.00  0.00    -0.230 N 
ATOM      3  C   UNL     1       2.111   6.345   1.116  0.00  0.00    +0.061 A 
ATOM      4  C   UNL     1       1.924   7.622   0.694  0.00  0.00    +0.069 A 
ATOM      5  C   UNL     1       1.913   7.614  -0.708  0.00  0.00    +0.081 A 
ATOM      6  N   UNL     1       2.092   6.383  -1.115  0.00  0.00    -0.171 NA
ATOM      7  C   UNL     1       1.732   8.818  -1.595  0.00  0.00    +0.069 C 
ATOM      8  C   UNL     1       2.190   5.883   2.549  0.00  0.00    +0.067 C 
BRANCH   4   9
ATOM      9  N   UNL     1       1.769   8.753   1.518  0.00  0.00    -0.355 N 
ATOM     10  H   UNL     1       1.791   8.657   2.483  0.00  0.00    +0.142 HD
ATOM     11  H   UNL     1       1.639   9.628   1.121  0.00  0.00    +0.142 HD
ENDBRANCH   4   9
ENDBRANCH   1   2
BRANCH   1  12
ATOM     12  O   UNL     1       1.159   3.445   0.010  0.00  0.00    -0.470 OA
BRANCH  12  16
ATOM     13  C   UNL     1      -1.293  -0.775   0.010  0.00  0.00    +0.045 C 
ATOM     14  C   UNL     1       0.002  -0.004   0.002  0.00  0.00    -0.028 A 
ATOM     15  C   UNL     1      -0.017   1.377   0.010  0.00  0.00    +0.050 A 
ATOM     16  C   UNL     1       1.176   2.086   0.002  0.00  0.00    +0.124 A 
ATOM     17  C   UNL     1       2.385   1.406  -0.013  0.00  0.00    +0.050 A 
ATOM     18  C   UNL     1       2.399   0.025  -0.020  0.00  0.00    -0.028 A 
ATOM     19  C   UNL     1       1.209  -0.680  -0.013  0.00  0.00    +0.047 A 
ATOM     20 CL   UNL     1       1.230  -2.416  -0.023  0.00  0.00    -0.083 Cl
ATOM     21  C   UNL     1       3.713  -0.714  -0.036  0.00  0.00    +0.045 C 
ENDBRANCH  12  16
ENDBRANCH   1  12
TORSDOF 4
