REMARK  Name = ZINC03906870
REMARK  5 active torsions:
REMARK  status: ('A' for Active; 'I' for Inactive)
REMARK    1  A    between atoms: C_1  and  C_2
REMARK    2  A    between atoms: C_2  and  C_3
REMARK    3  A    between atoms: C_3  and  N_4
REMARK    4  A    between atoms: C_17  and  C_21
REMARK    5  A    between atoms: C_18  and  C_20
REMARK                            x       y       z     vdW  Elec       q    Type
REMARK                         _______ _______ _______ _____ _____    ______ ____
ROOT
ATOM      1  N   UNL     1      -1.413  -1.998   0.005  0.00  0.00    -0.275 N 
ATOM      2  C   UNL     1      -1.410  -2.642  -1.172  0.00  0.00    +0.136 C 
ATOM      3  S   UNL     1      -1.324  -1.724  -2.615  0.00  0.00    -0.019 S 
ATOM      4  N   UNL     1      -1.472  -3.981  -1.261  0.00  0.00    -0.319 N 
ATOM      5  C   UNL     1      -1.623  -4.788  -0.038  0.00  0.00    +0.114 C 
ATOM      6  C   UNL     1      -3.082  -4.736   0.358  0.00  0.00    +0.015 A 
ATOM      7  C   UNL     1      -3.955  -5.667  -0.175  0.00  0.00    +0.009 A 
ATOM      8  C   UNL     1      -5.294  -5.639   0.166  0.00  0.00    +0.001 A 
ATOM      9  C   UNL     1      -5.762  -4.677   1.042  0.00  0.00    +0.004 A 
ATOM     10  C   UNL     1      -4.894  -3.748   1.577  0.00  0.00    +0.046 A 
ATOM     11  C   UNL     1      -3.544  -3.774   1.239  0.00  0.00    +0.128 A 
ATOM     12  O   UNL     1      -2.717  -2.854   1.798  0.00  0.00    -0.468 OA
ATOM     13  C   UNL     1      -1.392  -2.713   1.278  0.00  0.00    +0.181 C 
ATOM     14  C   UNL     1      -0.783  -4.122   1.063  0.00  0.00    +0.073 C 
ATOM     15  C   UNL     1       0.677  -4.021   0.618  0.00  0.00    +0.015 C 
ATOM     16  C   UNL     1      -0.525  -1.944   2.277  0.00  0.00    +0.079 C 
ATOM     17  H   UNL     1      -1.417  -4.415  -2.127  0.00  0.00    +0.148 HD
ENDROOT
BRANCH   1  18
ATOM     18  C   UNL     1      -1.433  -0.534   0.013  0.00  0.00    +0.110 C 
BRANCH  18  20
ATOM     19  C   UNL     1      -0.019   1.526   0.010  0.00  0.00    +0.005 C 
ATOM     20  C   UNL     1       0.002  -0.004   0.002  0.00  0.00    +0.016 C 
ENDBRANCH  18  20
ENDBRANCH   1  18
TORSDOF 2
