REMARK  Name = ZINC64871193
REMARK  6 active torsions:
REMARK  status: ('A' for Active; 'I' for Inactive)
REMARK    1  A    between atoms: C_1  and  C_2
REMARK    2  A    between atoms: C_5  and  C_9
REMARK    3  A    between atoms: C_7  and  C_8
REMARK    4  A    between atoms: C_12  and  C_16
REMARK    5  A    between atoms: N_26  and  C_29
REMARK    6  A    between atoms: C_29  and  C_30
REMARK                            x       y       z     vdW  Elec       q    Type
REMARK                         _______ _______ _______ _____ _____    ______ ____
ROOT
ATOM      1  C   UNL     1       2.458  -6.564  -1.549  0.00  0.00    -0.000 A 
ATOM      2  C   UNL     1       3.343  -5.613  -2.034  0.00  0.00    +0.008 A 
ATOM      3  C   UNL     1       4.452  -5.997  -2.759  0.00  0.00    +0.016 A 
ATOM      4  C   UNL     1       4.679  -7.350  -3.001  0.00  0.00    +0.063 A 
ATOM      5  C   UNL     1       3.781  -8.313  -2.508  0.00  0.00    +0.056 A 
ATOM      6  C   UNL     1       2.675  -7.908  -1.777  0.00  0.00    +0.034 A 
ATOM      7  N   UNL     1       4.033  -9.653  -2.764  0.00  0.00    -0.307 N 
ATOM      8  H   UNL     1       3.422 -10.328  -2.431  0.00  0.00    +0.170 HD
ATOM      9  C   UNL     1       5.115 -10.024  -3.470  0.00  0.00    +0.330 A 
ATOM     10  O   UNL     1       5.299 -11.209  -3.673  0.00  0.00    -0.246 OA
ATOM     11  N   UNL     1       6.000  -9.143  -3.961  0.00  0.00    -0.256 N 
ATOM     12  C   UNL     1       5.848  -7.815  -3.768  0.00  0.00    +0.265 A 
ATOM     13  O   UNL     1       6.655  -7.023  -4.216  0.00  0.00    -0.267 OA
ENDROOT
BRANCH   1  16
ATOM     14  C   UNL     1       0.059  -4.275  -0.021  0.00  0.00    +0.180 C 
ATOM     15  N   UNL     1       0.800  -4.783  -1.208  0.00  0.00    -0.265 NA
ATOM     16  C   UNL     1       1.252  -6.125  -0.759  0.00  0.00    +0.242 C 
ATOM     17  O   UNL     1       1.593  -5.955   0.628  0.00  0.00    -0.274 OA
ATOM     18  N   UNL     1       0.839  -4.793   1.128  0.00  0.00    -0.177 NA
ATOM     19  H   UNL     1       0.192  -4.855  -2.010  0.00  0.00    +0.127 HD
ATOM     20  H   UNL     1       0.230  -5.054   1.889  0.00  0.00    +0.156 HD
BRANCH  14  25
ATOM     21  C   UNL     1      -0.018   1.503   0.010  0.00  0.00    +0.044 C 
ATOM     22  C   UNL     1       0.002  -0.004   0.002  0.00  0.00    -0.048 A 
ATOM     23  C   UNL     1       0.006  -0.689  -1.199  0.00  0.00    +0.004 A 
ATOM     24  C   UNL     1       0.025  -2.071  -1.207  0.00  0.00    +0.007 A 
ATOM     25  C   UNL     1       0.040  -2.768  -0.013  0.00  0.00    -0.014 A 
ATOM     26  C   UNL     1       0.037  -2.084   1.188  0.00  0.00    +0.010 A 
ATOM     27  C   UNL     1       0.023  -0.702   1.195  0.00  0.00    -0.047 A 
ATOM     28  C   UNL     1       0.025   0.045   2.504  0.00  0.00    +0.044 C 
ENDBRANCH  14  25
ENDBRANCH   1  16
BRANCH  11  29
ATOM     29  C   UNL     1       7.154  -9.631  -4.720  0.00  0.00    +0.165 C 
BRANCH  29  30
ATOM     30  C   UNL     1       6.796  -9.711  -6.182  0.00  0.00    -0.027 A 
ATOM     31  C   UNL     1       6.251 -10.872  -6.698  0.00  0.00    +0.007 A 
ATOM     32  C   UNL     1       5.922 -10.945  -8.038  0.00  0.00    +0.020 A 
ATOM     33  C   UNL     1       6.139  -9.856  -8.864  0.00  0.00    +0.041 A 
ATOM     34  C   UNL     1       6.685  -8.695  -8.347  0.00  0.00    +0.020 A 
ATOM     35  C   UNL     1       7.008  -8.621  -7.005  0.00  0.00    +0.007 A 
ATOM     36 CL   UNL     1       5.728  -9.948 -10.548  0.00  0.00    -0.084 Cl
ENDBRANCH  29  30
ENDBRANCH  11  29
TORSDOF 4
