REMARK  Name = ZINC32105427
REMARK  8 active torsions:
REMARK  status: ('A' for Active; 'I' for Inactive)
REMARK    1  A    between atoms: C_1  and  C_2
REMARK    2  A    between atoms: C_2  and  C_4
REMARK    3  A    between atoms: C_2  and  N_11
REMARK    4  A    between atoms: C_5  and  C_9
REMARK    5  A    between atoms: C_5  and  C_10
REMARK    6  A    between atoms: C_6  and  C_7
REMARK    7  A    between atoms: C_6  and  C_8
REMARK    8  A    between atoms: C_15  and  C_17
REMARK                            x       y       z     vdW  Elec       q    Type
REMARK                         _______ _______ _______ _____ _____    ______ ____
ROOT
ATOM      1  N   UNL     1       2.275   1.140   0.752  0.00  0.00    -0.296 N 
ATOM      2  C   UNL     1       3.329   1.799   1.273  0.00  0.00    +0.306 C 
ATOM      3  O   UNL     1       3.479   2.983   1.045  0.00  0.00    -0.252 OA
ATOM      4  N   UNL     1       4.217   1.144   2.048  0.00  0.00    -0.236 N 
ATOM      5  C   UNL     1       5.271   1.803   2.569  0.00  0.00    +0.253 C 
ATOM      6  O   UNL     1       5.421   2.987   2.341  0.00  0.00    -0.270 OA
ATOM      7  H   UNL     1       2.140   0.068   0.958  0.00  0.00    +0.151 HD
ATOM      8  H   UNL     1       4.082   0.072   2.254  0.00  0.00    +0.159 HD
ENDROOT
BRANCH   5   9
ATOM      9  C   UNL     1       6.243   1.086   3.417  0.00  0.00    +0.055 A 
ATOM     10  C   UNL     1       6.074  -0.276   3.681  0.00  0.00    +0.016 A 
ATOM     11  C   UNL     1       6.986  -0.940   4.473  0.00  0.00    +0.021 A 
ATOM     12  C   UNL     1       8.069  -0.261   5.008  0.00  0.00    +0.042 A 
ATOM     13  C   UNL     1       8.243   1.088   4.751  0.00  0.00    +0.040 A 
ATOM     14  C   UNL     1       7.341   1.764   3.955  0.00  0.00    +0.054 A 
ATOM     15 CL   UNL     1       7.564   3.454   3.627  0.00  0.00    -0.083 Cl
ATOM     16 CL   UNL     1       9.213  -1.106   6.004  0.00  0.00    -0.083 Cl
ENDBRANCH   5   9
BRANCH   1  18
ATOM     17  C   UNL     1       1.818   1.883  -1.533  0.00  0.00    +0.028 C 
ATOM     18  C   UNL     1       1.310   1.852  -0.090  0.00  0.00    +0.075 C 
BRANCH  18  19
ATOM     19  C   UNL     1      -0.039   1.132  -0.039  0.00  0.00    +0.021 C 
ATOM     20  C   UNL     1      -1.146   1.765   0.805  0.00  0.00    -0.024 C 
ATOM     21  C   UNL     1      -1.228   1.810  -0.723  0.00  0.00    -0.024 C 
ATOM     22  C   UNL     1      -0.977   3.157  -1.403  0.00  0.00    +0.012 C 
ATOM     23  C   UNL     1      -2.261   0.909  -1.402  0.00  0.00    +0.012 C 
ATOM     24  C   UNL     1      -2.104   0.822   1.537  0.00  0.00    +0.012 C 
ATOM     25  C   UNL     1      -0.820   3.070   1.534  0.00  0.00    +0.012 C 
ENDBRANCH  18  19
ENDBRANCH   1  18
TORSDOF 3
