REMARK  Name = ZINC08799263
REMARK  8 active torsions:
REMARK  status: ('A' for Active; 'I' for Inactive)
REMARK    1  A    between atoms: C_1  and  N_2
REMARK    2  A    between atoms: C_10  and  C_12
REMARK    3  A    between atoms: C_12  and  C_14
REMARK    4  A    between atoms: C_12  and  N_60
REMARK    5  A    between atoms: C_14  and  N_15
REMARK    6  A    between atoms: N_15  and  S_16
REMARK    7  A    between atoms: S_16  and  C_19
REMARK    8  A    between atoms: C_19  and  C_20
REMARK                            x       y       z     vdW  Elec       q    Type
REMARK                         _______ _______ _______ _____ _____    ______ ____
ROOT
ATOM      1  C   UNL     1       2.920  -2.098   4.339  0.00  0.00    -0.022 C 
ENDROOT
BRANCH   1  11
ATOM      2  C   UNL     1      -1.600   0.560   0.816  0.00  0.00    +0.129 C 
ATOM      3  N   UNL     1      -0.175   0.855   0.609  0.00  0.00    -0.333 N 
ATOM      4  C   UNL     1       0.066   2.299   0.603  0.00  0.00    +0.105 C 
ATOM      5  C   UNL     1       1.568   2.545   0.413  0.00  0.00    +0.024 C 
ATOM      6  C   UNL     1       2.288   2.064   1.674  0.00  0.00    +0.038 C 
ATOM      7  C   UNL     1       1.786   0.694   2.054  0.00  0.00    -0.026 A 
ATOM      8  C   UNL     1       0.615   0.171   1.532  0.00  0.00    +0.033 A 
ATOM      9  C   UNL     1       0.192  -1.097   1.934  0.00  0.00    +0.023 A 
ATOM     10  C   UNL     1       0.934  -1.826   2.838  0.00  0.00    +0.004 A 
ATOM     11  C   UNL     1       2.106  -1.302   3.352  0.00  0.00    -0.059 A 
ATOM     12  C   UNL     1       2.528  -0.046   2.960  0.00  0.00    +0.007 A 
ENDBRANCH   1  11
BRANCH   1  17
ATOM     13  C   UNL     1       3.518  -3.479   2.425  0.00  0.00    -0.078 C 
ATOM     14  C   UNL     1       4.128  -4.893   2.249  0.00  0.00    -0.020 C 
ATOM     15  C   UNL     1       4.833  -5.136   3.604  0.00  0.00    -0.020 C 
ATOM     16  C   UNL     1       4.137  -4.185   4.596  0.00  0.00    -0.078 C 
ATOM     17  N   UNL     1       3.096  -3.493   3.835  0.00  0.00    +0.385 N 
ATOM     18  H   UNL     1       2.207  -3.999   3.925  0.00  0.00    -0.081 HD
ENDBRANCH   1  17
BRANCH   1  19
ATOM     19  C   UNL     1       2.203  -2.123   5.690  0.00  0.00    +0.095 C 
BRANCH  19  20
ATOM     20  N   UNL     1       3.063  -2.762   6.688  0.00  0.00    -0.195 NA
ATOM     21  H   UNL     1       3.839  -3.272   6.405  0.00  0.00    +0.148 HD
BRANCH  20  22
ATOM     22  S   UNL     1       2.712  -2.616   8.300  0.00  0.00    +0.033 S 
ATOM     23  O   UNL     1       3.749  -3.326   8.963  0.00  0.00    -0.158 OA
ATOM     24  O   UNL     1       2.542  -1.221   8.509  0.00  0.00    -0.158 OA
BRANCH  22  25
ATOM     25  C   UNL     1       1.130  -3.477   8.513  0.00  0.00    +0.221 C 
BRANCH  25  26
ATOM     26  C   UNL     1       0.710  -3.406   9.958  0.00  0.00    -0.007 A 
ATOM     27  C   UNL     1       1.097  -4.397  10.840  0.00  0.00    +0.007 A 
ATOM     28  C   UNL     1       0.716  -4.330  12.167  0.00  0.00    +0.000 A 
ATOM     29  C   UNL     1      -0.062  -3.277  12.611  0.00  0.00    +0.001 A 
ATOM     30  C   UNL     1      -0.455  -2.288  11.729  0.00  0.00    +0.020 A 
ATOM     31  C   UNL     1      -0.069  -2.352  10.401  0.00  0.00    +0.046 A 
ATOM     32 CL   UNL     1      -0.562  -1.111   9.293  0.00  0.00    -0.083 Cl
ENDBRANCH  25  26
ENDBRANCH  22  25
ENDBRANCH  20  22
ENDBRANCH  19  20
ENDBRANCH   1  19
TORSDOF 7
