REMARK  Name = ZINC12529902
REMARK  10 active torsions:
REMARK  status: ('A' for Active; 'I' for Inactive)
REMARK    1  A    between atoms: C_1  and  C_2
REMARK    2  A    between atoms: C_2  and  C_3
REMARK    3  A    between atoms: C_2  and  C_4
REMARK    4  A    between atoms: C_2  and  C_30
REMARK    5  A    between atoms: C_4  and  C_5
REMARK    6  A    between atoms: N_7  and  C_8
REMARK    7  A    between atoms: C_11  and  C_15
REMARK    8  A    between atoms: C_14  and  N_58
REMARK    9  A    between atoms: C_17  and  C_20
REMARK   10  A    between atoms: C_30  and  C_31
REMARK                            x       y       z     vdW  Elec       q    Type
REMARK                         _______ _______ _______ _____ _____    ______ ____
ROOT
ATOM      1  C   UNL     1       1.740   1.916  -1.488  0.00  0.00    +0.055 C 
ATOM      2  C   UNL     1       1.427   1.644  -0.003  0.00  0.00    +0.014 C 
ATOM      3  C   UNL     1      -0.013   1.086   0.008  0.00  0.00    +0.023 C 
ATOM      4  C   UNL     1       0.464   1.500  -2.250  0.00  0.00    -0.056 C 
ATOM      5  C   UNL     1      -1.784   0.792  -1.637  0.00  0.00    -0.095 C 
ATOM      6  N   UNL     1      -0.588   1.599  -1.240  0.00  0.00    +0.387 N 
ATOM      7  H   UNL     1      -0.867   2.580  -1.122  0.00  0.00    -0.081 HD
ENDROOT
BRANCH   3   8
ATOM      8  C   UNL     1      -0.764   1.594   1.212  0.00  0.00    +0.214 A 
ATOM      9  N   UNL     1      -1.088   0.902   2.276  0.00  0.00    -0.193 NA
ATOM     10  C   UNL     1      -1.745   1.764   3.083  0.00  0.00    +0.202 A 
ATOM     11  N   UNL     1      -1.789   2.915   2.465  0.00  0.00    -0.056 NA
ATOM     12  O   UNL     1      -1.231   2.833   1.391  0.00  0.00    -0.339 OA
BRANCH  10  13
ATOM     13  C   UNL     1      -2.316   1.459   4.419  0.00  0.00    +0.023 A 
ATOM     14  C   UNL     1      -2.192   0.165   4.950  0.00  0.00    +0.012 A 
ATOM     15  C   UNL     1      -2.700  -0.138   6.172  0.00  0.00    +0.009 A 
ATOM     16  C   UNL     1      -3.371   0.847   6.918  0.00  0.00    -0.018 A 
ATOM     17  C   UNL     1      -3.910   0.557   8.183  0.00  0.00    +0.008 A 
ATOM     18  C   UNL     1      -4.555   1.532   8.881  0.00  0.00    +0.001 A 
ATOM     19  C   UNL     1      -4.689   2.818   8.361  0.00  0.00    +0.001 A 
ATOM     20  C   UNL     1      -4.179   3.136   7.141  0.00  0.00    +0.008 A 
ATOM     21  C   UNL     1      -3.507   2.156   6.390  0.00  0.00    -0.017 A 
ATOM     22  C   UNL     1      -2.969   2.450   5.127  0.00  0.00    +0.020 A 
ENDBRANCH  10  13
ENDBRANCH   3   8
BRANCH   1  25
ATOM     23  C   UNL     1       2.777   3.732  -2.738  0.00  0.00    +0.214 C 
ATOM     24  O   UNL     1       3.234   2.908  -3.501  0.00  0.00    -0.276 OA
ATOM     25  N   UNL     1       2.016   3.340  -1.698  0.00  0.00    -0.314 N 
ATOM     26  H   UNL     1       1.651   3.999  -1.088  0.00  0.00    +0.149 HD
BRANCH  23  27
ATOM     27  C   UNL     1       3.061   5.197  -2.954  0.00  0.00    +0.102 C 
BRANCH  27  29
ATOM     28  C   UNL     1       5.259   4.618  -3.992  0.00  0.00    +0.012 C 
ATOM     29  C   UNL     1       3.941   5.369  -4.194  0.00  0.00    -0.016 C 
ATOM     30  C   UNL     1       3.215   4.804  -5.417  0.00  0.00    +0.012 C 
BRANCH  29  31
ATOM     31  C   UNL     1       4.229   6.855  -4.412  0.00  0.00    +0.132 C 
BRANCH  31  32
ATOM     32  C   UNL     1       5.096   7.024  -5.633  0.00  0.00    +0.357 C 
ATOM     33  O   UNL     1       5.447   6.056  -6.264  0.00  0.00    -0.246 OA
ATOM     34  O   UNL     1       5.478   8.252  -6.020  0.00  0.00    -0.246 OA
ENDBRANCH  31  32
ENDBRANCH  29  31
ENDBRANCH  27  29
ENDBRANCH  23  27
ENDBRANCH   1  25
TORSDOF 7
