REMARK  Name = ZINC65227887
REMARK  6 active torsions:
REMARK  status: ('A' for Active; 'I' for Inactive)
REMARK    1  A    between atoms: C_1  and  C_2
REMARK    2  A    between atoms: C_2  and  C_4
REMARK    3  A    between atoms: C_2  and  N_10
REMARK    4  A    between atoms: C_11  and  C_13
REMARK    5  A    between atoms: C_21  and  C_26
REMARK    6  A    between atoms: C_28  and  C_31
REMARK                            x       y       z     vdW  Elec       q    Type
REMARK                         _______ _______ _______ _____ _____    ______ ____
ROOT
ATOM      1  C   UNL     1       0.694  -1.118  -3.579  0.00  0.00    +0.092 C 
ATOM      2  C   UNL     1       1.821  -0.142  -3.923  0.00  0.00    +0.016 C 
ATOM      3  C   UNL     1       2.562  -0.635  -5.168  0.00  0.00    +0.020 C 
ATOM      4  C   UNL     1       1.588  -0.685  -6.350  0.00  0.00    +0.106 C 
ATOM      5  N   UNL     1       0.429  -1.506  -5.973  0.00  0.00    -0.315 N 
ATOM      6  C   UNL     1      -0.301  -1.175  -4.742  0.00  0.00    +0.119 C 
ATOM      7  C   UNL     1       0.032  -2.573  -6.764  0.00  0.00    +0.110 A 
ATOM      8  C   UNL     1      -0.958  -2.387  -7.740  0.00  0.00    +0.060 A 
ATOM      9  C   UNL     1      -1.343  -3.474  -8.524  0.00  0.00    +0.016 A 
ATOM     10  C   UNL     1      -0.728  -4.696  -8.305  0.00  0.00    +0.018 A 
ATOM     11  C   UNL     1       0.240  -4.803  -7.325  0.00  0.00    +0.084 A 
ATOM     12  N   UNL     1       0.593  -3.760  -6.598  0.00  0.00    -0.349 N 
ATOM     13  H   UNL     1       1.279  -3.867  -5.920  0.00  0.00    +0.167 HD
ENDROOT
BRANCH   8  14
ATOM     14  C   UNL     1      -1.586  -1.057  -7.933  0.00  0.00    +0.205 A 
ATOM     15  N   UNL     1      -2.616  -0.788  -8.755  0.00  0.00    -0.191 NA
ATOM     16  C   UNL     1      -2.922   0.476  -8.686  0.00  0.00    +0.231 A 
ATOM     17  O   UNL     1      -2.095   1.067  -7.814  0.00  0.00    -0.337 OA
ATOM     18  N   UNL     1      -1.232   0.050  -7.328  0.00  0.00    -0.056 NA
BRANCH  16  19
ATOM     19  C   UNL     1      -4.021   1.159  -9.459  0.00  0.00    +0.078 C 
ATOM     20  C   UNL     1      -3.656   2.578  -9.926  0.00  0.00    +0.013 C 
ATOM     21  C   UNL     1      -5.095   2.983  -9.563  0.00  0.00    +0.001 C 
ATOM     22  C   UNL     1      -5.089   1.812  -8.565  0.00  0.00    +0.013 C 
ENDBRANCH  16  19
ENDBRANCH   8  14
BRANCH   1  24
ATOM     23  N   UNL     1       0.668  -0.521  -1.178  0.00  0.00    -0.308 N 
ATOM     24  C   UNL     1      -0.014  -0.649  -2.333  0.00  0.00    +0.218 C 
ATOM     25  O   UNL     1      -1.198  -0.387  -2.371  0.00  0.00    -0.275 OA
ATOM     26  H   UNL     1       1.615  -0.730  -1.148  0.00  0.00    +0.149 HD
BRANCH  23  28
ATOM     27  C   UNL     1      -0.055   1.464   0.054  0.00  0.00    +0.033 C 
ATOM     28  C   UNL     1      -0.020  -0.065   0.032  0.00  0.00    +0.100 C 
BRANCH  28  29
ATOM     29  C   UNL     1       0.715  -0.568   1.248  0.00  0.00    -0.027 A 
ATOM     30  C   UNL     1       2.097  -0.566   1.269  0.00  0.00    +0.005 A 
ATOM     31  C   UNL     1       2.772  -1.027   2.384  0.00  0.00    +0.000 A 
ATOM     32  C   UNL     1       2.064  -1.490   3.478  0.00  0.00    +0.000 A 
ATOM     33  C   UNL     1       0.682  -1.491   3.457  0.00  0.00    +0.000 A 
ATOM     34  C   UNL     1       0.007  -1.026   2.343  0.00  0.00    +0.005 A 
ENDBRANCH  28  29
ENDBRANCH  23  28
ENDBRANCH   1  24
TORSDOF 5
