REMARK  Name = ZINC63022638
REMARK  3 active torsions:
REMARK  status: ('A' for Active; 'I' for Inactive)
REMARK    1  A    between atoms: C_1  and  C_2
REMARK    2  A    between atoms: C_5  and  C_9
REMARK    3  A    between atoms: C_15  and  N_18
REMARK                            x       y       z     vdW  Elec       q    Type
REMARK                         _______ _______ _______ _____ _____    ______ ____
ROOT
ATOM      1  C   UNL     1       0.059  -4.251  -0.023  0.00  0.00    +0.169 A 
ATOM      2  N   UNL     1      -0.293  -5.032  -1.026  0.00  0.00    -0.128 NA
ATOM      3  N   UNL     1      -0.154  -6.267  -0.695  0.00  0.00    -0.129 NA
ATOM      4  C   UNL     1       0.299  -6.349   0.549  0.00  0.00    +0.161 A 
ATOM      5  N   UNL     1       0.452  -5.064   1.006  0.00  0.00    -0.281 N 
ATOM      6  C   UNL     1       0.914  -4.827   2.267  0.00  0.00    +0.117 A 
ATOM      7  C   UNL     1       1.234  -5.859   3.087  0.00  0.00    +0.041 A 
ATOM      8  C   UNL     1       1.090  -7.189   2.641  0.00  0.00    +0.028 A 
ATOM      9  C   UNL     1       0.621  -7.432   1.388  0.00  0.00    +0.050 A 
ENDROOT
BRANCH   1  14
ATOM     10  C   UNL     1      -0.020   1.503   0.012  0.00  0.00    +0.045 C 
ATOM     11  C   UNL     1       0.001  -0.004   0.003  0.00  0.00    -0.032 A 
ATOM     12  C   UNL     1      -0.763  -0.698  -0.918  0.00  0.00    +0.005 A 
ATOM     13  C   UNL     1      -0.749  -2.077  -0.932  0.00  0.00    +0.012 A 
ATOM     14  C   UNL     1       0.040  -2.774  -0.014  0.00  0.00    +0.021 A 
ATOM     15  C   UNL     1       0.809  -2.068   0.913  0.00  0.00    +0.031 A 
ATOM     16  C   UNL     1       0.790  -0.688   0.913  0.00  0.00    +0.045 A 
ATOM     17 CL   UNL     1       1.751   0.192   2.059  0.00  0.00    -0.083 Cl
ENDBRANCH   1  14
BRANCH   7  18
ATOM     18  N   UNL     1       1.709  -5.604   4.380  0.00  0.00    -0.357 N 
ATOM     19  H   UNL     1       1.809  -4.689   4.688  0.00  0.00    +0.142 HD
ATOM     20  H   UNL     1       1.938  -6.341   4.967  0.00  0.00    +0.142 HD
ENDBRANCH   7  18
TORSDOF 2
