REMARK  Name = ZINC12174641
REMARK  14 active torsions:
REMARK  status: ('A' for Active; 'I' for Inactive)
REMARK    1  A    between atoms: C_1  and  C_2
REMARK    2  A    between atoms: C_2  and  O_3
REMARK    3  A    between atoms: O_3  and  C_4
REMARK    4  A    between atoms: C_4  and  C_6
REMARK    5  A    between atoms: C_10  and  N_11
REMARK    6  A    between atoms: C_12  and  C_14
REMARK    7  A    between atoms: C_14  and  C_16
REMARK    8  A    between atoms: C_14  and  O_17
REMARK    9  A    between atoms: O_17  and  C_18
REMARK   10  A    between atoms: C_18  and  C_20
REMARK   11  A    between atoms: C_20  and  C_21
REMARK   12  A    between atoms: C_21  and  C_23
REMARK   13  A    between atoms: C_21  and  N_28
REMARK   14  A    between atoms: C_29  and  C_31
REMARK                            x       y       z     vdW  Elec       q    Type
REMARK                         _______ _______ _______ _____ _____    ______ ____
ROOT
ATOM      1  N   UNL     1      -2.062   1.768  -1.363  0.00  0.00    -0.276 N 
ATOM      2  C   UNL     1      -0.748   2.025  -1.210  0.00  0.00    +0.258 C 
ATOM      3  O   UNL     1      -0.152   2.658  -2.056  0.00  0.00    -0.271 OA
ATOM      4  H   UNL     1      -2.538   1.261  -0.687  0.00  0.00    +0.155 HD
ENDROOT
BRANCH   1   9
ATOM      5  C   UNL     1      -4.069   2.060  -2.821  0.00  0.00    +0.091 A 
ATOM      6  C   UNL     1      -4.528   2.651  -4.067  0.00  0.00    -0.021 A 
ATOM      7  C   UNL     1      -3.581   3.300  -4.779  0.00  0.00    -0.004 A 
ATOM      8  S   UNL     1      -2.103   3.142  -3.816  0.00  0.00    -0.077 S 
ATOM      9  C   UNL     1      -2.732   2.227  -2.486  0.00  0.00    +0.086 A 
ATOM     10  C   UNL     1      -3.757   3.995  -6.093  0.00  0.00    +0.043 C 
ATOM     11  C   UNL     1      -5.092   3.545  -6.704  0.00  0.00    +0.005 C 
ATOM     12  C   UNL     1      -6.182   3.641  -5.631  0.00  0.00    +0.005 C 
ATOM     13  C   UNL     1      -5.963   2.561  -4.570  0.00  0.00    +0.037 C 
BRANCH   5  14
ATOM     14  C   UNL     1      -4.984   1.319  -1.950  0.00  0.00    +0.342 C 
ATOM     15  O   UNL     1      -5.603   1.904  -1.081  0.00  0.00    -0.245 OA
BRANCH  14  16
ATOM     16  O   UNL     1      -5.141  -0.011  -2.110  0.00  0.00    -0.461 OA
BRANCH  16  18
ATOM     17  C   UNL     1      -6.109  -2.172  -1.543  0.00  0.00    +0.048 C 
ATOM     18  C   UNL     1      -6.064  -0.679  -1.211  0.00  0.00    +0.229 C 
ENDBRANCH  16  18
ENDBRANCH  14  16
ENDBRANCH   5  14
ENDBRANCH   1   9
BRANCH   2  19
ATOM     19  C   UNL     1      -0.019   1.526   0.010  0.00  0.00    +0.259 C 
ATOM     20  C   UNL     1       0.002  -0.004   0.002  0.00  0.00    +0.062 C 
BRANCH  19  21
ATOM     21  O   UNL     1       1.343   2.028   0.000  0.00  0.00    -0.452 OA
BRANCH  21  22
ATOM     22  C   UNL     1       1.927   2.233   1.192  0.00  0.00    +0.310 C 
ATOM     23  O   UNL     1       1.319   2.000   2.210  0.00  0.00    -0.251 OA
BRANCH  22  24
ATOM     24  C   UNL     1       3.339   2.753   1.260  0.00  0.00    +0.148 C 
BRANCH  24  25
ATOM     25  C   UNL     1       3.760   2.896   2.724  0.00  0.00    +0.120 C 
BRANCH  25  26
ATOM     26  C   UNL     1       5.211   3.298   2.793  0.00  0.00    +0.010 A 
ATOM     27  C   UNL     1       6.300   2.529   3.037  0.00  0.00    +0.013 A 
ATOM     28  C   UNL     1       7.549   3.119   3.049  0.00  0.00    +0.008 A 
ATOM     29  C   UNL     1       7.648   4.453   2.825  0.00  0.00    +0.045 A 
ATOM     30  S   UNL     1       5.941   4.914   2.581  0.00  0.00    -0.100 S 
ENDBRANCH  25  26
BRANCH  25  31
ATOM     31  N   UNL     1       2.938   3.921   3.371  0.00  0.00    -0.308 N 
ATOM     32  C   UNL     1       2.749   3.890   4.705  0.00  0.00    +0.210 C 
ATOM     33  O   UNL     1       3.261   3.014   5.370  0.00  0.00    -0.276 OA
ATOM     34  C   UNL     1       1.903   4.945   5.371  0.00  0.00    +0.109 C 
ATOM     35  H   UNL     1       2.529   4.622   2.839  0.00  0.00    +0.149 HD
ENDBRANCH  25  31
ENDBRANCH  24  25
ENDBRANCH  22  24
ENDBRANCH  21  22
ENDBRANCH  19  21
ENDBRANCH   2  19
TORSDOF 11
