REMARK  Name = ZINC39685023
REMARK  9 active torsions:
REMARK  status: ('A' for Active; 'I' for Inactive)
REMARK    1  A    between atoms: C_1  and  C_2
REMARK    2  A    between atoms: C_2  and  O_4
REMARK    3  A    between atoms: O_4  and  C_5
REMARK    4  A    between atoms: C_10  and  C_11
REMARK    5  A    between atoms: C_15  and  C_24
REMARK    6  A    between atoms: N_26  and  C_27
REMARK    7  A    between atoms: C_27  and  C_28
REMARK    8  A    between atoms: C_28  and  O_29
REMARK    9  A    between atoms: O_29  and  C_30
REMARK                            x       y       z     vdW  Elec       q    Type
REMARK                         _______ _______ _______ _____ _____    ______ ____
ROOT
ATOM      1  C   UNL     1       0.144  -2.200  -3.465  0.00  0.00    +0.250 C 
ATOM      2  O   UNL     1       0.216  -0.990  -3.558  0.00  0.00    -0.270 OA
ATOM      3  N   UNL     1       0.115  -2.960  -4.578  0.00  0.00    -0.296 N 
ATOM      4  C   UNL     1       0.091  -4.439  -4.666  0.00  0.00    +0.121 C 
ATOM      5  C   UNL     1      -0.879  -4.745  -5.829  0.00  0.00    +0.100 C 
ATOM      6  C   UNL     1      -0.868  -3.474  -6.694  0.00  0.00    -0.004 C 
ATOM      7  C   UNL     1       0.093  -2.506  -5.989  0.00  0.00    +0.115 C 
ATOM      8  C   UNL     1      -0.361  -3.794  -8.097  0.00  0.00    -0.010 C 
ATOM      9  C   UNL     1      -0.414  -2.527  -8.956  0.00  0.00    -0.082 C 
ATOM     10  N   UNL     1      -1.793  -2.030  -9.014  0.00  0.00    +0.379 N 
ATOM     11  C   UNL     1      -2.241  -1.637  -7.672  0.00  0.00    -0.082 C 
ATOM     12  C   UNL     1      -2.266  -2.867  -6.760  0.00  0.00    -0.010 C 
ATOM     13  H   UNL     1      -1.836  -1.231  -9.629  0.00  0.00    -0.086 HD
ATOM     14  H   UNL     1      -2.397  -2.757  -9.369  0.00  0.00    -0.086 HD
ENDROOT
BRANCH   1  20
ATOM     15  C   UNL     1      -0.606  -2.217  -1.087  0.00  0.00    +0.144 A 
ATOM     16  C   UNL     1      -0.658  -2.826   0.158  0.00  0.00    +0.047 A 
ATOM     17  C   UNL     1      -0.022  -4.035   0.363  0.00  0.00    +0.004 A 
ATOM     18  C   UNL     1       0.670  -4.647  -0.669  0.00  0.00    +0.001 A 
ATOM     19  C   UNL     1       0.731  -4.055  -1.912  0.00  0.00    +0.017 A 
ATOM     20  C   UNL     1       0.088  -2.836  -2.135  0.00  0.00    +0.079 A 
BRANCH  15  21
ATOM     21  O   UNL     1      -1.230  -1.029  -1.290  0.00  0.00    -0.425 OA
BRANCH  21  23
ATOM     22  C   UNL     1      -3.269   0.236  -1.876  0.00  0.00    +0.136 C 
ATOM     23  C   UNL     1      -2.495  -1.050  -1.742  0.00  0.00    +0.309 C 
ATOM     24  O   UNL     1      -3.013  -2.101  -2.040  0.00  0.00    -0.251 OA
ENDBRANCH  21  23
ENDBRANCH  15  21
ENDBRANCH   1  20
BRANCH   5  25
ATOM     25  C   UNL     1      -0.389  -5.928  -6.624  0.00  0.00    +0.218 C 
ATOM     26  O   UNL     1       0.791  -6.206  -6.632  0.00  0.00    -0.275 OA
ATOM     27  N   UNL     1      -1.263  -6.677  -7.325  0.00  0.00    -0.312 N 
ATOM     28  H   UNL     1      -2.207  -6.455  -7.318  0.00  0.00    +0.149 HD
BRANCH  27  29
ATOM     29  C   UNL     1      -0.786  -7.827  -8.098  0.00  0.00    +0.145 C 
BRANCH  29  30
ATOM     30  C   UNL     1      -1.971  -8.500  -8.794  0.00  0.00    +0.248 C 
BRANCH  30  31
ATOM     31  O   UNL     1      -2.530  -7.603  -9.757  0.00  0.00    -0.488 OA
BRANCH  31  32
ATOM     32  C   UNL     1      -3.598  -8.049 -10.469  0.00  0.00    +0.156 A 
ATOM     33  C   UNL     1      -4.102  -9.321 -10.242  0.00  0.00    +0.048 A 
ATOM     34  C   UNL     1      -5.189  -9.772 -10.967  0.00  0.00    +0.004 A 
ATOM     35  C   UNL     1      -5.774  -8.958 -11.919  0.00  0.00    +0.003 A 
ATOM     36  C   UNL     1      -5.274  -7.689 -12.148  0.00  0.00    +0.042 A 
ATOM     37  C   UNL     1      -4.191  -7.230 -11.421  0.00  0.00    +0.165 A 
ATOM     38  F   UNL     1      -3.706  -5.988 -11.641  0.00  0.00    -0.202 F 
ENDBRANCH  31  32
ENDBRANCH  30  31
ENDBRANCH  29  30
ENDBRANCH  27  29
ENDBRANCH   5  25
TORSDOF 8
