REMARK  Name = ZINC14990129
REMARK  9 active torsions:
REMARK  status: ('A' for Active; 'I' for Inactive)
REMARK    1  A    between atoms: C_1  and  C_2
REMARK    2  A    between atoms: C_2  and  C_3
REMARK    3  A    between atoms: C_3  and  C_4
REMARK    4  A    between atoms: C_4  and  C_19
REMARK    5  A    between atoms: N_7  and  C_11
REMARK    6  A    between atoms: C_11  and  C_12
REMARK    7  A    between atoms: C_12  and  C_13
REMARK    8  A    between atoms: C_24  and  C_25
REMARK    9  A    between atoms: C_24  and  N_68
REMARK                            x       y       z     vdW  Elec       q    Type
REMARK                         _______ _______ _______ _____ _____    ______ ____
ROOT
ATOM      1  C   UNL     1       2.165   0.655  -0.015  0.00  0.00    +0.115 C 
ATOM      2  C   UNL     1       1.230   1.848   0.000  0.00  0.00    +0.247 C 
ATOM      3  O   UNL     1       1.538   3.020   0.003  0.00  0.00    -0.273 OA
ATOM      4  N   UNL     1      -0.016   1.334   0.009  0.00  0.00    -0.224 N 
ATOM      5  C   UNL     1       0.002  -0.004   0.002  0.00  0.00    +0.309 C 
ATOM      6  O   UNL     1      -0.999  -0.693   0.008  0.00  0.00    -0.252 OA
ATOM      7  N   UNL     1       1.252  -0.501  -0.013  0.00  0.00    -0.285 N 
ATOM      8  H   UNL     1       1.503  -1.438  -0.021  0.00  0.00    +0.151 HD
ENDROOT
BRANCH   1   9
ATOM      9  C   UNL     1       3.023   0.660  -1.282  0.00  0.00    +0.018 C 
ATOM     10  C   UNL     1       4.030   1.812  -1.213  0.00  0.00    -0.013 C 
ATOM     11  C   UNL     1       4.844   1.850  -2.508  0.00  0.00    -0.078 C 
ATOM     12  C   UNL     1       2.995   0.915  -3.765  0.00  0.00    -0.078 C 
ATOM     13  C   UNL     1       2.126   0.850  -2.507  0.00  0.00    -0.013 C 
ATOM     14  N   UNL     1       3.924   2.059  -3.647  0.00  0.00    +0.382 N 
ATOM     15  H   UNL     1       3.380   2.914  -3.484  0.00  0.00    -0.081 HD
BRANCH  14  16
ATOM     16  C   UNL     1       4.696   2.213  -4.897  0.00  0.00    -0.043 C 
BRANCH  16  17
ATOM     17  C   UNL     1       5.816   3.195  -4.668  0.00  0.00    -0.063 A 
ATOM     18  C   UNL     1       5.608   4.546  -4.879  0.00  0.00    +0.005 A 
ATOM     19  C   UNL     1       6.629   5.449  -4.670  0.00  0.00    +0.046 A 
ATOM     20  C   UNL     1       7.883   5.007  -4.255  0.00  0.00    +0.124 A 
ATOM     21  C   UNL     1       8.080   3.648  -4.046  0.00  0.00    -0.002 A 
ATOM     22  C   UNL     1       7.058   2.748  -4.252  0.00  0.00    +0.009 A 
ATOM     23  C   UNL     1       9.515   3.471  -3.590  0.00  0.00    +0.080 C 
ATOM     24  C   UNL     1       9.908   4.917  -3.205  0.00  0.00    +0.234 C 
ATOM     25  O   UNL     1       9.021   5.713  -4.009  0.00  0.00    -0.491 OA
ENDBRANCH  16  17
ENDBRANCH  14  16
ENDBRANCH   1   9
BRANCH   1  26
ATOM     26  C   UNL     1       3.050   0.645   1.233  0.00  0.00    +0.035 C 
BRANCH  26  28
ATOM     27  C   UNL     1       3.055   0.557   3.730  0.00  0.00    +0.004 C 
ATOM     28  C   UNL     1       2.170   0.567   2.482  0.00  0.00    -0.001 C 
ENDBRANCH  26  28
ENDBRANCH   1  26
BRANCH   4  29
ATOM     29  C   UNL     1      -1.239   2.140   0.020  0.00  0.00    +0.124 C 
BRANCH  29  30
ATOM     30  C   UNL     1      -1.657   2.413   1.466  0.00  0.00    +0.075 C 
BRANCH  30  31
ATOM     31  C   UNL     1      -2.916   3.243   1.476  0.00  0.00    +0.043 A 
ATOM     32  C   UNL     1      -4.024   2.794   2.169  0.00  0.00    +0.023 A 
ATOM     33  C   UNL     1      -5.176   3.565   2.173  0.00  0.00    +0.003 A 
ATOM     34  C   UNL     1      -5.170   4.764   1.477  0.00  0.00    +0.020 A 
ATOM     35  C   UNL     1      -4.024   5.148   0.807  0.00  0.00    +0.111 A 
ATOM     36  N   UNL     1      -2.944   4.392   0.829  0.00  0.00    -0.260 NA
ENDBRANCH  30  31
ENDBRANCH  29  30
ENDBRANCH   4  29
TORSDOF 8
