REMARK  Name = ZINC44784176
REMARK  9 active torsions:
REMARK  status: ('A' for Active; 'I' for Inactive)
REMARK    1  A    between atoms: C_1  and  C_2
REMARK    2  A    between atoms: C_2  and  N_3
REMARK    3  A    between atoms: N_3  and  C_4
REMARK    4  A    between atoms: C_9  and  C_10
REMARK    5  A    between atoms: C_11  and  C_13
REMARK    6  A    between atoms: C_13  and  C_14
REMARK    7  A    between atoms: C_13  and  C_15
REMARK    8  A    between atoms: C_13  and  C_16
REMARK    9  A    between atoms: N_17  and  O_18
REMARK                            x       y       z     vdW  Elec       q    Type
REMARK                         _______ _______ _______ _____ _____    ______ ____
ROOT
ATOM      1  N   UNL     1      -0.268  -0.224  -1.382  0.00  0.00    -0.271 N 
ATOM      2  C   UNL     1      -0.393  -0.768  -2.608  0.00  0.00    +0.233 C 
ATOM      3  O   UNL     1      -1.496  -0.991  -3.063  0.00  0.00    -0.274 OA
ENDROOT
BRANCH   1   4
ATOM      4  C   UNL     1       1.001  -0.062  -0.815  0.00  0.00    +0.039 A 
ATOM      5  C   UNL     1       1.617  -1.127  -0.170  0.00  0.00    +0.024 A 
ATOM      6  C   UNL     1       2.870  -0.963   0.388  0.00  0.00    +0.002 A 
ATOM      7  C   UNL     1       3.511   0.260   0.305  0.00  0.00    +0.000 A 
ATOM      8  C   UNL     1       2.900   1.322  -0.336  0.00  0.00    +0.005 A 
ATOM      9  C   UNL     1       1.650   1.163  -0.901  0.00  0.00    -0.029 A 
ATOM     10  C   UNL     1       0.988   2.319  -1.605  0.00  0.00    +0.045 C 
ENDBRANCH   1   4
BRANCH   2  11
ATOM     11  C   UNL     1       0.836  -1.100  -3.415  0.00  0.00    +0.100 C 
ATOM     12  C   UNL     1       1.804   0.085  -3.380  0.00  0.00    +0.029 C 
ATOM     13  C   UNL     1       1.518  -2.334  -2.821  0.00  0.00    +0.029 C 
BRANCH  11  14
ATOM     14  C   UNL     1       0.439  -1.383  -4.841  0.00  0.00    +0.146 C 
ATOM     15  N   UNL     1       0.916  -0.659  -5.800  0.00  0.00    -0.076 NA
ATOM     16  N   UNL     1      -0.431  -2.412  -5.123  0.00  0.00    -0.343 N 
ATOM     17  H   UNL     1      -0.789  -2.955  -4.403  0.00  0.00    +0.144 HD
ATOM     18  H   UNL     1      -0.687  -2.594  -6.041  0.00  0.00    +0.144 HD
BRANCH  15  19
ATOM     19  O   UNL     1       0.543  -0.925  -7.140  0.00  0.00    -0.408 OA
ATOM     20  H   UNL     1       0.950  -0.332  -7.786  0.00  0.00    +0.328 HD
ENDBRANCH  15  19
ENDBRANCH  11  14
ENDBRANCH   2  11
BRANCH   1  22
ATOM     21  C   UNL     1      -1.879   1.594  -1.102  0.00  0.00    +0.025 C 
ATOM     22  C   UNL     1      -1.460   0.196  -0.641  0.00  0.00    +0.110 C 
ENDBRANCH   1  22
TORSDOF 5
