REMARK  Name = ZINC02342074
REMARK  5 active torsions:
REMARK  status: ('A' for Active; 'I' for Inactive)
REMARK    1  A    between atoms: C_1  and  C_2
REMARK    2  A    between atoms: C_2  and  C_31
REMARK    3  A    between atoms: C_11  and  C_16
REMARK    4  A    between atoms: N_18  and  C_25
REMARK    5  A    between atoms: C_25  and  C_26
REMARK                            x       y       z     vdW  Elec       q    Type
REMARK                         _______ _______ _______ _____ _____    ______ ____
ROOT
ATOM      1  C   UNL     1       5.248  -2.950   1.854  0.00  0.00    +0.041 C 
ATOM      2  C   UNL     1       5.403  -2.611   0.370  0.00  0.00    +0.068 C 
ATOM      3  C   UNL     1       4.281  -1.657  -0.052  0.00  0.00    +0.071 C 
ATOM      4  C   UNL     1       2.969  -2.437  -0.043  0.00  0.00    -0.019 A 
ATOM      5  C   UNL     1       2.997  -3.790  -0.050  0.00  0.00    +0.021 A 
ATOM      6  S   UNL     1       1.298  -4.283  -0.034  0.00  0.00    -0.071 S 
ATOM      7  C   UNL     1       0.554  -2.671  -0.018  0.00  0.00    +0.114 A 
ATOM      8  C   UNL     1       1.658  -1.801  -0.025  0.00  0.00    +0.055 A 
ATOM      9  C   UNL     1       1.319  -0.364  -0.013  0.00  0.00    +0.168 A 
ATOM     10  N   UNL     1       2.046   0.735  -0.014  0.00  0.00    -0.206 NA
ATOM     11  C   UNL     1       1.240   1.802  -0.000  0.00  0.00    +0.184 A 
ATOM     12  N   UNL     1      -0.017   1.398   0.010  0.00  0.00    -0.143 NA
ATOM     13  N   UNL     1       0.002  -0.004   0.002  0.00  0.00    -0.201 N 
ATOM     14  C   UNL     1      -0.976  -0.949   0.007  0.00  0.00    +0.226 A 
ATOM     15  N   UNL     1      -0.696  -2.223  -0.002  0.00  0.00    -0.228 NA
ATOM     16  C   UNL     1       4.223  -4.650  -0.070  0.00  0.00    +0.203 C 
ATOM     17  O   UNL     1       5.343  -3.814  -0.400  0.00  0.00    -0.368 OA
ATOM     18  C   UNL     1       6.755  -1.931   0.144  0.00  0.00    +0.041 C 
ENDROOT
BRANCH  11  19
ATOM     19  C   UNL     1       1.687   3.215   0.003  0.00  0.00    +0.046 A 
ATOM     20  C   UNL     1       2.967   3.659  -0.008  0.00  0.00    +0.099 A 
ATOM     21  N   UNL     1       2.983   5.023  -0.002  0.00  0.00    -0.337 N 
ATOM     22  C   UNL     1       1.695   5.513   0.013  0.00  0.00    +0.050 A 
ATOM     23  C   UNL     1       0.826   4.409   0.011  0.00  0.00    +0.011 A 
ATOM     24  C   UNL     1      -0.554   4.607   0.031  0.00  0.00    +0.011 A 
ATOM     25  C   UNL     1      -1.058   5.888   0.042  0.00  0.00    +0.001 A 
ATOM     26  C   UNL     1      -0.201   6.979   0.039  0.00  0.00    +0.002 A 
ATOM     27  C   UNL     1       1.165   6.799   0.024  0.00  0.00    +0.026 A 
BRANCH  21  28
ATOM     28  C   UNL     1       4.194   5.847  -0.011  0.00  0.00    +0.217 C 
BRANCH  28  29
ATOM     29  C   UNL     1       4.554   6.226   1.403  0.00  0.00    +0.230 C 
ATOM     30  O   UNL     1       3.867   5.845   2.326  0.00  0.00    -0.274 OA
ATOM     31  N   UNL     1       5.640   6.989   1.640  0.00  0.00    -0.328 N 
ATOM     32  H   UNL     1       6.190   7.293   0.901  0.00  0.00    +0.145 HD
ATOM     33  H   UNL     1       5.872   7.233   2.550  0.00  0.00    +0.145 HD
ENDBRANCH  28  29
ENDBRANCH  21  28
ENDBRANCH  11  19
TORSDOF 3
