REMARK  Name = ZINC41023709
REMARK  8 active torsions:
REMARK  status: ('A' for Active; 'I' for Inactive)
REMARK    1  A    between atoms: C_1  and  C_2
REMARK    2  A    between atoms: C_2  and  C_3
REMARK    3  A    between atoms: C_2  and  C_4
REMARK    4  A    between atoms: C_2  and  C_5
REMARK    5  A    between atoms: C_9  and  C_23
REMARK    6  A    between atoms: C_11  and  S_14
REMARK    7  A    between atoms: S_14  and  C_15
REMARK    8  A    between atoms: C_19  and  N_21
REMARK                            x       y       z     vdW  Elec       q    Type
REMARK                         _______ _______ _______ _____ _____    ______ ____
ROOT
ATOM      1  S   UNL     1       2.894  -2.275  -2.536  0.00  0.00    -0.081 S 
ENDROOT
BRANCH   1   2
ATOM      2  C   UNL     1       4.011  -2.693  -1.240  0.00  0.00    +0.192 A 
ATOM      3  N   UNL     1       4.506  -1.729  -0.477  0.00  0.00    -0.207 NA
ATOM      4  C   UNL     1       5.352  -2.007   0.511  0.00  0.00    +0.122 A 
ATOM      5  C   UNL     1       5.715  -3.332   0.739  0.00  0.00    +0.086 A 
ATOM      6  C   UNL     1       5.175  -4.318  -0.082  0.00  0.00    +0.122 A 
ATOM      7  N   UNL     1       4.331  -3.965  -1.048  0.00  0.00    -0.207 NA
ATOM      8  N   UNL     1       5.865  -0.992   1.304  0.00  0.00    -0.343 N 
ATOM      9  H   UNL     1       5.608  -0.072   1.139  0.00  0.00    +0.144 HD
ATOM     10  H   UNL     1       6.481  -1.203   2.023  0.00  0.00    +0.144 HD
BRANCH   6  11
ATOM     11  N   UNL     1       5.509  -5.650   0.108  0.00  0.00    -0.343 N 
ATOM     12  H   UNL     1       6.122  -5.900   0.817  0.00  0.00    +0.144 HD
ATOM     13  H   UNL     1       5.129  -6.332  -0.468  0.00  0.00    +0.144 HD
ENDBRANCH   6  11
ENDBRANCH   1   2
BRANCH   1  18
ATOM     14  C   UNL     1       0.485  -0.953  -1.129  0.00  0.00    -0.004 C 
ATOM     15  C   UNL     1      -0.300  -0.412  -2.325  0.00  0.00    +0.005 C 
ATOM     16  C   UNL     1       0.490  -0.663  -3.611  0.00  0.00    +0.020 C 
ATOM     17  C   UNL     1       1.843   0.048  -3.525  0.00  0.00    +0.105 C 
ATOM     18  C   UNL     1       2.628  -0.493  -2.329  0.00  0.00    +0.071 C 
ATOM     19  C   UNL     1       1.837  -0.242  -1.043  0.00  0.00    +0.020 C 
BRANCH  14  21
ATOM     20  C   UNL     1      -0.530   0.801   0.332  0.00  0.00    +0.011 C 
ATOM     21  C   UNL     1      -0.306  -0.702   0.156  0.00  0.00    -0.035 C 
ATOM     22  C   UNL     1       0.480  -1.243   1.352  0.00  0.00    +0.011 C 
ATOM     23  C   UNL     1      -1.658  -1.413   0.070  0.00  0.00    +0.011 C 
ENDBRANCH  14  21
BRANCH  17  24
ATOM     24  C   UNL     1       2.603  -0.193  -4.761  0.00  0.00    +0.067 C 
ATOM     25  N   UNL     1       3.191  -0.379  -5.716  0.00  0.00    -0.196 NA
ENDBRANCH  17  24
ENDBRANCH   1  18
TORSDOF 5
