REMARK  Name = ZINC06443941
REMARK  6 active torsions:
REMARK  status: ('A' for Active; 'I' for Inactive)
REMARK    1  A    between atoms: C_1  and  C_2
REMARK    2  A    between atoms: C_12  and  C_14
REMARK    3  A    between atoms: C_14  and  C_16
REMARK    4  A    between atoms: C_14  and  N_65
REMARK    5  A    between atoms: N_20  and  C_21
REMARK    6  A    between atoms: C_28  and  C_31
REMARK                            x       y       z     vdW  Elec       q    Type
REMARK                         _______ _______ _______ _____ _____    ______ ____
ROOT
ATOM      1  C   UNL     1      -1.416   3.638  -2.351  0.00  0.00    +0.039 C 
ENDROOT
BRANCH   1  13
ATOM      2  C   UNL     1      -3.751   9.417  -0.266  0.00  0.00    +0.046 C 
ATOM      3  C   UNL     1      -2.819   9.070  -1.398  0.00  0.00    -0.026 A 
ATOM      4  C   UNL     1      -2.306  10.066  -2.202  0.00  0.00    +0.005 A 
ATOM      5  C   UNL     1      -1.446   9.760  -3.248  0.00  0.00    +0.001 A 
ATOM      6  C   UNL     1      -1.092   8.465  -3.500  0.00  0.00    +0.010 A 
ATOM      7  C   UNL     1      -1.599   7.438  -2.697  0.00  0.00    -0.001 A 
ATOM      8  C   UNL     1      -2.472   7.745  -1.636  0.00  0.00    +0.052 A 
ATOM      9  N   UNL     1      -2.970   6.729  -0.848  0.00  0.00    -0.322 N 
ATOM     10  H   UNL     1      -3.572   6.942  -0.117  0.00  0.00    +0.169 HD
ATOM     11  C   UNL     1      -2.635   5.447  -1.079  0.00  0.00    +0.251 A 
ATOM     12  O   UNL     1      -3.095   4.575  -0.362  0.00  0.00    -0.268 OA
ATOM     13  C   UNL     1      -1.765   5.087  -2.130  0.00  0.00    +0.011 A 
ATOM     14  C   UNL     1      -1.237   6.040  -2.937  0.00  0.00    +0.017 A 
ENDBRANCH   1  13
BRANCH   1  20
ATOM     15  C   UNL     1       0.330   3.720  -0.671  0.00  0.00    -0.072 C 
ATOM     16  C   UNL     1       0.629   3.308   0.772  0.00  0.00    +0.017 C 
ATOM     17  C   UNL     1       0.534   1.814   0.902  0.00  0.00    -0.048 C 
ATOM     18  C   UNL     1      -0.062   1.059   0.006  0.00  0.00    -0.041 C 
ATOM     19  C   UNL     1      -0.697   1.612  -1.238  0.00  0.00    -0.049 C 
ATOM     20  N   UNL     1      -0.927   3.060  -1.079  0.00  0.00    +0.392 N 
ATOM     21  H   UNL     1      -1.636   3.209  -0.350  0.00  0.00    -0.080 HD
BRANCH  17  22
ATOM     22  C   UNL     1       1.134   1.165   2.087  0.00  0.00    -0.022 A 
ATOM     23  C   UNL     1       0.626   1.425   3.360  0.00  0.00    +0.011 A 
ATOM     24  C   UNL     1       1.186   0.812   4.462  0.00  0.00    +0.039 A 
ATOM     25  C   UNL     1       2.259  -0.051   4.307  0.00  0.00    +0.123 A 
ATOM     26  C   UNL     1       2.771  -0.307   3.045  0.00  0.00    +0.039 A 
ATOM     27  C   UNL     1       2.215   0.295   1.936  0.00  0.00    +0.011 A 
ATOM     28  F   UNL     1       2.807  -0.644   5.390  0.00  0.00    -0.205 F 
ENDBRANCH  17  22
ENDBRANCH   1  20
BRANCH   1  29
ATOM     29  C   UNL     1      -2.645   2.887  -2.795  0.00  0.00    +0.143 A 
ATOM     30  N   UNL     1      -3.652   2.519  -2.042  0.00  0.00    -0.115 NA
ATOM     31  N   UNL     1      -4.504   1.905  -2.788  0.00  0.00    -0.023 NA
ATOM     32  N   UNL     1      -4.062   1.864  -3.996  0.00  0.00    -0.044 NA
ATOM     33  N   UNL     1      -2.919   2.459  -4.042  0.00  0.00    -0.227 N 
BRANCH  33  34
ATOM     34  C   UNL     1      -2.076   2.636  -5.227  0.00  0.00    +0.111 C 
ATOM     35  C   UNL     1      -2.857   3.391  -6.323  0.00  0.00    +0.027 C 
ATOM     36  C   UNL     1      -2.394   2.727  -7.644  0.00  0.00    +0.002 C 
ATOM     37  C   UNL     1      -2.271   1.234  -7.252  0.00  0.00    +0.002 C 
ATOM     38  C   UNL     1      -1.703   1.265  -5.818  0.00  0.00    +0.027 C 
ENDBRANCH  33  34
ENDBRANCH   1  29
TORSDOF 5
