REMARK  Name = ZINC53074043
REMARK  6 active torsions:
REMARK  status: ('A' for Active; 'I' for Inactive)
REMARK    1  A    between atoms: C_3  and  C_6
REMARK    2  A    between atoms: N_8  and  C_9
REMARK    3  A    between atoms: C_9  and  C_10
REMARK    4  A    between atoms: N_12  and  C_13
REMARK    5  A    between atoms: C_13  and  C_19
REMARK    6  A    between atoms: C_19  and  O_20
REMARK                            x       y       z     vdW  Elec       q    Type
REMARK                         _______ _______ _______ _____ _____    ______ ____
ROOT
ATOM      1  C   UNL     1       8.612   1.017  -1.125  0.00  0.00    +0.231 C 
ATOM      2  O   UNL     1       9.435   0.788  -1.986  0.00  0.00    -0.274 OA
ATOM      3  N   UNL     1       8.417   0.132  -0.127  0.00  0.00    -0.306 N 
ATOM      4  H   UNL     1       7.815   0.348   0.602  0.00  0.00    +0.149 HD
ENDROOT
BRANCH   3   5
ATOM      5  C   UNL     1       9.113  -1.157  -0.144  0.00  0.00    +0.058 C 
ATOM      6  C   UNL     1       8.661  -1.997   1.052  0.00  0.00    +0.028 C 
ATOM      7  C   UNL     1       8.991  -1.256   2.349  0.00  0.00    +0.002 C 
ATOM      8  C   UNL     1      10.501  -1.021   2.432  0.00  0.00    +0.000 C 
ATOM      9  C   UNL     1      10.953  -0.181   1.236  0.00  0.00    +0.002 C 
ATOM     10  C   UNL     1      10.623  -0.922  -0.061  0.00  0.00    +0.028 C 
BRANCH   5  11
ATOM     11  C   UNL     1       8.783  -1.898  -1.442  0.00  0.00    +0.181 C 
BRANCH  11  12
ATOM     12  O   UNL     1       7.364  -2.005  -1.581  0.00  0.00    -0.393 OA
ATOM     13  H   UNL     1       7.082  -2.465  -2.383  0.00  0.00    +0.209 HD
ENDBRANCH  11  12
ENDBRANCH   5  11
ENDBRANCH   3   5
BRANCH   1  14
ATOM     14  C   UNL     1       7.809   2.291  -1.170  0.00  0.00    +0.200 C 
BRANCH  14  17
ATOM     15  C   UNL     1       7.615   4.264  -2.587  0.00  0.00    +0.251 C 
ATOM     16  O   UNL     1       6.754   4.683  -1.836  0.00  0.00    -0.270 OA
ATOM     17  N   UNL     1       8.205   3.077  -2.341  0.00  0.00    -0.302 N 
ATOM     18  H   UNL     1       8.892   2.743  -2.939  0.00  0.00    +0.150 HD
BRANCH  15  21
ATOM     19  C   UNL     1       8.108   6.774  -5.336  0.00  0.00    +0.008 A 
ATOM     20  C   UNL     1       7.537   6.280  -4.187  0.00  0.00    +0.021 A 
ATOM     21  C   UNL     1       8.012   5.050  -3.759  0.00  0.00    +0.074 A 
ATOM     22  S   UNL     1       9.231   4.675  -5.004  0.00  0.00    -0.092 S 
ATOM     23  C   UNL     1       9.070   6.048  -5.957  0.00  0.00    +0.046 A 
ENDBRANCH  15  21
ENDBRANCH  14  17
ENDBRANCH   1  14
TORSDOF 6
