REMARK  Name = ZINC17521749
REMARK  8 active torsions:
REMARK  status: ('A' for Active; 'I' for Inactive)
REMARK    1  A    between atoms: C_1  and  C_2
REMARK    2  A    between atoms: C_5  and  C_28
REMARK    3  A    between atoms: C_6  and  S_9
REMARK    4  A    between atoms: S_9  and  N_12
REMARK    5  A    between atoms: N_12  and  C_13
REMARK    6  A    between atoms: C_13  and  C_15
REMARK    7  A    between atoms: C_13  and  C_22
REMARK    8  A    between atoms: N_26  and  C_27
REMARK                            x       y       z     vdW  Elec       q    Type
REMARK                         _______ _______ _______ _____ _____    ______ ____
ROOT
ATOM      1  N   UNL     1      -3.470   1.632   0.916  0.00  0.00    -0.175 NA
ATOM      2  H   UNL     1      -3.480   2.599   0.993  0.00  0.00    +0.149 HD
ENDROOT
BRANCH   1   3
ATOM      3  S   UNL     1      -4.536   0.721   1.796  0.00  0.00    +0.061 S 
ATOM      4  O   UNL     1      -5.301   1.630   2.576  0.00  0.00    -0.153 OA
ATOM      5  O   UNL     1      -5.134  -0.195   0.889  0.00  0.00    -0.153 OA
BRANCH   3  11
ATOM      6  C   UNL     1      -1.899  -3.616   3.052  0.00  0.00    +0.045 C 
ATOM      7  C   UNL     1      -2.391  -2.249   3.451  0.00  0.00    -0.029 A 
ATOM      8  C   UNL     1      -2.099  -1.749   4.706  0.00  0.00    +0.025 A 
ATOM      9  C   UNL     1      -2.552  -0.494   5.073  0.00  0.00    +0.046 A 
ATOM     10  C   UNL     1      -3.296   0.260   4.184  0.00  0.00    -0.004 A 
ATOM     11  C   UNL     1      -3.588  -0.240   2.929  0.00  0.00    +0.128 A 
ATOM     12  C   UNL     1      -3.140  -1.497   2.564  0.00  0.00    +0.070 A 
ATOM     13 CL   UNL     1      -3.513  -2.128   0.991  0.00  0.00    -0.081 Cl
ATOM     14  C   UNL     1      -3.788   1.628   4.583  0.00  0.00    +0.047 C 
ATOM     15 CL   UNL     1      -2.185   0.134   6.650  0.00  0.00    -0.083 Cl
ENDBRANCH   3  11
ENDBRANCH   1   3
BRANCH   1  16
ATOM     16  C   UNL     1      -2.513   0.978   0.020  0.00  0.00    +0.172 C 
BRANCH  16  17
ATOM     17  C   UNL     1      -1.219   1.750   0.017  0.00  0.00    -0.021 A 
ATOM     18  C   UNL     1      -0.013   1.076   0.008  0.00  0.00    +0.008 A 
ATOM     19  C   UNL     1       1.175   1.783   0.000  0.00  0.00    +0.038 A 
ATOM     20  C   UNL     1       1.156   3.167   0.008  0.00  0.00    +0.123 A 
ATOM     21  C   UNL     1      -0.053   3.842   0.022  0.00  0.00    +0.038 A 
ATOM     22  C   UNL     1      -1.240   3.133   0.030  0.00  0.00    +0.008 A 
ATOM     23  F   UNL     1       2.316   3.859   0.001  0.00  0.00    -0.205 F 
ENDBRANCH  16  17
BRANCH  16  24
ATOM     24  C   UNL     1      -3.078   0.940  -1.377  0.00  0.00    +0.133 A 
ATOM     25  N   UNL     1      -3.670   1.931  -1.985  0.00  0.00    -0.239 NA
ATOM     26  C   UNL     1      -4.041   1.538  -3.213  0.00  0.00    +0.130 A 
ATOM     27  C   UNL     1      -3.671   0.253  -3.369  0.00  0.00    +0.106 A 
ATOM     28  N   UNL     1      -3.060  -0.127  -2.204  0.00  0.00    -0.336 N 
ATOM     29  C   UNL     1      -2.493  -1.446  -1.910  0.00  0.00    +0.150 C 
ENDBRANCH  16  24
ENDBRANCH   1  16
TORSDOF 5
