REMARK  Name = ZINC35559324
REMARK  5 active torsions:
REMARK  status: ('A' for Active; 'I' for Inactive)
REMARK    1  A    between atoms: C_1  and  C_2
REMARK    2  A    between atoms: C_2  and  N_3
REMARK    3  A    between atoms: N_3  and  C_4
REMARK    4  A    between atoms: C_4  and  C_6
REMARK    5  A    between atoms: C_4  and  C_13
REMARK                            x       y       z     vdW  Elec       q    Type
REMARK                         _______ _______ _______ _____ _____    ______ ____
ROOT
ATOM      1  C   UNL     1       0.710  -1.947  -1.215  0.00  0.00    -0.007 C 
ENDROOT
BRANCH   1   2
ATOM      2  C   UNL     1       1.555  -2.486  -2.339  0.00  0.00    -0.039 A 
ATOM      3  C   UNL     1       0.961  -3.163  -3.388  0.00  0.00    +0.004 A 
ATOM      4  C   UNL     1       1.736  -3.658  -4.420  0.00  0.00    +0.000 A 
ATOM      5  C   UNL     1       3.107  -3.476  -4.404  0.00  0.00    +0.001 A 
ATOM      6  C   UNL     1       3.702  -2.800  -3.356  0.00  0.00    +0.020 A 
ATOM      7  C   UNL     1       2.926  -2.299  -2.326  0.00  0.00    +0.043 A 
ATOM      8 CL   UNL     1       3.672  -1.444  -1.012  0.00  0.00    -0.083 Cl
ENDBRANCH   1   2
BRANCH   1   9
ATOM      9  C   UNL     1      -0.643  -2.612  -1.239  0.00  0.00    -0.030 A 
ATOM     10  C   UNL     1      -1.700  -2.028  -1.913  0.00  0.00    +0.031 A 
ATOM     11  C   UNL     1      -2.903  -2.654  -1.915  0.00  0.00    +0.080 A 
ATOM     12  S   UNL     1      -2.563  -4.113  -0.945  0.00  0.00    -0.065 S 
ATOM     13  C   UNL     1      -0.840  -3.794  -0.606  0.00  0.00    +0.081 A 
ATOM     14 CL   UNL     1       0.290  -4.750   0.302  0.00  0.00    -0.076 Cl
ATOM     15 CL   UNL     1      -4.389  -2.163  -2.667  0.00  0.00    -0.076 Cl
ENDBRANCH   1   9
BRANCH   1  16
ATOM     16  N   UNL     1       0.545  -0.496  -1.378  0.00  0.00    +0.386 N 
ATOM     17  H   UNL     1       0.020  -0.310  -2.220  0.00  0.00    -0.085 HD
ATOM     18  H   UNL     1       1.452  -0.060  -1.444  0.00  0.00    -0.085 HD
BRANCH  16  20
ATOM     19  C   UNL     1      -0.348   1.559  -0.391  0.00  0.00    -0.017 C 
ATOM     20  C   UNL     1      -0.177   0.048  -0.220  0.00  0.00    -0.085 C 
ENDBRANCH  16  20
ENDBRANCH   1  16
TORSDOF 4
