REMARK  Name = ZINC40049885
REMARK  7 active torsions:
REMARK  status: ('A' for Active; 'I' for Inactive)
REMARK    1  A    between atoms: C_4  and  C_7
REMARK    2  A    between atoms: C_7  and  C_9
REMARK    3  A    between atoms: C_7  and  O_31
REMARK    4  A    between atoms: N_12  and  C_15
REMARK    5  A    between atoms: C_15  and  C_16
REMARK    6  A    between atoms: C_18  and  C_21
REMARK    7  A    between atoms: C_24  and  C_27
REMARK                            x       y       z     vdW  Elec       q    Type
REMARK                         _______ _______ _______ _____ _____    ______ ____
ROOT
ATOM      1  C   UNL     1       4.049  -1.182   1.377  0.00  0.00    +0.019 C 
ATOM      2  C   UNL     1       4.163   0.028   2.309  0.00  0.00    -0.012 C 
ATOM      3  C   UNL     1       4.579  -0.447   3.704  0.00  0.00    -0.078 C 
ATOM      4  N   UNL     1       5.875  -1.131   3.625  0.00  0.00    +0.386 N 
ATOM      5  C   UNL     1       5.755  -2.332   2.790  0.00  0.00    -0.078 C 
ATOM      6  C   UNL     1       5.385  -1.930   1.361  0.00  0.00    -0.012 C 
ATOM      7  H   UNL     1       6.559  -0.508   3.221  0.00  0.00    -0.081 HD
ENDROOT
BRANCH   1   8
ATOM      8  C   UNL     1       3.711  -0.707  -0.038  0.00  0.00    +0.147 C 
BRANCH   8  12
ATOM      9  C   UNL     1      -0.017   1.378   0.010  0.00  0.00    +0.000 A 
ATOM     10  C   UNL     1       1.171   2.086   0.002  0.00  0.00    +0.000 A 
ATOM     11  C   UNL     1       2.377   1.411  -0.013  0.00  0.00    +0.006 A 
ATOM     12  C   UNL     1       2.396   0.029  -0.020  0.00  0.00    -0.019 A 
ATOM     13  C   UNL     1       1.208  -0.679  -0.012  0.00  0.00    +0.006 A 
ATOM     14  C   UNL     1       0.002  -0.004   0.002  0.00  0.00    +0.000 A 
ENDBRANCH   8  12
BRANCH   8  15
ATOM     15  O   UNL     1       3.614  -1.836  -0.908  0.00  0.00    -0.387 OA
ATOM     16  H   UNL     1       2.934  -2.474  -0.651  0.00  0.00    +0.210 HD
ENDBRANCH   8  15
ENDBRANCH   1   8
BRANCH   4  17
ATOM     17  C   UNL     1       6.306  -1.516   4.976  0.00  0.00    +0.022 C 
BRANCH  17  18
ATOM     18  C   UNL     1       7.691  -2.107   4.911  0.00  0.00    +0.211 A 
ATOM     19  N   UNL     1       8.807  -1.445   5.025  0.00  0.00    -0.193 NA
ATOM     20  C   UNL     1       9.853  -2.284   4.920  0.00  0.00    +0.202 A 
ATOM     21  N   UNL     1       9.398  -3.499   4.736  0.00  0.00    -0.056 NA
ATOM     22  O   UNL     1       7.982  -3.402   4.734  0.00  0.00    -0.340 OA
BRANCH  20  23
ATOM     23  C   UNL     1      11.284  -1.898   4.998  0.00  0.00    +0.022 A 
ATOM     24  C   UNL     1      11.639  -0.567   5.202  0.00  0.00    +0.012 A 
ATOM     25  C   UNL     1      12.971  -0.213   5.273  0.00  0.00    +0.013 A 
ATOM     26  C   UNL     1      13.953  -1.178   5.142  0.00  0.00    +0.055 A 
ATOM     27  C   UNL     1      13.607  -2.502   4.940  0.00  0.00    +0.013 A 
ATOM     28  C   UNL     1      12.277  -2.867   4.873  0.00  0.00    +0.012 A 
BRANCH  26  29
ATOM     29  C   UNL     1      15.406  -0.786   5.220  0.00  0.00    +0.417 C 
ATOM     30  F   UNL     1      15.838  -0.859   6.549  0.00  0.00    -0.166 F 
ATOM     31  F   UNL     1      16.168  -1.658   4.434  0.00  0.00    -0.166 F 
ATOM     32  F   UNL     1      15.562   0.522   4.751  0.00  0.00    -0.166 F 
ENDBRANCH  26  29
ENDBRANCH  20  23
ENDBRANCH  17  18
ENDBRANCH   4  17
TORSDOF 7
