REMARK  Name = ZINC04959530
REMARK  4 active torsions:
REMARK  status: ('A' for Active; 'I' for Inactive)
REMARK    1  A    between atoms: C_1  and  O_2
REMARK    2  A    between atoms: O_2  and  C_3
REMARK    3  A    between atoms: C_16  and  C_19
REMARK    4  A    between atoms: C_21  and  N_26
REMARK                            x       y       z     vdW  Elec       q    Type
REMARK                         _______ _______ _______ _____ _____    ______ ____
ROOT
ATOM      1  C   UNL     1       0.905   2.170   0.207  0.00  0.00    +0.120 A 
ATOM      2  C   UNL     1       2.231   2.579   0.206  0.00  0.00    +0.047 A 
ATOM      3  C   UNL     1       3.236   1.635   0.145  0.00  0.00    +0.027 A 
ATOM      4  C   UNL     1       2.921   0.284   0.083  0.00  0.00    +0.032 A 
ATOM      5  C   UNL     1       1.599  -0.132   0.083  0.00  0.00    -0.016 A 
ATOM      6  C   UNL     1       0.593   0.823   0.145  0.00  0.00    +0.051 A 
ATOM      7  C   UNL     1       1.213  -1.576   0.017  0.00  0.00    +0.049 C 
ATOM      8  C   UNL     1       0.742  -2.083   1.359  0.00  0.00    -0.023 C 
ATOM      9  C   UNL     1       1.128  -3.323   1.536  0.00  0.00    -0.030 C 
ATOM     10  C   UNL     1       1.906  -3.814   0.331  0.00  0.00    +0.033 C 
ATOM     11  C   UNL     1       2.398  -2.501  -0.325  0.00  0.00    +0.029 C 
ATOM     12  C   UNL     1       3.650  -2.047   0.432  0.00  0.00    +0.106 C 
ATOM     13  N   UNL     1       3.956  -0.662   0.057  0.00  0.00    -0.336 N 
ATOM     14  H   UNL     1       4.851  -0.407  -0.214  0.00  0.00    +0.147 HD
ENDROOT
BRANCH  12  15
ATOM     15  C   UNL     1       3.399  -2.124   1.915  0.00  0.00    -0.007 A 
ATOM     16  C   UNL     1       2.804  -1.063   2.572  0.00  0.00    +0.039 A 
ATOM     17  C   UNL     1       2.569  -1.136   3.933  0.00  0.00    +0.127 A 
ATOM     18  C   UNL     1       2.939  -2.266   4.639  0.00  0.00    +0.034 A 
ATOM     19  C   UNL     1       3.538  -3.325   3.984  0.00  0.00    +0.022 A 
ATOM     20  C   UNL     1       3.769  -3.255   2.622  0.00  0.00    +0.046 A 
ATOM     21 CL   UNL     1       4.522  -4.585   1.799  0.00  0.00    -0.083 Cl
BRANCH  17  22
ATOM     22  N   UNL     1       1.927  -0.002   4.634  0.00  0.00    +0.056 N 
ATOM     23  O   UNL     1       1.724  -0.064   5.833  0.00  0.00    -0.126 OA
ATOM     24  O   UNL     1       1.601   0.993   4.012  0.00  0.00    -0.126 OA
ENDBRANCH  17  22
ENDBRANCH  12  15
BRANCH   1  26
ATOM     25  C   UNL     1       0.303   4.467   0.324  0.00  0.00    +0.277 C 
ATOM     26  O   UNL     1      -0.090   3.095   0.262  0.00  0.00    -0.495 OA
ENDBRANCH   1  26
TORSDOF 3
