REMARK  Name = ZINC11182280
REMARK  9 active torsions:
REMARK  status: ('A' for Active; 'I' for Inactive)
REMARK    1  A    between atoms: C_1  and  C_2
REMARK    2  A    between atoms: C_2  and  C_3
REMARK    3  A    between atoms: C_2  and  C_4
REMARK    4  A    between atoms: C_4  and  C_6
REMARK    5  A    between atoms: C_4  and  N_23
REMARK    6  A    between atoms: N_8  and  C_9
REMARK    7  A    between atoms: C_13  and  N_15
REMARK    8  A    between atoms: C_16  and  C_18
REMARK    9  A    between atoms: C_24  and  C_26
REMARK                            x       y       z     vdW  Elec       q    Type
REMARK                         _______ _______ _______ _____ _____    ______ ____
ROOT
ATOM      1  C   UNL     1      -2.846   8.046  -2.003  0.00  0.00    +0.238 C 
ATOM      2  O   UNL     1      -3.513   7.275  -2.660  0.00  0.00    -0.273 OA
ATOM      3  N   UNL     1      -3.151   9.359  -1.990  0.00  0.00    -0.284 N 
ATOM      4  H   UNL     1      -2.685   9.959  -1.388  0.00  0.00    +0.155 HD
ENDROOT
BRANCH   3   5
ATOM      5  C   UNL     1      -4.140   9.856  -2.846  0.00  0.00    +0.035 A 
ATOM      6  C   UNL     1      -5.159   9.021  -3.291  0.00  0.00    +0.023 A 
ATOM      7  C   UNL     1      -6.135   9.511  -4.136  0.00  0.00    +0.004 A 
ATOM      8  C   UNL     1      -6.103  10.831  -4.543  0.00  0.00    +0.023 A 
ATOM      9  C   UNL     1      -5.087  11.670  -4.103  0.00  0.00    +0.036 A 
ATOM     10  C   UNL     1      -4.108  11.183  -3.248  0.00  0.00    +0.046 A 
BRANCH   9  11
ATOM     11  N   UNL     1      -5.055  13.006  -4.515  0.00  0.00    -0.279 N 
ATOM     12  C   UNL     1      -3.874  13.642  -4.648  0.00  0.00    +0.284 C 
ATOM     13  O   UNL     1      -2.833  13.016  -4.565  0.00  0.00    -0.266 OA
ATOM     14  H   UNL     1      -5.882  13.475  -4.705  0.00  0.00    +0.155 HD
BRANCH  12  15
ATOM     15  C   UNL     1      -3.843  15.088  -4.892  0.00  0.00    +0.189 A 
ATOM     16  C   UNL     1      -2.722  15.852  -5.045  0.00  0.00    +0.054 A 
ATOM     17  C   UNL     1      -3.157  17.169  -5.258  0.00  0.00    +0.042 A 
ATOM     18  C   UNL     1      -4.508  17.151  -5.225  0.00  0.00    +0.196 A 
ATOM     19  O   UNL     1      -4.918  15.895  -5.010  0.00  0.00    -0.458 OA
ENDBRANCH  12  15
ENDBRANCH   9  11
ENDBRANCH   3   5
BRANCH   1  20
ATOM     20  C   UNL     1      -1.678   7.536  -1.200  0.00  0.00    +0.162 C 
BRANCH  20  21
ATOM     21  N   UNL     1      -1.743   6.075  -1.115  0.00  0.00    -0.303 N 
ATOM     22  C   UNL     1      -1.155   5.432  -0.088  0.00  0.00    +0.220 C 
ATOM     23  O   UNL     1      -0.570   6.063   0.768  0.00  0.00    -0.275 OA
ATOM     24  H   UNL     1      -2.211   5.570  -1.800  0.00  0.00    +0.149 HD
BRANCH  22  25
ATOM     25  C   UNL     1      -1.222   3.929  -0.001  0.00  0.00    +0.048 C 
ATOM     26  C   UNL     1      -0.570   3.317  -1.243  0.00  0.00    +0.019 C 
ATOM     27  C   UNL     1      -0.638   1.791  -1.155  0.00  0.00    -0.009 C 
ATOM     28  C   UNL     1       0.104   1.318   0.097  0.00  0.00    +0.007 C 
ATOM     29  C   UNL     1      -0.548   1.930   1.338  0.00  0.00    -0.009 C 
ATOM     30  C   UNL     1      -0.480   3.456   1.250  0.00  0.00    +0.019 C 
ATOM     31  C   UNL     1      -2.011   1.489   1.415  0.00  0.00    +0.007 C 
ATOM     32  C   UNL     1      -2.753   1.962   0.164  0.00  0.00    -0.009 C 
ATOM     33  C   UNL     1      -2.101   1.350  -1.077  0.00  0.00    +0.007 C 
ATOM     34  C   UNL     1      -2.685   3.488   0.076  0.00  0.00    +0.019 C 
ENDBRANCH  22  25
ENDBRANCH  20  21
BRANCH  20  36
ATOM     35  C   UNL     1       0.810   7.588  -0.979  0.00  0.00    +0.009 C 
ATOM     36  C   UNL     1      -0.372   7.950  -1.881  0.00  0.00    +0.012 C 
ATOM     37  C   UNL     1      -0.238   7.215  -3.216  0.00  0.00    +0.009 C 
ENDBRANCH  20  36
ENDBRANCH   1  20
TORSDOF 7
