REMARK  Name = ZINC39488079
REMARK  8 active torsions:
REMARK  status: ('A' for Active; 'I' for Inactive)
REMARK    1  A    between atoms: C_1  and  C_2
REMARK    2  A    between atoms: C_2  and  C_31
REMARK    3  A    between atoms: N_4  and  O_30
REMARK    4  A    between atoms: N_7  and  C_8
REMARK    5  A    between atoms: C_8  and  C_9
REMARK    6  A    between atoms: C_9  and  C_24
REMARK    7  A    between atoms: N_12  and  S_15
REMARK    8  A    between atoms: S_15  and  C_18
REMARK                            x       y       z     vdW  Elec       q    Type
REMARK                         _______ _______ _______ _____ _____    ______ ____
ROOT
ATOM      1  C   UNL     1       2.150   0.812   2.475  0.00  0.00    -0.008 C 
ATOM      2  C   UNL     1       1.590   0.354   3.824  0.00  0.00    +0.026 C 
ATOM      3  C   UNL     1       0.176  -0.199   3.624  0.00  0.00    +0.110 C 
ATOM      4  N   UNL     1      -0.639   0.819   2.947  0.00  0.00    -0.177 NA
ATOM      5  C   UNL     1      -0.149   1.393   1.687  0.00  0.00    +0.110 C 
ATOM      6  C   UNL     1       1.270   1.928   1.909  0.00  0.00    +0.026 C 
ENDROOT
BRANCH   1   7
ATOM      7  C   UNL     1       3.575   1.333   2.665  0.00  0.00    -0.003 C 
ATOM      8  C   UNL     1       4.387   0.316   3.469  0.00  0.00    +0.004 C 
ATOM      9  C   UNL     1       5.813   0.837   3.659  0.00  0.00    +0.000 C 
ATOM     10  C   UNL     1       5.773   2.168   4.413  0.00  0.00    +0.000 C 
ATOM     11  C   UNL     1       4.961   3.185   3.609  0.00  0.00    +0.000 C 
ATOM     12  C   UNL     1       3.535   2.664   3.419  0.00  0.00    +0.004 C 
ENDBRANCH   1   7
BRANCH   4  13
ATOM     13  S   UNL     1      -2.083   1.309   3.592  0.00  0.00    +0.061 S 
ATOM     14  O   UNL     1      -2.857   1.819   2.515  0.00  0.00    -0.153 OA
ATOM     15  O   UNL     1      -2.538   0.250   4.423  0.00  0.00    -0.153 OA
BRANCH  13  16
ATOM     16  C   UNL     1      -1.743   2.672   4.656  0.00  0.00    +0.105 A 
ATOM     17  C   UNL     1      -1.450   2.452   5.989  0.00  0.00    +0.028 A 
ATOM     18  C   UNL     1      -1.183   3.522   6.824  0.00  0.00    +0.002 A 
ATOM     19  C   UNL     1      -1.208   4.811   6.325  0.00  0.00    +0.000 A 
ATOM     20  C   UNL     1      -1.500   5.030   4.992  0.00  0.00    +0.002 A 
ATOM     21  C   UNL     1      -1.763   3.961   4.156  0.00  0.00    +0.028 A 
ENDBRANCH  13  16
ENDBRANCH   4  13
BRANCH   1  22
ATOM     22  C   UNL     1       2.164  -0.369   1.502  0.00  0.00    +0.117 C 
BRANCH  22  29
ATOM     23  C   UNL     1       5.119   0.234   0.550  0.00  0.00    +0.039 C 
ATOM     24  C   UNL     1       3.996  -0.280  -0.353  0.00  0.00    +0.079 C 
ATOM     25  C   UNL     1       4.025   0.441  -1.715  0.00  0.00    +0.171 C 
ATOM     26  N   UNL     1       2.724   1.124  -1.779  0.00  0.00    -0.165 N 
ATOM     27  C   UNL     1       2.034   0.864  -0.661  0.00  0.00    +0.328 C 
ATOM     28  O   UNL     1       0.921   1.305  -0.450  0.00  0.00    -0.250 OA
ATOM     29  N   UNL     1       2.682   0.073   0.205  0.00  0.00    -0.272 N 
BRANCH  24  30
ATOM     30  C   UNL     1       4.108  -1.771  -0.538  0.00  0.00    -0.023 A 
ATOM     31  C   UNL     1       3.065  -2.595  -0.160  0.00  0.00    +0.006 A 
ATOM     32  C   UNL     1       3.168  -3.963  -0.330  0.00  0.00    +0.000 A 
ATOM     33  C   UNL     1       4.314  -4.507  -0.879  0.00  0.00    +0.000 A 
ATOM     34  C   UNL     1       5.357  -3.683  -1.258  0.00  0.00    +0.000 A 
ATOM     35  C   UNL     1       5.253  -2.315  -1.092  0.00  0.00    +0.006 A 
ENDBRANCH  24  30
BRANCH  26  36
ATOM     36  O   UNL     1       2.272   1.929  -2.853  0.00  0.00    -0.291 OA
ATOM     37  H   UNL     1       1.389   2.299  -2.722  0.00  0.00    +0.242 HD
ENDBRANCH  26  36
ENDBRANCH  22  29
ENDBRANCH   1  22
TORSDOF 7
