REMARK  Name = ZINC15174986
REMARK  9 active torsions:
REMARK  status: ('A' for Active; 'I' for Inactive)
REMARK    1  A    between atoms: C_1  and  C_2
REMARK    2  A    between atoms: C_2  and  N_3
REMARK    3  A    between atoms: N_3  and  C_4
REMARK    4  A    between atoms: N_3  and  S_6
REMARK    5  A    between atoms: C_4  and  C_5
REMARK    6  A    between atoms: S_6  and  C_9
REMARK    7  A    between atoms: C_12  and  O_18
REMARK    8  A    between atoms: C_13  and  N_15
REMARK    9  A    between atoms: O_18  and  C_19
REMARK                            x       y       z     vdW  Elec       q    Type
REMARK                         _______ _______ _______ _____ _____    ______ ____
ROOT
ATOM      1  C   UNL     1      -1.115   6.159   0.358  0.00  0.00    +0.108 A 
ATOM      2  C   UNL     1       0.067   5.451   0.241  0.00  0.00    +0.032 A 
ATOM      3  C   UNL     1       0.041   4.075   0.127  0.00  0.00    +0.050 A 
ATOM      4  C   UNL     1      -1.173   3.403   0.131  0.00  0.00    +0.159 A 
ATOM      5  C   UNL     1      -2.358   4.116   0.243  0.00  0.00    +0.170 A 
ATOM      6  C   UNL     1      -2.326   5.492   0.363  0.00  0.00    +0.065 A 
ENDROOT
BRANCH   1   7
ATOM      7  S   UNL     1      -1.078   7.915   0.504  0.00  0.00    +0.061 S 
ATOM      8  O   UNL     1      -2.285   8.295   1.149  0.00  0.00    -0.153 OA
ATOM      9  O   UNL     1       0.202   8.252   1.023  0.00  0.00    -0.153 OA
BRANCH   7  10
ATOM     10  N   UNL     1      -1.145   8.535  -1.030  0.00  0.00    -0.177 NA
BRANCH  10  12
ATOM     11  C   UNL     1      -2.785  10.306  -1.426  0.00  0.00    +0.022 C 
ATOM     12  C   UNL     1      -2.442   8.831  -1.644  0.00  0.00    +0.106 C 
ENDBRANCH  10  12
BRANCH  10  13
ATOM     13  C   UNL     1       0.092   8.788  -1.773  0.00  0.00    +0.106 C 
ATOM     14  C   UNL     1       0.406   7.585  -2.666  0.00  0.00    +0.022 C 
ENDBRANCH  10  13
ENDBRANCH   7  10
ENDBRANCH   1   7
BRANCH   5  15
ATOM     15  N   UNL     1      -3.655   3.403   0.242  0.00  0.00    +0.060 N 
ATOM     16  O   UNL     1      -4.695   4.030   0.341  0.00  0.00    -0.126 OA
ATOM     17  O   UNL     1      -3.683   2.189   0.141  0.00  0.00    -0.126 OA
ENDBRANCH   5  15
BRANCH   4  18
ATOM     18  O   UNL     1      -1.202   2.049   0.019  0.00  0.00    -0.452 OA
BRANCH  18  19
ATOM     19  C   UNL     1      -0.017   1.383   0.025  0.00  0.00    +0.147 A 
ATOM     20  C   UNL     1       0.560   0.981  -1.171  0.00  0.00    +0.048 A 
ATOM     21  C   UNL     1       1.761   0.299  -1.162  0.00  0.00    +0.004 A 
ATOM     22  C   UNL     1       2.389   0.017   0.037  0.00  0.00    +0.002 A 
ATOM     23  C   UNL     1       1.817   0.415   1.231  0.00  0.00    +0.024 A 
ATOM     24  C   UNL     1       0.614   1.098   1.228  0.00  0.00    +0.083 A 
ATOM     25 CL   UNL     1      -0.104   1.599   2.727  0.00  0.00    -0.080 Cl
ENDBRANCH  18  19
ENDBRANCH   4  18
TORSDOF 7
