REMARK  Name = ZINC06099295
REMARK  5 active torsions:
REMARK  status: ('A' for Active; 'I' for Inactive)
REMARK    1  A    between atoms: C_1  and  C_2
REMARK    2  A    between atoms: C_8  and  N_10
REMARK    3  A    between atoms: C_11  and  C_13
REMARK    4  A    between atoms: C_13  and  S_14
REMARK    5  A    between atoms: S_14  and  C_15
REMARK                            x       y       z     vdW  Elec       q    Type
REMARK                         _______ _______ _______ _____ _____    ______ ____
ROOT
ATOM      1  C   UNL     1      -2.830   1.158   0.023  0.00  0.00    +0.173 C 
ENDROOT
BRANCH   1   3
ATOM      2  N   UNL     1      -5.302   1.242   0.036  0.00  0.00    -0.312 N 
ATOM      3  C   UNL     1      -4.134   1.914   0.034  0.00  0.00    +0.224 C 
ATOM      4  O   UNL     1      -4.132   3.126   0.040  0.00  0.00    -0.275 OA
ATOM      5  H   UNL     1      -5.303   0.272   0.032  0.00  0.00    +0.149 HD
BRANCH   2  12
ATOM      6  C   UNL     1      -7.277   0.726   2.091  0.00  0.00    +0.009 C 
ATOM      7  C   UNL     1      -7.663   1.097   0.658  0.00  0.00    +0.006 C 
ATOM      8  C   UNL     1      -8.987   1.864   0.668  0.00  0.00    +0.005 C 
ATOM      9  C   UNL     1      -9.373   2.236  -0.765  0.00  0.00    +0.000 C 
ATOM     10  C   UNL     1      -8.279   3.115  -1.376  0.00  0.00    +0.002 C 
ATOM     11  C   UNL     1      -6.955   2.348  -1.386  0.00  0.00    +0.022 C 
ATOM     12  C   UNL     1      -6.569   1.976   0.047  0.00  0.00    +0.076 C 
ENDBRANCH   2  12
ENDBRANCH   1   3
BRANCH   1  13
ATOM     13  S   UNL     1      -1.449   2.335   0.022  0.00  0.00    -0.076 S 
BRANCH  13  14
ATOM     14  C   UNL     1      -0.016   1.310   0.009  0.00  0.00    +0.196 A 
ATOM     15  N   UNL     1       0.002  -0.004   0.002  0.00  0.00    -0.122 NA
ATOM     16  N   UNL     1       1.215  -0.434  -0.012  0.00  0.00    -0.127 NA
ATOM     17  C   UNL     1       2.049   0.590  -0.014  0.00  0.00    +0.180 A 
ATOM     18  N   UNL     1       1.280   1.734  -0.001  0.00  0.00    -0.275 N 
ATOM     19  C   UNL     1       1.873   2.967  -0.001  0.00  0.00    +0.115 A 
ATOM     20  C   UNL     1       3.217   3.079  -0.013  0.00  0.00    +0.059 A 
ATOM     21  C   UNL     1       4.029   1.929  -0.027  0.00  0.00    +0.045 A 
ATOM     22  C   UNL     1       3.455   0.696  -0.028  0.00  0.00    +0.087 A 
ATOM     23 CL   UNL     1       4.443  -0.732  -0.045  0.00  0.00    -0.080 Cl
ATOM     24 CL   UNL     1       3.951   4.653  -0.013  0.00  0.00    -0.082 Cl
ENDBRANCH  13  14
ENDBRANCH   1  13
TORSDOF 4
