REMARK  Name = ZINC35523111
REMARK  9 active torsions:
REMARK  status: ('A' for Active; 'I' for Inactive)
REMARK    1  A    between atoms: C_1  and  C_2
REMARK    2  A    between atoms: C_5  and  C_8
REMARK    3  A    between atoms: N_17  and  C_18
REMARK    4  A    between atoms: C_18  and  C_19
REMARK    5  A    between atoms: N_21  and  C_22
REMARK    6  A    between atoms: C_22  and  C_23
REMARK    7  A    between atoms: C_23  and  C_24
REMARK    8  A    between atoms: C_24  and  C_25
REMARK    9  A    between atoms: C_24  and  C_31
REMARK                            x       y       z     vdW  Elec       q    Type
REMARK                         _______ _______ _______ _____ _____    ______ ____
ROOT
ATOM      1  C   UNL     1      -3.172  -3.441   2.723  0.00  0.00    +0.196 C 
ATOM      2  O   UNL     1      -2.635  -4.205   3.496  0.00  0.00    -0.278 OA
ATOM      3  N   UNL     1      -4.510  -3.474   2.564  0.00  0.00    -0.317 N 
ATOM      4  H   UNL     1      -4.940  -2.864   1.946  0.00  0.00    +0.149 HD
ENDROOT
BRANCH   1   5
ATOM      5  C   UNL     1      -2.345  -2.455   1.940  0.00  0.00    +0.020 C 
BRANCH   5  14
ATOM      6  C   UNL     1      -0.134  -1.576   1.617  0.00  0.00    +0.011 C 
ATOM      7  C   UNL     1       1.328  -1.892   1.820  0.00  0.00    +0.009 A 
ATOM      8  C   UNL     1       2.384  -1.083   1.652  0.00  0.00    +0.021 A 
ATOM      9  C   UNL     1       3.539  -1.829   1.969  0.00  0.00    +0.019 A 
ATOM     10  C   UNL     1       3.138  -3.071   2.317  0.00  0.00    +0.086 A 
ATOM     11  N   UNL     1       1.785  -3.119   2.226  0.00  0.00    -0.353 N 
ATOM     12  C   UNL     1       0.896  -4.255   2.495  0.00  0.00    +0.103 C 
ATOM     13  C   UNL     1      -0.469  -3.949   1.865  0.00  0.00    -0.055 C 
ATOM     14  N   UNL     1      -0.927  -2.618   2.290  0.00  0.00    +0.395 N 
ATOM     15  H   UNL     1      -0.818  -2.530   3.289  0.00  0.00    -0.080 HD
BRANCH   6  20
ATOM     16  C   UNL     1      -1.354   3.587   3.908  0.00  0.00    +0.044 C 
ATOM     17  C   UNL     1      -1.036   2.240   3.310  0.00  0.00    -0.050 A 
ATOM     18  C   UNL     1      -0.845   2.117   1.947  0.00  0.00    +0.003 A 
ATOM     19  C   UNL     1      -0.553   0.882   1.399  0.00  0.00    +0.002 A 
ATOM     20  C   UNL     1      -0.451  -0.230   2.214  0.00  0.00    -0.055 A 
ATOM     21  C   UNL     1      -0.640  -0.106   3.578  0.00  0.00    +0.002 A 
ATOM     22  C   UNL     1      -0.928   1.130   4.127  0.00  0.00    +0.003 A 
ENDBRANCH   6  20
ENDBRANCH   5  14
ENDBRANCH   1   5
BRANCH   3  23
ATOM     23  C   UNL     1      -5.315  -4.434   3.325  0.00  0.00    +0.105 C 
BRANCH  23  24
ATOM     24  C   UNL     1      -6.791  -4.263   2.960  0.00  0.00    +0.031 C 
BRANCH  24  25
ATOM     25  C   UNL     1      -7.631  -5.265   3.755  0.00  0.00    +0.050 C 
BRANCH  25  26
ATOM     26  C   UNL     1      -9.094  -5.016   3.490  0.00  0.00    -0.040 A 
ATOM     27  C   UNL     1      -9.969  -4.846   4.546  0.00  0.00    +0.004 A 
ATOM     28  C   UNL     1     -11.310  -4.617   4.302  0.00  0.00    +0.000 A 
ATOM     29  C   UNL     1     -11.777  -4.559   3.002  0.00  0.00    +0.000 A 
ATOM     30  C   UNL     1     -10.901  -4.728   1.946  0.00  0.00    +0.000 A 
ATOM     31  C   UNL     1      -9.559  -4.952   2.189  0.00  0.00    +0.004 A 
ENDBRANCH  25  26
BRANCH  25  32
ATOM     32  C   UNL     1      -7.275  -6.667   3.332  0.00  0.00    -0.040 A 
ATOM     33  C   UNL     1      -7.286  -7.008   1.992  0.00  0.00    +0.004 A 
ATOM     34  C   UNL     1      -6.960  -8.294   1.604  0.00  0.00    +0.000 A 
ATOM     35  C   UNL     1      -6.622  -9.238   2.555  0.00  0.00    +0.000 A 
ATOM     36  C   UNL     1      -6.610  -8.897   3.895  0.00  0.00    +0.000 A 
ATOM     37  C   UNL     1      -6.932  -7.610   4.283  0.00  0.00    +0.004 A 
ENDBRANCH  25  32
ENDBRANCH  24  25
ENDBRANCH  23  24
ENDBRANCH   3  23
TORSDOF 8
