REMARK  Name = ZINC06689899
REMARK  10 active torsions:
REMARK  status: ('A' for Active; 'I' for Inactive)
REMARK    1  A    between atoms: C_1  and  C_2
REMARK    2  A    between atoms: C_2  and  C_3
REMARK    3  A    between atoms: C_2  and  C_4
REMARK    4  A    between atoms: C_4  and  N_5
REMARK    5  A    between atoms: N_5  and  C_6
REMARK    6  A    between atoms: C_6  and  C_7
REMARK    7  A    between atoms: N_11  and  C_12
REMARK    8  A    between atoms: C_12  and  C_13
REMARK    9  A    between atoms: C_18  and  C_19
REMARK   10  A    between atoms: C_23  and  C_25
REMARK                            x       y       z     vdW  Elec       q    Type
REMARK                         _______ _______ _______ _____ _____    ______ ____
ROOT
ATOM      1  C   UNL     1       2.149  -1.574  -0.633  0.00  0.00    +0.127 A 
ATOM      2  N   UNL     1       2.355  -1.725   0.647  0.00  0.00    -0.239 NA
ATOM      3  C   UNL     1       2.296  -3.029   0.954  0.00  0.00    +0.130 A 
ATOM      4  C   UNL     1       2.053  -3.713  -0.180  0.00  0.00    +0.107 A 
ATOM      5  N   UNL     1       1.959  -2.791  -1.187  0.00  0.00    -0.329 N 
ENDROOT
BRANCH   1   6
ATOM      6  C   UNL     1       2.132  -0.261  -1.371  0.00  0.00    +0.182 C 
BRANCH   6   7
ATOM      7  N   UNL     1       0.814   0.362  -1.230  0.00  0.00    -0.294 N 
ATOM      8  C   UNL     1      -0.113   0.204  -2.195  0.00  0.00    +0.219 C 
ATOM      9  O   UNL     1       0.131  -0.484  -3.163  0.00  0.00    -0.275 OA
BRANCH   8  10
ATOM     10  C   UNL     1      -1.454   0.882  -2.071  0.00  0.00    +0.075 C 
ATOM     11  C   UNL     1      -2.292   0.197  -0.972  0.00  0.00    +0.013 C 
ATOM     12  C   UNL     1      -3.739   0.228  -1.524  0.00  0.00    +0.001 C 
ATOM     13  C   UNL     1      -3.534  -0.037  -3.036  0.00  0.00    +0.001 C 
ATOM     14  C   UNL     1      -2.243   0.733  -3.384  0.00  0.00    +0.013 C 
ENDBRANCH   8  10
BRANCH   7  15
ATOM     15  C   UNL     1       0.503   1.158  -0.039  0.00  0.00    +0.111 C 
BRANCH  15  17
ATOM     16  C   UNL     1       0.543   3.263  -1.385  0.00  0.00    +0.009 C 
ATOM     17  C   UNL     1       1.137   2.544  -0.172  0.00  0.00    +0.000 C 
ATOM     18  C   UNL     1       0.855   3.357   1.092  0.00  0.00    +0.009 C 
ENDBRANCH  15  17
ENDBRANCH   7  15
ENDBRANCH   6   7
ENDBRANCH   1   6
BRANCH   5  19
ATOM     19  C   UNL     1       1.702  -3.071  -2.602  0.00  0.00    +0.158 C 
BRANCH  19  20
ATOM     20  C   UNL     1       3.012  -3.194  -3.336  0.00  0.00    -0.016 A 
ATOM     21  C   UNL     1       4.204  -3.144  -2.637  0.00  0.00    +0.006 A 
ATOM     22  C   UNL     1       5.405  -3.256  -3.310  0.00  0.00    +0.000 A 
ATOM     23  C   UNL     1       5.415  -3.421  -4.683  0.00  0.00    +0.001 A 
ATOM     24  C   UNL     1       4.224  -3.473  -5.382  0.00  0.00    +0.013 A 
ATOM     25  C   UNL     1       3.022  -3.364  -4.708  0.00  0.00    +0.060 A 
BRANCH  25  26
ATOM     26  C   UNL     1       1.723  -3.425  -5.469  0.00  0.00    +0.418 C 
ATOM     27  F   UNL     1       1.984  -3.707  -6.814  0.00  0.00    -0.166 F 
ATOM     28  F   UNL     1       0.914  -4.431  -4.930  0.00  0.00    -0.166 F 
ATOM     29  F   UNL     1       1.065  -2.194  -5.369  0.00  0.00    -0.166 F 
ENDBRANCH  25  26
ENDBRANCH  19  20
ENDBRANCH   5  19
TORSDOF 8
