REMARK  Name = ZINC20604028
REMARK  8 active torsions:
REMARK  status: ('A' for Active; 'I' for Inactive)
REMARK    1  A    between atoms: C_1  and  C_2
REMARK    2  A    between atoms: C_2  and  C_3
REMARK    3  A    between atoms: C_3  and  C_5
REMARK    4  A    between atoms: C_3  and  N_6
REMARK    5  A    between atoms: C_9  and  C_23
REMARK    6  A    between atoms: C_11  and  C_13
REMARK    7  A    between atoms: C_16  and  O_19
REMARK    8  A    between atoms: O_19  and  C_20
REMARK                            x       y       z     vdW  Elec       q    Type
REMARK                         _______ _______ _______ _____ _____    ______ ____
ROOT
ATOM      1  N   UNL     1      -0.990   1.496   3.489  0.00  0.00    -0.303 N 
ATOM      2  C   UNL     1      -1.630   0.551   4.266  0.00  0.00    +0.149 A 
ATOM      3  C   UNL     1      -2.586   0.995   5.200  0.00  0.00    +0.093 A 
ATOM      4  C   UNL     1      -3.252   0.066   6.001  0.00  0.00    +0.073 A 
ATOM      5  C   UNL     1      -2.944  -1.261   5.844  0.00  0.00    +0.041 A 
ATOM      6  C   UNL     1      -1.986  -1.639   4.900  0.00  0.00    +0.074 A 
ATOM      7  N   UNL     1      -1.365  -0.738   4.149  0.00  0.00    -0.229 NA
ATOM      8  C   UNL     1      -2.851   2.440   5.297  0.00  0.00    +0.262 A 
ATOM      9  O   UNL     1      -3.670   2.874   6.090  0.00  0.00    -0.267 OA
ATOM     10  N   UNL     1      -2.170   3.268   4.491  0.00  0.00    -0.302 N 
ATOM     11  C   UNL     1      -1.279   2.817   3.633  0.00  0.00    +0.162 A 
ATOM     12  S   UNL     1      -0.426   3.979   2.619  0.00  0.00    -0.013 S 
ATOM     13  H   UNL     1      -2.370   4.348   4.560  0.00  0.00    +0.171 HD
ENDROOT
BRANCH   6  14
ATOM     14  C   UNL     1      -1.657  -3.074   4.734  0.00  0.00    +0.001 A 
ATOM     15  C   UNL     1      -2.297  -4.033   5.519  0.00  0.00    +0.013 A 
ATOM     16  C   UNL     1      -1.992  -5.368   5.359  0.00  0.00    +0.046 A 
ATOM     17  C   UNL     1      -1.041  -5.757   4.424  0.00  0.00    +0.127 A 
ATOM     18  C   UNL     1      -0.399  -4.804   3.644  0.00  0.00    +0.046 A 
ATOM     19  C   UNL     1      -0.703  -3.468   3.796  0.00  0.00    +0.013 A 
BRANCH  17  20
ATOM     20  O   UNL     1      -0.739  -7.072   4.272  0.00  0.00    -0.434 OA
BRANCH  20  21
ATOM     21  C   UNL     1      -1.437  -7.999   5.107  0.00  0.00    +0.541 C 
ATOM     22  F   UNL     1      -1.176  -7.705   6.449  0.00  0.00    -0.166 F 
ATOM     23  F   UNL     1      -2.812  -7.899   4.866  0.00  0.00    -0.166 F 
ENDBRANCH  20  21
ENDBRANCH  17  20
ENDBRANCH   6  14
BRANCH   4  24
ATOM     24  C   UNL     1      -4.281   0.509   7.009  0.00  0.00    +0.418 C 
ATOM     25  F   UNL     1      -4.793  -0.610   7.675  0.00  0.00    -0.166 F 
ATOM     26  F   UNL     1      -3.684   1.370   7.936  0.00  0.00    -0.166 F 
ATOM     27  F   UNL     1      -5.320   1.177   6.353  0.00  0.00    -0.166 F 
ENDBRANCH   4  24
BRANCH   1  28
ATOM     28  C   UNL     1       0.011   1.072   2.506  0.00  0.00    +0.088 C 
ATOM     29  C   UNL     1      -0.636   0.126   1.494  0.00  0.00    +0.031 C 
BRANCH  28  31
ATOM     30  C   UNL     1       2.266   0.035   2.219  0.00  0.00    +0.006 C 
ATOM     31  C   UNL     1       1.154   0.349   3.222  0.00  0.00    +0.021 C 
ENDBRANCH  28  31
ENDBRANCH   1  28
TORSDOF 6
