REMARK  Name = ZINC06533210
REMARK  9 active torsions:
REMARK  status: ('A' for Active; 'I' for Inactive)
REMARK    1  A    between atoms: C_1  and  C_2
REMARK    2  A    between atoms: C_2  and  C_3
REMARK    3  A    between atoms: C_6  and  C_21
REMARK    4  A    between atoms: C_7  and  C_9
REMARK    5  A    between atoms: C_9  and  C_11
REMARK    6  A    between atoms: C_11  and  S_12
REMARK    7  A    between atoms: S_12  and  C_13
REMARK    8  A    between atoms: C_17  and  N_19
REMARK    9  A    between atoms: C_21  and  C_22
REMARK                            x       y       z     vdW  Elec       q    Type
REMARK                         _______ _______ _______ _____ _____    ______ ____
ROOT
ATOM      1  C   UNL     1      -3.679  -0.998   2.902  0.00  0.00    +0.157 C 
ENDROOT
BRANCH   1   2
ATOM      2  C   UNL     1      -3.303   0.293   3.582  0.00  0.00    +0.174 C 
ATOM      3  O   UNL     1      -3.822   0.599   4.634  0.00  0.00    -0.291 OA
BRANCH   2   8
ATOM      4  C   UNL     1      -0.688   1.625   1.246  0.00  0.00    -0.047 A 
ATOM      5  C   UNL     1      -0.422   2.858   1.816  0.00  0.00    +0.004 A 
ATOM      6  C   UNL     1      -1.098   3.262   2.953  0.00  0.00    +0.004 A 
ATOM      7  C   UNL     1      -2.035   2.433   3.534  0.00  0.00    -0.037 A 
ATOM      8  C   UNL     1      -2.305   1.184   2.968  0.00  0.00    +0.022 A 
ATOM      9  C   UNL     1      -1.621   0.785   1.815  0.00  0.00    +0.015 A 
BRANCH   4  11
ATOM     10  C   UNL     1      -0.732   1.644  -1.234  0.00  0.00    +0.009 C 
ATOM     11  C   UNL     1       0.050   1.197   0.003  0.00  0.00    +0.032 C 
ENDBRANCH   4  11
BRANCH   7  12
ATOM     12  C   UNL     1      -2.766   2.873   4.777  0.00  0.00    +0.032 C 
ATOM     13  C   UNL     1      -4.172   3.345   4.401  0.00  0.00    +0.009 C 
ENDBRANCH   7  12
ENDBRANCH   2   8
ENDBRANCH   1   2
BRANCH   1  14
ATOM     14  S   UNL     1      -4.920  -1.863   3.896  0.00  0.00    -0.078 S 
BRANCH  14  15
ATOM     15  C   UNL     1      -5.169  -3.293   2.898  0.00  0.00    +0.192 A 
ATOM     16  N   UNL     1      -4.487  -3.419   1.768  0.00  0.00    -0.207 NA
ATOM     17  C   UNL     1      -4.645  -4.488   0.992  0.00  0.00    +0.122 A 
ATOM     18  C   UNL     1      -5.549  -5.476   1.375  0.00  0.00    +0.086 A 
ATOM     19  C   UNL     1      -6.251  -5.306   2.564  0.00  0.00    +0.122 A 
ATOM     20  N   UNL     1      -6.037  -4.213   3.293  0.00  0.00    -0.207 NA
ATOM     21  N   UNL     1      -3.924  -4.615  -0.185  0.00  0.00    -0.343 N 
ATOM     22  H   UNL     1      -4.046  -5.395  -0.748  0.00  0.00    +0.144 HD
ATOM     23  H   UNL     1      -3.296  -3.923  -0.445  0.00  0.00    +0.144 HD
BRANCH  19  24
ATOM     24  N   UNL     1      -7.161  -6.264   2.985  0.00  0.00    -0.343 N 
ATOM     25  H   UNL     1      -7.646  -6.140   3.815  0.00  0.00    +0.144 HD
ATOM     26  H   UNL     1      -7.311  -7.058   2.449  0.00  0.00    +0.144 HD
ENDBRANCH  19  24
ENDBRANCH  14  15
ENDBRANCH   1  14
TORSDOF 7
