REMARK  Name = ZINC25395002
REMARK  11 active torsions:
REMARK  status: ('A' for Active; 'I' for Inactive)
REMARK    1  A    between atoms: C_1  and  C_2
REMARK    2  A    between atoms: C_2  and  C_3
REMARK    3  A    between atoms: C_2  and  C_4
REMARK    4  A    between atoms: C_4  and  C_5
REMARK    5  A    between atoms: C_8  and  C_11
REMARK    6  A    between atoms: C_14  and  C_16
REMARK    7  A    between atoms: C_16  and  C_17
REMARK    8  A    between atoms: C_17  and  C_18
REMARK    9  A    between atoms: N_23  and  C_26
REMARK   10  A    between atoms: C_26  and  C_27
REMARK   11  A    between atoms: N_29  and  C_30
REMARK                            x       y       z     vdW  Elec       q    Type
REMARK                         _______ _______ _______ _____ _____    ______ ____
ROOT
ATOM      1  C   UNL     1      -2.428   4.970   8.617  0.00  0.00    +0.105 C 
ENDROOT
BRANCH   1   2
ATOM      2  C   UNL     1      -2.503   6.088   9.624  0.00  0.00    +0.216 C 
ATOM      3  O   UNL     1      -3.246   7.028   9.433  0.00  0.00    -0.276 OA
ATOM      4  N   UNL     1      -1.746   6.044  10.738  0.00  0.00    -0.305 N 
ATOM      5  C   UNL     1      -0.843   4.911  10.992  0.00  0.00    +0.089 C 
ATOM      6  C   UNL     1       0.553   5.469  11.313  0.00  0.00    -0.059 C 
ATOM      7  N   UNL     1       0.447   6.437  12.413  0.00  0.00    +0.387 N 
ATOM      8  C   UNL     1      -0.374   7.593  12.028  0.00  0.00    -0.059 C 
ATOM      9  C   UNL     1      -1.803   7.125  11.734  0.00  0.00    +0.089 C 
ATOM     10  H   UNL     1      -0.055   5.935  13.253  0.00  0.00    -0.081 HD
BRANCH   7  11
ATOM     11  C   UNL     1       1.776   6.864  12.868  0.00  0.00    +0.019 C 
BRANCH  11  12
ATOM     12  C   UNL     1       2.498   5.691  13.481  0.00  0.00    +0.197 C 
ATOM     13  O   UNL     1       1.957   4.607  13.533  0.00  0.00    -0.278 OA
ATOM     14  N   UNL     1       3.743   5.848  13.972  0.00  0.00    -0.314 N 
ATOM     15  H   UNL     1       4.234   6.832  13.924  0.00  0.00    +0.149 HD
BRANCH  14  16
ATOM     16  C   UNL     1       4.445   4.708  14.567  0.00  0.00    +0.073 C 
ATOM     17  C   UNL     1       5.200   4.949  15.876  0.00  0.00    +0.024 C 
ATOM     18  C   UNL     1       5.974   4.743  14.571  0.00  0.00    +0.024 C 
ENDBRANCH  14  16
ENDBRANCH  11  12
ENDBRANCH   7  11
ENDBRANCH   1   2
BRANCH   1  19
ATOM     19  C   UNL     1      -3.381   5.264   7.456  0.00  0.00    +0.105 C 
BRANCH  19  23
ATOM     20  C   UNL     1      -2.705   2.941   4.744  0.00  0.00    +0.155 A 
ATOM     21  C   UNL     1      -3.705   2.306   5.407  0.00  0.00    +0.161 A 
ATOM     22  N   UNL     1      -4.046   3.073   6.453  0.00  0.00    -0.221 NA
ATOM     23  C   UNL     1      -3.306   4.146   6.449  0.00  0.00    +0.197 A 
ATOM     24  O   UNL     1      -2.467   4.095   5.405  0.00  0.00    -0.440 OA
BRANCH  20  28
ATOM     25  C   UNL     1      -0.718   1.572   1.248  0.00  0.00    -0.047 A 
ATOM     26  C   UNL     1      -0.357   2.780   1.817  0.00  0.00    +0.004 A 
ATOM     27  C   UNL     1      -1.002   3.233   2.949  0.00  0.00    +0.012 A 
ATOM     28  C   UNL     1      -2.014   2.464   3.527  0.00  0.00    +0.019 A 
ATOM     29  C   UNL     1      -2.369   1.244   2.951  0.00  0.00    +0.012 A 
ATOM     30  C   UNL     1      -1.720   0.805   1.816  0.00  0.00    +0.004 A 
BRANCH  25  31
ATOM     31  C   UNL     1      -0.013   1.086   0.008  0.00  0.00    +0.038 C 
BRANCH  31  33
ATOM     32  C   UNL     1      -0.666   3.119  -1.289  0.00  0.00    +0.007 C 
ATOM     33  C   UNL     1      -0.753   1.593  -1.232  0.00  0.00    -0.013 C 
ATOM     34  C   UNL     1      -0.111   0.998  -2.487  0.00  0.00    +0.007 C 
ENDBRANCH  31  33
ENDBRANCH  25  31
ENDBRANCH  20  28
ENDBRANCH  19  23
ENDBRANCH   1  19
TORSDOF 9
