REMARK  Name = ZINC39672951
REMARK  9 active torsions:
REMARK  status: ('A' for Active; 'I' for Inactive)
REMARK    1  A    between atoms: C_1  and  O_2
REMARK    2  A    between atoms: O_2  and  C_3
REMARK    3  A    between atoms: C_6  and  C_9
REMARK    4  A    between atoms: C_9  and  C_10
REMARK    5  A    between atoms: C_10  and  C_11
REMARK    6  A    between atoms: C_15  and  C_24
REMARK    7  A    between atoms: N_26  and  C_27
REMARK    8  A    between atoms: C_27  and  C_28
REMARK    9  A    between atoms: C_28  and  N_34
REMARK                            x       y       z     vdW  Elec       q    Type
REMARK                         _______ _______ _______ _____ _____    ______ ____
ROOT
ATOM      1  C   UNL     1      -6.417  -3.679  -1.192  0.00  0.00    +0.216 C 
ATOM      2  O   UNL     1      -6.936  -3.951  -0.130  0.00  0.00    -0.276 OA
ATOM      3  N   UNL     1      -7.069  -3.932  -2.345  0.00  0.00    -0.300 N 
ATOM      4  C   UNL     1      -6.599  -3.678  -3.727  0.00  0.00    +0.121 C 
ATOM      5  C   UNL     1      -7.082  -4.904  -4.534  0.00  0.00    +0.100 C 
ATOM      6  C   UNL     1      -8.275  -5.455  -3.735  0.00  0.00    -0.004 C 
ATOM      7  C   UNL     1      -8.413  -4.532  -2.516  0.00  0.00    +0.115 C 
ATOM      8  C   UNL     1      -7.991  -6.883  -3.279  0.00  0.00    -0.010 C 
ATOM      9  C   UNL     1      -9.214  -7.429  -2.536  0.00  0.00    -0.082 C 
ATOM     10  N   UNL     1     -10.381  -7.401  -3.425  0.00  0.00    +0.379 N 
ATOM     11  C   UNL     1     -10.704  -6.015  -3.785  0.00  0.00    -0.082 C 
ATOM     12  C   UNL     1      -9.544  -5.409  -4.580  0.00  0.00    -0.010 C 
ATOM     13  H   UNL     1     -10.178  -7.926  -4.263  0.00  0.00    -0.086 HD
ATOM     14  H   UNL     1     -11.171  -7.817  -2.954  0.00  0.00    -0.086 HD
ENDROOT
BRANCH   5  15
ATOM     15  C   UNL     1      -5.987  -5.936  -4.626  0.00  0.00    +0.218 C 
ATOM     16  O   UNL     1      -5.152  -6.013  -3.751  0.00  0.00    -0.275 OA
ATOM     17  N   UNL     1      -5.937  -6.773  -5.681  0.00  0.00    -0.313 N 
ATOM     18  H   UNL     1      -6.606  -6.712  -6.382  0.00  0.00    +0.149 HD
BRANCH  17  19
ATOM     19  C   UNL     1      -4.873  -7.776  -5.771  0.00  0.00    +0.126 C 
BRANCH  19  20
ATOM     20  C   UNL     1      -4.967  -8.501  -7.115  0.00  0.00    +0.038 C 
ATOM     21  C   UNL     1      -3.940  -9.635  -7.155  0.00  0.00    +0.024 C 
ATOM     22  C   UNL     1      -2.534  -9.056  -6.985  0.00  0.00    +0.002 C 
ATOM     23  C   UNL     1      -2.248  -8.069  -8.118  0.00  0.00    +0.000 C 
ATOM     24  C   UNL     1      -3.275  -6.935  -8.077  0.00  0.00    +0.002 C 
ATOM     25  C   UNL     1      -4.681  -7.513  -8.248  0.00  0.00    +0.024 C 
BRANCH  20  26
ATOM     26  N   UNL     1      -6.317  -9.056  -7.278  0.00  0.00    -0.291 NA
ATOM     27  C   UNL     1      -6.653  -9.960  -6.168  0.00  0.00    +0.113 C 
ATOM     28  C   UNL     1      -8.086 -10.468  -6.347  0.00  0.00    +0.175 C 
ATOM     29  O   UNL     1      -8.204 -11.108  -7.621  0.00  0.00    -0.377 OA
ATOM     30  C   UNL     1      -7.885 -10.256  -8.724  0.00  0.00    +0.175 C 
ATOM     31  C   UNL     1      -6.450  -9.746  -8.570  0.00  0.00    +0.113 C 
ENDBRANCH  20  26
ENDBRANCH  19  20
ENDBRANCH  17  19
ENDBRANCH   5  15
BRANCH   1  32
ATOM     32  C   UNL     1      -5.044  -3.059  -1.223  0.00  0.00    +0.100 C 
BRANCH  32  33
ATOM     33  C   UNL     1      -4.534  -2.879   0.208  0.00  0.00    +0.044 C 
BRANCH  33  37
ATOM     34  C   UNL     1      -0.640  -1.120   0.122  0.00  0.00    +0.120 A 
ATOM     35  C   UNL     1      -1.767  -0.312   0.175  0.00  0.00    +0.046 A 
ATOM     36  C   UNL     1      -3.024  -0.883   0.203  0.00  0.00    +0.007 A 
ATOM     37  C   UNL     1      -3.161  -2.259   0.178  0.00  0.00    -0.047 A 
ATOM     38  C   UNL     1      -2.039  -3.066   0.125  0.00  0.00    +0.007 A 
ATOM     39  C   UNL     1      -0.780  -2.500   0.091  0.00  0.00    +0.046 A 
BRANCH  34  41
ATOM     40  C   UNL     1       0.666   0.867   0.129  0.00  0.00    +0.277 C 
ATOM     41  O   UNL     1       0.598  -0.560   0.094  0.00  0.00    -0.495 OA
ENDBRANCH  34  41
ENDBRANCH  33  37
ENDBRANCH  32  33
ENDBRANCH   1  32
TORSDOF 8
