REMARK  Name = ZINC23936715
REMARK  11 active torsions:
REMARK  status: ('A' for Active; 'I' for Inactive)
REMARK    1  A    between atoms: C_1  and  C_2
REMARK    2  A    between atoms: C_2  and  C_3
REMARK    3  A    between atoms: C_4  and  C_35
REMARK    4  A    between atoms: N_10  and  C_28
REMARK    5  A    between atoms: C_11  and  S_13
REMARK    6  A    between atoms: S_13  and  C_14
REMARK    7  A    between atoms: C_14  and  C_16
REMARK    8  A    between atoms: C_14  and  C_17
REMARK    9  A    between atoms: N_19  and  C_20
REMARK   10  A    between atoms: C_20  and  C_26
REMARK   11  A    between atoms: C_28  and  C_29
REMARK                            x       y       z     vdW  Elec       q    Type
REMARK                         _______ _______ _______ _____ _____    ______ ____
ROOT
ATOM      1  C   UNL     1      -1.129   3.678   6.504  0.00  0.00    -0.023 A 
ATOM      2  C   UNL     1      -2.003   4.017   7.463  0.00  0.00    -0.007 A 
ATOM      3  S   UNL     1      -3.437   3.027   7.084  0.00  0.00    -0.073 S 
ATOM      4  C   UNL     1      -2.820   2.187   5.648  0.00  0.00    +0.117 A 
ATOM      5  C   UNL     1      -1.517   2.699   5.503  0.00  0.00    +0.076 A 
ATOM      6  C   UNL     1      -0.764   2.183   4.402  0.00  0.00    +0.263 A 
ATOM      7  O   UNL     1       0.376   2.565   4.201  0.00  0.00    -0.267 OA
ATOM      8  N   UNL     1      -1.332   1.274   3.588  0.00  0.00    -0.285 N 
ATOM      9  C   UNL     1      -2.605   0.831   3.801  0.00  0.00    +0.173 A 
ATOM     10  N   UNL     1      -3.320   1.286   4.811  0.00  0.00    -0.216 NA
ATOM     11  C   UNL     1      -1.818   4.998   8.592  0.00  0.00    +0.052 C 
ENDROOT
BRANCH   1  13
ATOM     12  C   UNL     1       1.213   3.461   7.290  0.00  0.00    +0.009 C 
ATOM     13  C   UNL     1       0.240   4.306   6.465  0.00  0.00    +0.033 C 
ENDBRANCH   1  13
BRANCH   9  14
ATOM     14  S   UNL     1      -3.303  -0.365   2.712  0.00  0.00    -0.075 S 
BRANCH  14  15
ATOM     15  C   UNL     1      -4.939  -0.558   3.463  0.00  0.00    +0.137 C 
ATOM     16  C   UNL     1      -5.713   0.756   3.344  0.00  0.00    +0.029 C 
BRANCH  15  17
ATOM     17  C   UNL     1      -5.693  -1.651   2.751  0.00  0.00    +0.227 C 
ATOM     18  O   UNL     1      -5.359  -1.991   1.636  0.00  0.00    -0.275 OA
ATOM     19  N   UNL     1      -6.738  -2.251   3.353  0.00  0.00    -0.296 N 
ATOM     20  H   UNL     1      -7.041  -1.943   4.365  0.00  0.00    +0.150 HD
BRANCH  19  21
ATOM     21  C   UNL     1      -7.471  -3.314   2.661  0.00  0.00    +0.121 C 
ATOM     22  C   UNL     1      -8.060  -2.764   1.361  0.00  0.00    +0.041 C 
ATOM     23  C   UNL     1      -8.825  -3.874   0.638  0.00  0.00    +0.003 C 
ATOM     24  C   UNL     1      -9.956  -4.382   1.535  0.00  0.00    +0.000 C 
ATOM     25  C   UNL     1      -9.367  -4.932   2.835  0.00  0.00    +0.003 C 
ATOM     26  C   UNL     1      -8.602  -3.822   3.558  0.00  0.00    +0.041 C 
BRANCH  21  27
ATOM     27  C   UNL     1      -6.553  -4.423   2.354  0.00  0.00    +0.088 C 
ATOM     28  N   UNL     1      -5.845  -5.279   2.116  0.00  0.00    -0.194 NA
ENDBRANCH  21  27
ENDBRANCH  19  21
ENDBRANCH  15  17
ENDBRANCH  14  15
ENDBRANCH   9  14
BRANCH   8  29
ATOM     29  C   UNL     1      -0.568   0.746   2.455  0.00  0.00    +0.159 C 
BRANCH  29  30
ATOM     30  C   UNL     1      -0.810   1.621   1.224  0.00  0.00    +0.138 C 
ATOM     31  C   UNL     1      -0.013   1.086   0.008  0.00  0.00    +0.035 C 
ATOM     32  C   UNL     1      -0.833   1.634  -1.185  0.00  0.00    +0.031 C 
ATOM     33  C   UNL     1      -2.223   1.924  -0.587  0.00  0.00    +0.160 C 
ATOM     34  O   UNL     1      -2.186   1.524   0.793  0.00  0.00    -0.375 OA
ENDBRANCH  29  30
ENDBRANCH   8  29
TORSDOF 8
