REMARK  Name = ZINC00888415
REMARK  11 active torsions:
REMARK  status: ('A' for Active; 'I' for Inactive)
REMARK    1  A    between atoms: C_1  and  C_2
REMARK    2  A    between atoms: C_5  and  C_7
REMARK    3  A    between atoms: N_10  and  C_12
REMARK    4  A    between atoms: C_12  and  C_13
REMARK    5  A    between atoms: N_15  and  C_16
REMARK    6  A    between atoms: N_15  and  C_24
REMARK    7  A    between atoms: C_16  and  C_17
REMARK    8  A    between atoms: C_24  and  C_26
REMARK    9  A    between atoms: C_24  and  C_32
REMARK   10  A    between atoms: C_29  and  C_31
REMARK   11  A    between atoms: N_34  and  C_35
REMARK                            x       y       z     vdW  Elec       q    Type
REMARK                         _______ _______ _______ _____ _____    ______ ____
ROOT
ATOM      1  C   UNL     1       5.388  -4.909  -1.573  0.00  0.00    +0.240 C 
ATOM      2  O   UNL     1       4.688  -4.722  -2.545  0.00  0.00    -0.273 OA
ATOM      3  N   UNL     1       6.669  -5.298  -1.729  0.00  0.00    -0.277 N 
ENDROOT
BRANCH   1   4
ATOM      4  C   UNL     1       4.826  -4.705  -0.189  0.00  0.00    +0.264 C 
BRANCH   4   8
ATOM      5  C   UNL     1       1.698  -3.087  -0.438  0.00  0.00    +0.239 A 
ATOM      6  N   UNL     1       1.333  -4.378  -0.404  0.00  0.00    -0.105 NA
ATOM      7  N   UNL     1       2.412  -5.079  -0.313  0.00  0.00    -0.045 NA
ATOM      8  N   UNL     1       3.425  -4.287  -0.288  0.00  0.00    -0.154 N 
ATOM      9  N   UNL     1       3.017  -3.067  -0.369  0.00  0.00    -0.127 NA
BRANCH   5  14
ATOM     10  C   UNL     1       0.111   1.666  -0.736  0.00  0.00    +0.086 C 
ATOM     11  C   UNL     1       0.101   0.160  -0.669  0.00  0.00    +0.103 A 
ATOM     12  C   UNL     1      -0.997  -0.620  -0.693  0.00  0.00    +0.045 A 
ATOM     13  C   UNL     1      -0.556  -1.956  -0.609  0.00  0.00    +0.053 A 
ATOM     14  C   UNL     1       0.800  -1.917  -0.539  0.00  0.00    +0.175 A 
ATOM     15  O   UNL     1       1.185  -0.627  -0.582  0.00  0.00    -0.457 OA
ENDBRANCH   5  14
ENDBRANCH   4   8
ENDBRANCH   1   4
BRANCH   3  16
ATOM     16  C   UNL     1       7.515  -5.523  -0.554  0.00  0.00    +0.145 C 
BRANCH  16  17
ATOM     17  C   UNL     1       7.293  -6.921  -0.037  0.00  0.00    -0.012 A 
ATOM     18  C   UNL     1       6.462  -7.133   1.047  0.00  0.00    +0.006 A 
ATOM     19  C   UNL     1       6.259  -8.415   1.522  0.00  0.00    +0.000 A 
ATOM     20  C   UNL     1       6.887  -9.486   0.913  0.00  0.00    +0.001 A 
ATOM     21  C   UNL     1       7.718  -9.275  -0.171  0.00  0.00    +0.020 A 
ATOM     22  C   UNL     1       7.917  -7.993  -0.650  0.00  0.00    +0.046 A 
ATOM     23 CL   UNL     1       8.956  -7.728  -2.015  0.00  0.00    -0.083 Cl
ENDBRANCH  16  17
ENDBRANCH   3  16
BRANCH   3  24
ATOM     24  C   UNL     1       7.215  -5.495  -3.074  0.00  0.00    +0.228 C 
BRANCH  24  25
ATOM     25  C   UNL     1       7.178  -4.191  -3.828  0.00  0.00    +0.135 A 
ATOM     26  C   UNL     1       8.176  -3.685  -4.575  0.00  0.00    +0.047 A 
ATOM     27  C   UNL     1       7.715  -2.454  -5.095  0.00  0.00    +0.045 A 
ATOM     28  C   UNL     1       6.463  -2.281  -4.635  0.00  0.00    +0.102 A 
ATOM     29  O   UNL     1       6.141  -3.339  -3.873  0.00  0.00    -0.462 OA
ATOM     30  C   UNL     1       5.571  -1.103  -4.930  0.00  0.00    +0.086 C 
ENDBRANCH  24  25
BRANCH  24  31
ATOM     31  C   UNL     1       6.390  -6.522  -3.806  0.00  0.00    +0.241 C 
ATOM     32  O   UNL     1       5.439  -7.038  -3.258  0.00  0.00    -0.273 OA
ATOM     33  N   UNL     1       6.709  -6.867  -5.069  0.00  0.00    -0.311 N 
ATOM     34  H   UNL     1       7.469  -6.455  -5.507  0.00  0.00    +0.149 HD
BRANCH  33  35
ATOM     35  C   UNL     1       5.906  -7.865  -5.780  0.00  0.00    +0.073 C 
ATOM     36  C   UNL     1       6.406  -9.268  -5.427  0.00  0.00    +0.022 C 
ATOM     37  C   UNL     1       5.568 -10.310  -6.170  0.00  0.00    +0.002 C 
ATOM     38  C   UNL     1       5.697 -10.087  -7.678  0.00  0.00    +0.000 C 
ATOM     39  C   UNL     1       5.197  -8.685  -8.031  0.00  0.00    +0.002 C 
ATOM     40  C   UNL     1       6.035  -7.643  -7.288  0.00  0.00    +0.022 C 
ENDBRANCH  33  35
ENDBRANCH  24  31
ENDBRANCH   3  24
TORSDOF 9
