REMARK  Name = ZINC66919309
REMARK  8 active torsions:
REMARK  status: ('A' for Active; 'I' for Inactive)
REMARK    1  A    between atoms: C_1  and  C_2
REMARK    2  A    between atoms: C_5  and  S_11
REMARK    3  A    between atoms: C_6  and  N_8
REMARK    4  A    between atoms: S_11  and  O_14
REMARK    5  A    between atoms: O_14  and  C_15
REMARK    6  A    between atoms: C_20  and  O_21
REMARK    7  A    between atoms: O_21  and  C_22
REMARK    8  A    between atoms: C_22  and  C_23
REMARK                            x       y       z     vdW  Elec       q    Type
REMARK                         _______ _______ _______ _____ _____    ______ ____
ROOT
ATOM      1  S   UNL     1      -0.162  -4.631  -0.307  0.00  0.00    +0.153 S 
ATOM      2  O   UNL     1       0.258  -3.364  -0.793  0.00  0.00    -0.131 OA
ATOM      3  O   UNL     1       0.757  -5.611   0.156  0.00  0.00    -0.131 OA
ENDROOT
BRANCH   1   8
ATOM      4  C   UNL     1      -3.975  -3.560   4.245  0.00  0.00    +0.044 C 
ATOM      5  C   UNL     1      -3.022  -3.827   3.108  0.00  0.00    -0.048 A 
ATOM      6  C   UNL     1      -3.513  -4.107   1.846  0.00  0.00    +0.005 A 
ATOM      7  C   UNL     1      -2.640  -4.353   0.803  0.00  0.00    +0.033 A 
ATOM      8  C   UNL     1      -1.275  -4.317   1.022  0.00  0.00    +0.158 A 
ATOM      9  C   UNL     1      -0.784  -4.036   2.283  0.00  0.00    +0.155 A 
ATOM     10  C   UNL     1      -1.658  -3.787   3.325  0.00  0.00    +0.038 A 
BRANCH   9  11
ATOM     11  N   UNL     1       0.677  -3.999   2.518  0.00  0.00    +0.058 N 
ATOM     12  O   UNL     1       1.106  -3.878   3.641  0.00  0.00    -0.126 OA
ATOM     13  O   UNL     1       1.441  -4.090   1.585  0.00  0.00    -0.126 OA
ENDBRANCH   9  11
ENDBRANCH   1   8
BRANCH   1  14
ATOM     14  O   UNL     1      -0.965  -5.282  -1.423  0.00  0.00    -0.339 OA
BRANCH  14  15
ATOM     15  C   UNL     1      -0.330  -5.298  -2.626  0.00  0.00    +0.198 A 
ATOM     16  C   UNL     1      -0.532  -4.270  -3.532  0.00  0.00    +0.052 A 
ATOM     17  C   UNL     1       0.115  -4.288  -4.753  0.00  0.00    +0.004 A 
ATOM     18  C   UNL     1       0.965  -5.330  -5.074  0.00  0.00    +0.004 A 
ATOM     19  C   UNL     1       1.171  -6.359  -4.174  0.00  0.00    +0.049 A 
ATOM     20  C   UNL     1       0.530  -6.344  -2.945  0.00  0.00    +0.165 A 
BRANCH  20  21
ATOM     21  O   UNL     1       0.737  -7.353  -2.057  0.00  0.00    -0.479 OA
BRANCH  21  22
ATOM     22  C   UNL     1       1.632  -8.393  -2.453  0.00  0.00    +0.342 C 
BRANCH  22  23
ATOM     23  C   UNL     1       1.737  -9.430  -1.332  0.00  0.00    +0.424 C 
ATOM     24  F   UNL     1       0.473  -9.974  -1.080  0.00  0.00    -0.167 F 
ATOM     25  F   UNL     1       2.614 -10.449  -1.720  0.00  0.00    -0.167 F 
ATOM     26  F   UNL     1       2.220  -8.816  -0.172  0.00  0.00    -0.167 F 
ENDBRANCH  22  23
ENDBRANCH  21  22
ENDBRANCH  20  21
ENDBRANCH  14  15
ENDBRANCH   1  14
TORSDOF 7
