REMARK  Name = ZINC14991009
REMARK  7 active torsions:
REMARK  status: ('A' for Active; 'I' for Inactive)
REMARK    1  A    between atoms: C_1  and  C_2
REMARK    2  A    between atoms: C_2  and  C_4
REMARK    3  A    between atoms: C_7  and  C_9
REMARK    4  A    between atoms: C_20  and  C_23
REMARK    5  A    between atoms: C_23  and  N_24
REMARK    6  A    between atoms: C_25  and  C_27
REMARK    7  A    between atoms: C_33  and  N_60
REMARK                            x       y       z     vdW  Elec       q    Type
REMARK                         _______ _______ _______ _____ _____    ______ ____
ROOT
ATOM      1  C   UNL     1       1.202   1.787   0.000  0.00  0.00    -0.011 A 
ATOM      2  C   UNL     1      -0.013   1.076   0.008  0.00  0.00    +0.009 A 
ATOM      3  C   UNL     1      -1.202   1.729   0.017  0.00  0.00    +0.009 A 
ATOM      4  C   UNL     1      -1.233   3.137   0.029  0.00  0.00    -0.011 A 
ATOM      5  C   UNL     1      -0.014   3.865   0.023  0.00  0.00    -0.017 A 
ATOM      6  C   UNL     1       1.205   3.172   0.007  0.00  0.00    +0.017 A 
ATOM      7  C   UNL     1      -0.054   5.270   0.031  0.00  0.00    +0.012 A 
ATOM      8  C   UNL     1      -1.247   5.919   0.048  0.00  0.00    +0.046 A 
ATOM      9  C   UNL     1      -2.462   5.213   0.056  0.00  0.00    +0.125 A 
ATOM     10  C   UNL     1      -2.446   3.835   0.042  0.00  0.00    +0.006 A 
ATOM     11  C   UNL     1      -3.888   3.367   0.038  0.00  0.00    +0.085 C 
ATOM     12  C   UNL     1      -4.641   4.661  -0.351  0.00  0.00    +0.195 C 
ATOM     13  O   UNL     1      -3.737   5.692   0.083  0.00  0.00    -0.487 OA
ENDROOT
BRANCH   1  17
ATOM     14  C   UNL     1       5.023   0.142  -0.046  0.00  0.00    +0.055 A 
ATOM     15  C   UNL     1       3.981  -0.782  -0.041  0.00  0.00    +0.019 A 
ATOM     16  C   UNL     1       2.699  -0.320  -0.026  0.00  0.00    +0.017 A 
ATOM     17  C   UNL     1       2.482   1.051  -0.016  0.00  0.00    +0.020 A 
ATOM     18  S   UNL     1       4.146   1.697  -0.037  0.00  0.00    -0.085 S 
BRANCH  14  20
ATOM     19  C   UNL     1       7.373   1.073  -0.064  0.00  0.00    +0.092 C 
ATOM     20  C   UNL     1       6.414  -0.090  -0.061  0.00  0.00    +0.167 C 
ATOM     21  O   UNL     1       6.840  -1.228  -0.072  0.00  0.00    -0.292 OA
ENDBRANCH  14  20
ENDBRANCH   1  17
BRANCH  12  22
ATOM     22  C   UNL     1      -5.976   4.761   0.390  0.00  0.00    +0.149 C 
BRANCH  22  23
ATOM     23  N   UNL     1      -6.657   6.000   0.004  0.00  0.00    -0.312 N 
ATOM     24  C   UNL     1      -7.858   6.301   0.534  0.00  0.00    +0.214 C 
ATOM     25  O   UNL     1      -8.376   5.548   1.332  0.00  0.00    -0.276 OA
ATOM     26  H   UNL     1      -6.243   6.602  -0.634  0.00  0.00    +0.149 HD
BRANCH  24  27
ATOM     27  C   UNL     1      -8.559   7.575   0.137  0.00  0.00    +0.058 C 
ATOM     28  C   UNL     1      -9.895   7.676   0.878  0.00  0.00    +0.009 C 
ATOM     29  C   UNL     1     -10.627   8.942   0.423  0.00  0.00    -0.018 C 
ATOM     30  C   UNL     1     -10.826   8.893  -1.093  0.00  0.00    -0.079 C 
ATOM     31  C   UNL     1      -8.818   7.566  -1.372  0.00  0.00    -0.067 C 
ATOM     32  C   UNL     1      -9.662   8.888  -3.216  0.00  0.00    -0.096 C 
ATOM     33  N   UNL     1      -9.503   8.821  -1.748  0.00  0.00    +0.378 N 
ATOM     34  H   UNL     1      -8.933   9.617  -1.438  0.00  0.00    -0.082 HD
ENDBRANCH  24  27
ENDBRANCH  22  23
ENDBRANCH  12  22
TORSDOF 5
