REMARK  Name = ZINC25521186
REMARK  11 active torsions:
REMARK  status: ('A' for Active; 'I' for Inactive)
REMARK    1  A    between atoms: C_1  and  N_2
REMARK    2  A    between atoms: N_2  and  C_3
REMARK    3  A    between atoms: N_2  and  C_4
REMARK    4  A    between atoms: C_4  and  C_5
REMARK    5  A    between atoms: C_8  and  C_11
REMARK    6  A    between atoms: C_16  and  C_17
REMARK    7  A    between atoms: C_17  and  N_18
REMARK    8  A    between atoms: C_19  and  C_21
REMARK    9  A    between atoms: C_21  and  C_22
REMARK   10  A    between atoms: C_22  and  N_23
REMARK   11  A    between atoms: C_24  and  C_26
REMARK                            x       y       z     vdW  Elec       q    Type
REMARK                         _______ _______ _______ _____ _____    ______ ____
ROOT
ATOM      1  C   UNL     1      -1.410   0.016   2.080  0.00  0.00    +0.140 C 
ENDROOT
BRANCH   1   7
ATOM      2  C   UNL     1      -0.205  -0.041  -0.124  0.00  0.00    -0.013 A 
ATOM      3  C   UNL     1       0.485  -0.731  -1.119  0.00  0.00    +0.009 A 
ATOM      4  C   UNL     1       0.702  -2.088  -0.990  0.00  0.00    +0.001 A 
ATOM      5  C   UNL     1       0.236  -2.763   0.124  0.00  0.00    +0.000 A 
ATOM      6  C   UNL     1      -0.450  -2.083   1.114  0.00  0.00    +0.006 A 
ATOM      7  C   UNL     1      -0.668  -0.725   0.998  0.00  0.00    -0.023 A 
BRANCH   2  11
ATOM      8  C   UNL     1      -0.879   4.141  -0.504  0.00  0.00    -0.064 A 
ATOM      9  C   UNL     1      -0.217   3.647   0.606  0.00  0.00    +0.002 A 
ATOM     10  C   UNL     1       0.004   2.291   0.735  0.00  0.00    +0.009 A 
ATOM     11  C   UNL     1      -0.441   1.418  -0.256  0.00  0.00    -0.018 A 
ATOM     12  C   UNL     1      -1.102   1.921  -1.375  0.00  0.00    +0.009 A 
ATOM     13  C   UNL     1      -1.323   3.279  -1.490  0.00  0.00    +0.002 A 
BRANCH   8  14
ATOM     14  C   UNL     1      -1.119   5.622  -0.638  0.00  0.00    -0.044 C 
BRANCH  14  16
ATOM     15  C   UNL     1       0.086   5.769  -2.733  0.00  0.00    -0.096 C 
ATOM     16  N   UNL     1       0.013   6.239  -1.343  0.00  0.00    +0.379 N 
ATOM     17  C   UNL     1      -0.067   7.705  -1.286  0.00  0.00    -0.096 C 
ATOM     18  H   UNL     1       0.938   5.931  -0.833  0.00  0.00    -0.082 HD
ENDBRANCH  14  16
ENDBRANCH   8  14
ENDBRANCH   2  11
ENDBRANCH   1   7
BRANCH   1  19
ATOM     19  N   UNL     1      -2.758   0.347   1.610  0.00  0.00    -0.311 N 
ATOM     20  C   UNL     1      -3.575   1.095   2.378  0.00  0.00    +0.215 C 
ATOM     21  O   UNL     1      -3.194   1.494   3.458  0.00  0.00    -0.276 OA
ATOM     22  H   UNL     1      -3.102  -0.015   0.630  0.00  0.00    +0.149 HD
BRANCH  20  23
ATOM     23  C   UNL     1      -4.960   1.435   1.894  0.00  0.00    +0.114 C 
BRANCH  23  24
ATOM     24  C   UNL     1      -5.673   2.287   2.946  0.00  0.00    +0.113 C 
BRANCH  24  25
ATOM     25  N   UNL     1      -7.021   2.618   2.476  0.00  0.00    -0.311 N 
ATOM     26  C   UNL     1      -7.838   3.366   3.243  0.00  0.00    +0.244 C 
ATOM     27  O   UNL     1      -7.456   3.767   4.326  0.00  0.00    -0.270 OA
ATOM     28  H   UNL     1      -7.365   2.256   1.496  0.00  0.00    +0.149 HD
BRANCH  26  29
ATOM     29  C   UNL     1      -9.197   3.700   2.769  0.00  0.00    +0.037 A 
ATOM     30  C   UNL     1      -9.635   3.247   1.523  0.00  0.00    +0.014 A 
ATOM     31  C   UNL     1     -10.907   3.557   1.088  0.00  0.00    +0.021 A 
ATOM     32  C   UNL     1     -11.744   4.326   1.880  0.00  0.00    +0.041 A 
ATOM     33  C   UNL     1     -11.312   4.784   3.114  0.00  0.00    +0.021 A 
ATOM     34  C   UNL     1     -10.045   4.475   3.562  0.00  0.00    +0.014 A 
ATOM     35 CL   UNL     1     -13.341   4.717   1.323  0.00  0.00    -0.084 Cl
ENDBRANCH  26  29
ENDBRANCH  24  25
ENDBRANCH  23  24
ENDBRANCH  20  23
ENDBRANCH   1  19
TORSDOF 9
