REMARK  Name = ZINC39948325
REMARK  6 active torsions:
REMARK  status: ('A' for Active; 'I' for Inactive)
REMARK    1  A    between atoms: C_1  and  C_2
REMARK    2  A    between atoms: C_10  and  C_14
REMARK    3  A    between atoms: C_14  and  S_15
REMARK    4  A    between atoms: S_15  and  C_16
REMARK    5  A    between atoms: C_19  and  C_27
REMARK    6  A    between atoms: N_20  and  C_21
REMARK                            x       y       z     vdW  Elec       q    Type
REMARK                         _______ _______ _______ _____ _____    ______ ____
ROOT
ATOM      1  C   UNL     1      -3.752  -7.845   6.259  0.00  0.00    +0.193 A 
ATOM      2  N   UNL     1      -2.849  -8.129   7.170  0.00  0.00    -0.122 NA
ATOM      3  N   UNL     1      -3.344  -8.926   8.049  0.00  0.00    -0.128 NA
ATOM      4  C   UNL     1      -4.594  -9.199   7.753  0.00  0.00    +0.168 A 
ATOM      5  N   UNL     1      -4.895  -8.511   6.600  0.00  0.00    -0.299 N 
ENDROOT
BRANCH   4   6
ATOM      6  C   UNL     1      -5.506 -10.077   8.516  0.00  0.00    +0.054 A 
ATOM      7  C   UNL     1      -6.259 -11.049   7.856  0.00  0.00    +0.014 A 
ATOM      8  C   UNL     1      -7.108 -11.865   8.575  0.00  0.00    +0.001 A 
ATOM      9  C   UNL     1      -7.216 -11.722   9.947  0.00  0.00    +0.003 A 
ATOM     10  C   UNL     1      -6.474 -10.761  10.609  0.00  0.00    +0.039 A 
ATOM     11  C   UNL     1      -5.614  -9.941   9.903  0.00  0.00    +0.134 A 
ATOM     12  F   UNL     1      -4.885  -9.006  10.551  0.00  0.00    -0.205 F 
ENDBRANCH   4   6
BRANCH   5  13
ATOM     13  C   UNL     1      -6.174  -8.498   5.886  0.00  0.00    +0.091 C 
ATOM     14  C   UNL     1      -5.973  -9.041   4.470  0.00  0.00    +0.025 C 
ATOM     15  C   UNL     1      -7.309  -9.027   3.724  0.00  0.00    +0.002 C 
ATOM     16  C   UNL     1      -7.837  -7.593   3.650  0.00  0.00    +0.000 C 
ATOM     17  C   UNL     1      -8.038  -7.050   5.067  0.00  0.00    +0.002 C 
ATOM     18  C   UNL     1      -6.702  -7.064   5.812  0.00  0.00    +0.025 C 
ENDBRANCH   5  13
BRANCH   1  19
ATOM     19  S   UNL     1      -3.533  -6.795   4.862  0.00  0.00    -0.078 S 
BRANCH  19  20
ATOM     20  C   UNL     1      -1.811  -6.240   4.996  0.00  0.00    +0.151 C 
BRANCH  20  29
ATOM     21  C   UNL     1       0.236   1.230  -0.252  0.00  0.00    +0.007 C 
ATOM     22  C   UNL     1       0.112  -0.295  -0.273  0.00  0.00    -0.012 C 
ATOM     23  C   UNL     1      -1.361  -0.679  -0.149  0.00  0.00    +0.008 C 
ATOM     24  C   UNL     1      -1.526  -2.202  -0.248  0.00  0.00    +0.033 C 
ATOM     25  C   UNL     1      -0.585  -2.812   0.788  0.00  0.00    -0.042 C 
ATOM     26  C   UNL     1      -0.955  -3.667   1.742  0.00  0.00    +0.071 C 
ATOM     27  C   UNL     1       0.037  -4.022   2.792  0.00  0.00    +0.111 C 
ATOM     28  N   UNL     1      -0.254  -4.820   3.792  0.00  0.00    -0.227 NA
ATOM     29  C   UNL     1      -1.488  -5.322   3.846  0.00  0.00    +0.134 C 
ATOM     30  N   UNL     1      -2.441  -5.083   2.982  0.00  0.00    -0.160 NA
ATOM     31  C   UNL     1      -2.313  -4.284   1.907  0.00  0.00    +0.271 C 
ATOM     32  O   UNL     1      -3.228  -4.079   1.128  0.00  0.00    -0.268 OA
ATOM     33  S   UNL     1       1.509  -3.165   2.329  0.00  0.00    -0.097 S 
ATOM     34  C   UNL     1       0.890  -2.409   0.777  0.00  0.00    +0.080 C 
ATOM     35  C   UNL     1       0.929  -0.882   0.882  0.00  0.00    +0.022 C 
ENDBRANCH  20  29
ENDBRANCH  19  20
ENDBRANCH   1  19
TORSDOF 5
