REMARK  Name = ZINC63411310
REMARK  4 active torsions:
REMARK  status: ('A' for Active; 'I' for Inactive)
REMARK    1  A    between atoms: C_1  and  C_2
REMARK    2  A    between atoms: C_2  and  C_21
REMARK    3  A    between atoms: N_3  and  N_4
REMARK    4  A    between atoms: C_5  and  C_7
REMARK                            x       y       z     vdW  Elec       q    Type
REMARK                         _______ _______ _______ _____ _____    ______ ____
ROOT
ATOM      1  N   UNL     1       0.013   0.034   2.341  0.00  0.00    -0.205 N 
ATOM      2  C   UNL     1       0.023  -0.646   3.504  0.00  0.00    +0.263 C 
ATOM      3  O   UNL     1       0.030  -1.859   3.498  0.00  0.00    -0.271 OA
ATOM      4  H   UNL     1       0.008   1.004   2.346  0.00  0.00    +0.177 HD
ENDROOT
BRANCH   2   5
ATOM      5  C   UNL     1       0.025   0.100   4.813  0.00  0.00    +0.243 C 
ATOM      6  C   UNL     1       1.416   0.531   5.177  0.00  0.00    -0.007 C 
ATOM      7  C   UNL     1       1.672  -0.095   6.354  0.00  0.00    +0.095 C 
ATOM      8  C   UNL     1       2.979   0.117   7.026  0.00  0.00    +0.005 A 
ATOM      9  C   UNL     1       3.402  -0.696   8.067  0.00  0.00    +0.010 A 
ATOM     10  C   UNL     1       4.641  -0.480   8.641  0.00  0.00    +0.001 A 
ATOM     11  C   UNL     1       5.449   0.541   8.172  0.00  0.00    +0.000 A 
ATOM     12  C   UNL     1       5.022   1.360   7.143  0.00  0.00    +0.004 A 
ATOM     13  C   UNL     1       3.779   1.167   6.571  0.00  0.00    -0.038 A 
ATOM     14  C   UNL     1       3.289   2.115   5.510  0.00  0.00    +0.040 C 
ATOM     15  C   UNL     1       2.398   1.419   4.479  0.00  0.00    +0.040 C 
ATOM     16  N   UNL     1       0.610  -0.845   6.716  0.00  0.00    -0.153 NA
ATOM     17  N   UNL     1      -0.348  -0.795   5.927  0.00  0.00    -0.170 NA
ENDBRANCH   2   5
BRANCH   1  20
ATOM     18  C   UNL     1      -0.006   1.503   0.010  0.00  0.00    +0.068 C 
ATOM     19  C   UNL     1       0.002  -0.004   0.002  0.00  0.00    +0.064 C 
ATOM     20  N   UNL     1       0.011  -0.660   1.124  0.00  0.00    -0.184 NA
BRANCH  19  21
ATOM     21  C   UNL     1      -0.000  -0.733  -1.276  0.00  0.00    +0.005 A 
ATOM     22  C   UNL     1      -0.125  -0.052  -2.481  0.00  0.00    +0.010 A 
ATOM     23  C   UNL     1      -0.127  -0.742  -3.685  0.00  0.00    +0.001 A 
ATOM     24  C   UNL     1      -0.008  -2.097  -3.736  0.00  0.00    +0.008 A 
ATOM     25  C   UNL     1       0.122  -2.850  -2.558  0.00  0.00    -0.017 A 
ATOM     26  C   UNL     1       0.135  -2.188  -1.306  0.00  0.00    -0.009 A 
ATOM     27  C   UNL     1       0.270  -2.934  -0.129  0.00  0.00    +0.009 A 
ATOM     28  C   UNL     1       0.393  -4.290  -0.202  0.00  0.00    +0.001 A 
ATOM     29  C   UNL     1       0.386  -4.944  -1.431  0.00  0.00    +0.001 A 
ATOM     30  C   UNL     1       0.245  -4.250  -2.594  0.00  0.00    +0.008 A 
ENDBRANCH  19  21
ENDBRANCH   1  20
TORSDOF 3
