REMARK  Name = ZINC02109992
REMARK  6 active torsions:
REMARK  status: ('A' for Active; 'I' for Inactive)
REMARK    1  A    between atoms: C_1  and  C_2
REMARK    2  A    between atoms: C_2  and  C_3
REMARK    3  A    between atoms: C_3  and  C_5
REMARK    4  A    between atoms: C_3  and  O_19
REMARK    5  A    between atoms: C_10  and  O_18
REMARK    6  A    between atoms: O_19  and  C_20
REMARK                            x       y       z     vdW  Elec       q    Type
REMARK                         _______ _______ _______ _____ _____    ______ ____
ROOT
ATOM      1  C   UNL     1       4.775   0.197  -0.161  0.00  0.00    +0.258 C 
ENDROOT
BRANCH   1   2
ATOM      2  C   UNL     1       6.017  -0.603   0.135  0.00  0.00    +0.256 C 
ATOM      3  O   UNL     1       5.923  -1.739   0.548  0.00  0.00    -0.272 OA
ATOM      4  N   UNL     1       7.233  -0.056  -0.061  0.00  0.00    -0.298 N 
ATOM      5  C   UNL     1       7.367   1.355  -0.450  0.00  0.00    +0.110 C 
ATOM      6  C   UNL     1       8.223   1.437  -1.717  0.00  0.00    +0.054 C 
ATOM      7  C   UNL     1       9.557   0.726  -1.476  0.00  0.00    +0.072 C 
ATOM      8  C   UNL     1      10.417   0.827  -2.738  0.00  0.00    +0.035 C 
ATOM      9  C   UNL     1       9.676   0.181  -3.910  0.00  0.00    +0.003 C 
ATOM     10  C   UNL     1       9.406  -1.292  -3.595  0.00  0.00    +0.001 C 
ATOM     11  C   UNL     1       8.554  -1.396  -2.328  0.00  0.00    +0.008 C 
ATOM     12  C   UNL     1       9.299  -0.747  -1.151  0.00  0.00    +0.038 C 
ATOM     13  C   UNL     1       8.452  -0.857   0.117  0.00  0.00    +0.114 C 
BRANCH   7  14
ATOM     14  O   UNL     1      10.238   1.345  -0.382  0.00  0.00    -0.388 OA
ATOM     15  H   UNL     1      10.435   2.281  -0.521  0.00  0.00    +0.210 HD
ENDBRANCH   7  14
ENDBRANCH   1   2
BRANCH   1  17
ATOM     16  C   UNL     1       3.459   1.323  -1.962  0.00  0.00    +0.008 C 
ATOM     17  C   UNL     1       4.652   0.410  -1.671  0.00  0.00    +0.051 C 
ENDBRANCH   1  17
BRANCH   1  18
ATOM     18  O   UNL     1       3.628  -0.510   0.315  0.00  0.00    -0.480 OA
BRANCH  18  19
ATOM     19  C   UNL     1       2.642   0.227   0.886  0.00  0.00    +0.125 A 
ATOM     20  C   UNL     1       1.534  -0.411   1.440  0.00  0.00    +0.046 A 
ATOM     21  C   UNL     1       0.533   0.315   2.018  0.00  0.00    +0.015 A 
ATOM     22  C   UNL     1       0.622   1.712   2.053  0.00  0.00    +0.021 A 
ATOM     23  C   UNL     1       1.737   2.362   1.496  0.00  0.00    +0.143 A 
ATOM     24  C   UNL     1       2.745   1.608   0.913  0.00  0.00    +0.092 A 
ATOM     25  O   UNL     1       1.813   3.709   1.535  0.00  0.00    -0.422 OA
ATOM     26  C   UNL     1       0.846   4.445   2.099  0.00  0.00    +0.341 A 
ATOM     27  O   UNL     1       0.960   5.657   2.112  0.00  0.00    -0.245 OA
ATOM     28  C   UNL     1      -0.304   3.858   2.683  0.00  0.00    +0.041 A 
ATOM     29  C   UNL     1      -0.446   2.515   2.663  0.00  0.00    -0.027 A 
ATOM     30  C   UNL     1      -1.636   1.804   3.245  0.00  0.00    +0.036 C 
ATOM     31  C   UNL     1      -2.401   2.722   4.198  0.00  0.00    +0.005 C 
ATOM     32  C   UNL     1      -2.660   4.052   3.480  0.00  0.00    +0.005 C 
ATOM     33  C   UNL     1      -1.326   4.773   3.305  0.00  0.00    +0.042 C 
ENDBRANCH  18  19
ENDBRANCH   1  18
TORSDOF 5
