REMARK  Name = ZINC01534906
REMARK  6 active torsions:
REMARK  status: ('A' for Active; 'I' for Inactive)
REMARK    1  A    between atoms: N_19  and  N_20
REMARK    2  A    between atoms: C_21  and  C_23
REMARK    3  A    between atoms: C_23  and  C_24
REMARK    4  A    between atoms: C_24  and  S_25
REMARK    5  A    between atoms: S_25  and  C_26
REMARK    6  A    between atoms: C_26  and  C_27
REMARK                            x       y       z     vdW  Elec       q    Type
REMARK                         _______ _______ _______ _____ _____    ______ ____
ROOT
ATOM      1  C   UNL     1       2.469   6.077   2.777  0.00  0.00    +0.001 A 
ATOM      2  C   UNL     1       1.264   6.244   2.118  0.00  0.00    +0.004 A 
ATOM      3  C   UNL     1       0.881   5.328   1.165  0.00  0.00    +0.046 A 
ATOM      4  C   UNL     1       1.692   4.230   0.852  0.00  0.00    +0.133 A 
ATOM      5  C   UNL     1       2.887   4.062   1.512  0.00  0.00    +0.013 A 
ATOM      6  C   UNL     1       3.267   4.998   2.475  0.00  0.00    +0.009 A 
ATOM      7  C   UNL     1       3.862   2.933   1.296  0.00  0.00    +0.154 C 
ATOM      8  N   UNL     1       3.572   2.131   0.123  0.00  0.00    -0.246 N 
ATOM      9  C   UNL     1       2.388   1.395   0.036  0.00  0.00    +0.082 A 
ATOM     10  C   UNL     1       2.409   0.009   0.019  0.00  0.00    +0.047 A 
ATOM     11  C   UNL     1       1.216  -0.692  -0.001  0.00  0.00    +0.043 A 
ATOM     12  C   UNL     1       0.009  -0.015   0.009  0.00  0.00    +0.024 A 
ATOM     13  C   UNL     1      -0.014   1.369   0.015  0.00  0.00    +0.049 A 
ATOM     14  C   UNL     1       1.179   2.070   0.005  0.00  0.00    +0.150 A 
ATOM     15  O   UNL     1       1.211   3.414  -0.108  0.00  0.00    -0.454 OA
ATOM     16 CL   UNL     1       1.233  -2.427  -0.038  0.00  0.00    -0.083 Cl
ATOM     17  C   UNL     1       4.456   2.095  -0.895  0.00  0.00    +0.323 C 
ATOM     18  O   UNL     1       5.445   2.801  -0.866  0.00  0.00    -0.251 OA
ATOM     19  N   UNL     1       4.242   1.277  -1.944  0.00  0.00    -0.218 N 
ATOM     20  H   UNL     1       3.417   0.769  -2.003  0.00  0.00    +0.174 HD
ENDROOT
BRANCH  19  21
ATOM     21  N   UNL     1       5.210   1.160  -2.950  0.00  0.00    -0.233 N 
ATOM     22  C   UNL     1       4.955   0.422  -4.048  0.00  0.00    +0.230 C 
ATOM     23  O   UNL     1       3.887  -0.141  -4.166  0.00  0.00    -0.274 OA
ATOM     24  H   UNL     1       6.064   1.611  -2.856  0.00  0.00    +0.173 HD
BRANCH  22  25
ATOM     25  C   UNL     1       5.997   0.296  -5.130  0.00  0.00    +0.108 C 
BRANCH  25  26
ATOM     26  C   UNL     1       5.458  -0.589  -6.256  0.00  0.00    +0.079 C 
BRANCH  26  27
ATOM     27  S   UNL     1       6.712  -0.741  -7.558  0.00  0.00    -0.152 S 
BRANCH  27  28
ATOM     28  C   UNL     1       5.929  -1.806  -8.800  0.00  0.00    +0.143 C 
BRANCH  28  29
ATOM     29  C   UNL     1       6.877  -2.015  -9.953  0.00  0.00    +0.115 A 
ATOM     30  C   UNL     1       7.781  -3.005 -10.057  0.00  0.00    +0.045 A 
ATOM     31  C   UNL     1       8.450  -2.820 -11.289  0.00  0.00    +0.041 A 
ATOM     32  C   UNL     1       7.914  -1.728 -11.863  0.00  0.00    +0.195 A 
ATOM     33  O   UNL     1       6.958  -1.248 -11.052  0.00  0.00    -0.467 OA
ENDBRANCH  28  29
ENDBRANCH  27  28
ENDBRANCH  26  27
ENDBRANCH  25  26
ENDBRANCH  22  25
ENDBRANCH  19  21
TORSDOF 6
