REMARK  Name = ZINC06078359
REMARK  15 active torsions:
REMARK  status: ('A' for Active; 'I' for Inactive)
REMARK    1  A    between atoms: C_1  and  C_2
REMARK    2  A    between atoms: C_2  and  N_69
REMARK    3  A    between atoms: C_3  and  C_4
REMARK    4  A    between atoms: C_3  and  N_69
REMARK    5  A    between atoms: C_5  and  C_6
REMARK    6  A    between atoms: C_5  and  N_69
REMARK    7  A    between atoms: C_6  and  N_7
REMARK    8  A    between atoms: N_7  and  C_8
REMARK    9  A    between atoms: N_7  and  C_25
REMARK   10  A    between atoms: C_8  and  C_9
REMARK   11  A    between atoms: C_25  and  N_27
REMARK   12  A    between atoms: N_27  and  C_28
REMARK   13  A    between atoms: C_33  and  C_34
REMARK   14  A    between atoms: C_34  and  O_36
REMARK   15  A    between atoms: O_36  and  C_37
REMARK                            x       y       z     vdW  Elec       q    Type
REMARK                         _______ _______ _______ _____ _____    ______ ____
ROOT
ATOM      1  N   UNL     1       0.086  -2.248  -0.124  0.00  0.00    -0.310 N 
ENDROOT
BRANCH   1   2
ATOM      2  C   UNL     1       0.431  -0.950  -0.022  0.00  0.00    +0.137 C 
ATOM      3  S   UNL     1       2.078  -0.513   0.153  0.00  0.00    -0.018 S 
BRANCH   2   4
ATOM      4  N   UNL     1      -0.518   0.006  -0.065  0.00  0.00    -0.296 N 
ATOM      5  H   UNL     1      -1.455  -0.243  -0.094  0.00  0.00    +0.154 HD
BRANCH   4   6
ATOM      6  C   UNL     1      -0.154   1.349  -0.066  0.00  0.00    +0.047 A 
ATOM      7  C   UNL     1       0.859   1.797  -0.904  0.00  0.00    +0.024 A 
ATOM      8  C   UNL     1       1.215   3.130  -0.907  0.00  0.00    +0.002 A 
ATOM      9  C   UNL     1       0.574   4.030  -0.070  0.00  0.00    +0.001 A 
ATOM     10  C   UNL     1      -0.430   3.603   0.772  0.00  0.00    +0.017 A 
ATOM     11  C   UNL     1      -0.805   2.257   0.783  0.00  0.00    +0.080 A 
BRANCH  11  12
ATOM     12  C   UNL     1      -1.878   1.794   1.681  0.00  0.00    +0.341 C 
ATOM     13  O   UNL     1      -2.152   0.612   1.741  0.00  0.00    -0.245 OA
BRANCH  12  14
ATOM     14  O   UNL     1      -2.554   2.682   2.436  0.00  0.00    -0.464 OA
ATOM     15  C   UNL     1      -3.598   2.155   3.298  0.00  0.00    +0.280 C 
ENDBRANCH  12  14
ENDBRANCH  11  12
ENDBRANCH   4   6
ENDBRANCH   2   4
ENDBRANCH   1   2
BRANCH   1  16
ATOM     16  C   UNL     1      -1.328  -2.629  -0.164  0.00  0.00    +0.088 C 
BRANCH  16  17
ATOM     17  C   UNL     1      -1.810  -2.651  -1.615  0.00  0.00    -0.060 C 
BRANCH  17  18
ATOM     18  N   UNL     1      -3.231  -3.058  -1.640  0.00  0.00    +0.380 N 
ATOM     19  H   UNL     1      -3.339  -3.926  -1.103  0.00  0.00    -0.082 HD
BRANCH  18  21
ATOM     20  C   UNL     1      -3.942  -0.695  -1.802  0.00  0.00    -0.017 C 
ATOM     21  C   UNL     1      -4.068  -2.006  -1.024  0.00  0.00    -0.082 C 
ENDBRANCH  18  21
BRANCH  18  22
ATOM     22  C   UNL     1      -3.665  -3.296  -3.033  0.00  0.00    -0.082 C 
ATOM     23  C   UNL     1      -5.058  -3.928  -3.014  0.00  0.00    -0.017 C 
ENDBRANCH  18  22
ENDBRANCH  17  18
ENDBRANCH  16  17
ENDBRANCH   1  16
BRANCH   1  24
ATOM     24  C   UNL     1       1.124  -3.279  -0.196  0.00  0.00    +0.147 C 
BRANCH  24  25
ATOM     25  C   UNL     1       1.394  -3.817   1.186  0.00  0.00    +0.035 A 
ATOM     26  C   UNL     1       2.407  -3.300   1.927  0.00  0.00    +0.020 A 
ATOM     27  C   UNL     1       2.640  -3.839   3.266  0.00  0.00    +0.003 A 
ATOM     28  C   UNL     1       3.668  -3.341   4.076  0.00  0.00    +0.059 A 
ATOM     29  C   UNL     1       3.867  -3.873   5.333  0.00  0.00    +0.163 A 
ATOM     30  C   UNL     1       3.048  -4.905   5.799  0.00  0.00    +0.164 A 
ATOM     31  C   UNL     1       2.030  -5.404   5.004  0.00  0.00    +0.075 A 
ATOM     32  C   UNL     1       1.817  -4.880   3.736  0.00  0.00    +0.053 A 
ATOM     33  N   UNL     1       0.807  -5.366   2.929  0.00  0.00    -0.322 N 
ATOM     34  H   UNL     1       0.223  -6.105   3.263  0.00  0.00    +0.169 HD
ATOM     35  C   UNL     1       0.598  -4.859   1.702  0.00  0.00    +0.254 A 
ATOM     36  O   UNL     1      -0.303  -5.313   1.017  0.00  0.00    -0.268 OA
ATOM     37  O   UNL     1       3.235  -5.433   7.039  0.00  0.00    -0.485 OA
ATOM     38  C   UNL     1       4.495  -5.172   7.666  0.00  0.00    +0.270 C 
ATOM     39  C   UNL     1       4.812  -3.679   7.507  0.00  0.00    +0.270 C 
ATOM     40  O   UNL     1       4.873  -3.380   6.108  0.00  0.00    -0.485 OA
ENDBRANCH  24  25
ENDBRANCH   1  24
TORSDOF 12
