REMARK  Name = ZINC40410400
REMARK  7 active torsions:
REMARK  status: ('A' for Active; 'I' for Inactive)
REMARK    1  A    between atoms: C_1  and  C_2
REMARK    2  A    between atoms: N_4  and  C_5
REMARK    3  A    between atoms: C_5  and  C_6
REMARK    4  A    between atoms: N_9  and  C_13
REMARK    5  A    between atoms: C_16  and  C_20
REMARK    6  A    between atoms: C_23  and  C_26
REMARK    7  A    between atoms: C_26  and  C_34
REMARK                            x       y       z     vdW  Elec       q    Type
REMARK                         _______ _______ _______ _____ _____    ______ ____
ROOT
ATOM      1  C   UNL     1      -4.395  -5.720   1.135  0.00  0.00    +0.042 A 
ATOM      2  C   UNL     1      -3.979  -6.828   0.407  0.00  0.00    +0.024 A 
ATOM      3  C   UNL     1      -4.611  -8.042   0.574  0.00  0.00    +0.013 A 
ATOM      4  C   UNL     1      -5.668  -8.159   1.475  0.00  0.00    +0.019 A 
ATOM      5  C   UNL     1      -6.085  -7.045   2.206  0.00  0.00    +0.133 A 
ATOM      6  C   UNL     1      -5.444  -5.832   2.038  0.00  0.00    +0.062 A 
ATOM      7  F   UNL     1      -7.109  -7.154   3.080  0.00  0.00    -0.205 F 
ENDROOT
BRANCH   1  10
ATOM      8  C   UNL     1      -2.607  -2.670   0.005  0.00  0.00    +0.213 C 
ATOM      9  C   UNL     1      -2.628  -4.217   0.046  0.00  0.00    +0.163 C 
ATOM     10  N   UNL     1      -3.752  -4.490   0.963  0.00  0.00    -0.234 N 
ATOM     11  C   UNL     1      -4.047  -3.343   1.603  0.00  0.00    +0.408 C 
ATOM     12  O   UNL     1      -4.950  -3.236   2.409  0.00  0.00    -0.226 OA
ATOM     13  O   UNL     1      -3.237  -2.328   1.255  0.00  0.00    -0.444 OA
BRANCH   8  14
ATOM     14  C   UNL     1      -1.171  -2.144  -0.044  0.00  0.00    +0.150 C 
BRANCH  14  18
ATOM     15  C   UNL     1      -0.042   1.513  -0.008  0.00  0.00    +0.109 C 
ATOM     16  C   UNL     1      -0.026   0.007  -0.044  0.00  0.00    +0.210 C 
ATOM     17  O   UNL     1       1.029  -0.588  -0.103  0.00  0.00    -0.276 OA
ATOM     18  N   UNL     1      -1.186  -0.680  -0.010  0.00  0.00    -0.312 N 
ATOM     19  H   UNL     1      -2.030  -0.204   0.037  0.00  0.00    +0.149 HD
ENDBRANCH  14  18
ENDBRANCH   8  14
ENDBRANCH   1  10
BRANCH   4  20
ATOM     20  C   UNL     1      -6.349  -9.464   1.656  0.00  0.00    +0.003 A 
ATOM     21  C   UNL     1      -6.558  -9.984   2.937  0.00  0.00    +0.012 A 
ATOM     22  C   UNL     1      -7.199 -11.206   3.052  0.00  0.00    +0.025 A 
ATOM     23  C   UNL     1      -7.608 -11.866   1.908  0.00  0.00    +0.062 A 
ATOM     24  N   UNL     1      -7.396 -11.350   0.713  0.00  0.00    -0.258 NA
ATOM     25  C   UNL     1      -6.797 -10.188   0.553  0.00  0.00    +0.119 A 
BRANCH  23  26
ATOM     26  C   UNL     1      -8.306 -13.196   2.028  0.00  0.00    +0.102 C 
ATOM     27  C   UNL     1      -9.463 -13.475   1.067  0.00  0.00    +0.001 C 
ATOM     28  C   UNL     1      -9.741 -13.194   2.558  0.00  0.00    +0.001 C 
ATOM     29  C   UNL     1     -10.508 -11.854   2.578  0.00  0.00    -0.077 C 
ATOM     30  N   UNL     1     -11.128 -11.758   1.231  0.00  0.00    +0.379 N 
ATOM     31  C   UNL     1     -10.061 -12.287   0.284  0.00  0.00    -0.077 C 
ATOM     32  H   UNL     1     -11.959 -12.328   1.183  0.00  0.00    -0.086 HD
ATOM     33  H   UNL     1     -11.344 -10.798   1.010  0.00  0.00    -0.086 HD
BRANCH  26  34
ATOM     34  C   UNL     1      -7.447 -14.332   2.402  0.00  0.00    +0.076 C 
ATOM     35  N   UNL     1      -6.784 -15.208   2.690  0.00  0.00    -0.196 NA
ENDBRANCH  26  34
ENDBRANCH  23  26
ENDBRANCH   4  20
TORSDOF 6
