REMARK  Name = ZINC02573660
REMARK  8 active torsions:
REMARK  status: ('A' for Active; 'I' for Inactive)
REMARK    1  A    between atoms: C_1  and  C_2
REMARK    2  A    between atoms: C_2  and  O_3
REMARK    3  A    between atoms: O_3  and  C_4
REMARK    4  A    between atoms: C_4  and  C_6
REMARK    5  A    between atoms: C_7  and  N_33
REMARK    6  A    between atoms: N_8  and  C_24
REMARK    7  A    between atoms: C_11  and  C_13
REMARK    8  A    between atoms: C_28  and  N_30
REMARK                            x       y       z     vdW  Elec       q    Type
REMARK                         _______ _______ _______ _____ _____    ______ ____
ROOT
ATOM      1  C   UNL     1       1.116   7.137   0.774  0.00  0.00    +0.085 C 
ATOM      2  C   UNL     1       1.103   6.067  -0.067  0.00  0.00    +0.103 C 
ATOM      3  N   UNL     1      -0.089   5.476  -0.413  0.00  0.00    -0.260 N 
ATOM      4  C   UNL     1      -1.271   6.156  -0.269  0.00  0.00    +0.024 C 
ATOM      5  C   UNL     1      -1.355   7.220   0.558  0.00  0.00    +0.025 C 
ATOM      6  C   UNL     1      -0.158   7.687   1.347  0.00  0.00    +0.101 C 
ATOM      7  C   UNL     1      -2.560   7.931   0.704  0.00  0.00    +0.162 C 
ATOM      8  O   UNL     1      -2.604   8.882   1.459  0.00  0.00    -0.292 OA
ATOM      9  C   UNL     1      -3.794   7.541  -0.073  0.00  0.00    +0.080 C 
ATOM     10  C   UNL     1      -3.374   6.867  -1.383  0.00  0.00    +0.014 C 
ATOM     11  C   UNL     1      -2.472   5.678  -1.049  0.00  0.00    +0.052 C 
ENDROOT
BRANCH   6  12
ATOM     12  C   UNL     1      -0.296   7.226   2.775  0.00  0.00    +0.003 A 
ATOM     13  C   UNL     1      -0.383   7.968   3.906  0.00  0.00    +0.013 A 
ATOM     14  C   UNL     1      -0.507   7.323   5.123  0.00  0.00    +0.023 A 
ATOM     15  C   UNL     1      -0.538   5.968   5.148  0.00  0.00    +0.055 A 
ATOM     16  S   UNL     1      -0.397   5.563   3.415  0.00  0.00    -0.085 S 
ATOM     17 BR   UNL     1      -0.696   4.808   6.633  0.00  0.00    -0.043 Br
ENDBRANCH   6  12
BRANCH   3  18
ATOM     18  C   UNL     1      -0.096   4.172  -0.921  0.00  0.00    +0.042 A 
ATOM     19  C   UNL     1       0.395   3.919  -2.196  0.00  0.00    +0.024 A 
ATOM     20  C   UNL     1       0.391   2.630  -2.692  0.00  0.00    +0.004 A 
ATOM     21  C   UNL     1      -0.109   1.594  -1.925  0.00  0.00    +0.033 A 
ATOM     22  C   UNL     1      -0.598   1.842  -0.656  0.00  0.00    +0.128 A 
ATOM     23  C   UNL     1      -0.593   3.128  -0.152  0.00  0.00    +0.056 A 
BRANCH  22  24
ATOM     24  N   UNL     1      -1.128   0.729   0.163  0.00  0.00    +0.056 N 
ATOM     25  O   UNL     1      -1.132  -0.405  -0.281  0.00  0.00    -0.126 OA
ATOM     26  O   UNL     1      -1.558   0.947   1.282  0.00  0.00    -0.126 OA
ENDBRANCH  22  24
ENDBRANCH   3  18
BRANCH   2  27
ATOM     27  N   UNL     1       2.280   5.577  -0.571  0.00  0.00    -0.346 N 
ATOM     28  H   UNL     1       2.271   4.713  -1.251  0.00  0.00    +0.143 HD
ATOM     29  H   UNL     1       3.235   6.049  -0.294  0.00  0.00    +0.143 HD
ENDBRANCH   2  27
BRANCH   1  30
ATOM     30  C   UNL     1       2.338   7.734   1.112  0.00  0.00    +0.339 C 
ATOM     31  O   UNL     1       3.385   7.229   0.747  0.00  0.00    -0.245 OA
BRANCH  30  32
ATOM     32  O   UNL     1       2.356   8.870   1.843  0.00  0.00    -0.462 OA
BRANCH  32  34
ATOM     33  C   UNL     1       3.457  10.698   2.977  0.00  0.00    +0.048 C 
ATOM     34  C   UNL     1       3.637   9.424   2.150  0.00  0.00    +0.229 C 
ENDBRANCH  32  34
ENDBRANCH  30  32
ENDBRANCH   1  30
TORSDOF 7
