REMARK  Name = ZINC35464966
REMARK  20 active torsions:
REMARK  status: ('A' for Active; 'I' for Inactive)
REMARK    1  A    between atoms: C_1  and  C_2
REMARK    2  A    between atoms: C_2  and  C_3
REMARK    3  A    between atoms: C_3  and  C_5
REMARK    4  A    between atoms: C_3  and  C_6
REMARK    5  A    between atoms: C_6  and  O_8
REMARK    6  A    between atoms: O_8  and  C_9
REMARK    7  A    between atoms: C_14  and  C_40
REMARK    8  A    between atoms: C_14  and  C_41
REMARK    9  A    between atoms: C_15  and  C_39
REMARK   10  A    between atoms: C_17  and  O_38
REMARK   11  A    between atoms: C_19  and  O_37
REMARK   12  A    between atoms: C_22  and  O_33
REMARK   13  A    between atoms: C_25  and  O_29
REMARK   14  A    between atoms: O_29  and  C_30
REMARK   15  A    between atoms: C_30  and  C_32
REMARK   16  A    between atoms: O_33  and  C_34
REMARK   17  A    between atoms: C_34  and  C_36
REMARK   18  A    between atoms: C_41  and  C_42
REMARK   19  A    between atoms: C_42  and  C_43
REMARK   20  A    between atoms: C_43  and  C_45
REMARK                            x       y       z     vdW  Elec       q    Type
REMARK                         _______ _______ _______ _____ _____    ______ ____
ROOT
ATOM      1  C   UNL     1       2.704  -4.476  -1.964  0.00  0.00    +0.200 C 
ATOM      2  C   UNL     1       3.710  -4.867  -3.053  0.00  0.00    +0.054 C 
ATOM      3  C   UNL     1       3.250  -4.437  -4.438  0.00  0.00    +0.018 C 
ATOM      4  C   UNL     1       3.991  -3.240  -4.965  0.00  0.00    -0.023 C 
ATOM      5  C   UNL     1       3.160  -2.365  -5.894  0.00  0.00    +0.023 C 
ATOM      6  C   UNL     1       1.818  -2.027  -5.261  0.00  0.00    +0.147 C 
ATOM      7  C   UNL     1       1.003  -3.273  -4.996  0.00  0.00    +0.160 C 
ATOM      8  C   UNL     1       1.770  -4.529  -4.651  0.00  0.00    +0.092 C 
ATOM      9  C   UNL     1       1.476  -5.550  -5.800  0.00  0.00    +0.327 C 
ATOM     10  O   UNL     1       0.088  -5.881  -5.576  0.00  0.00    -0.297 OA
ATOM     11  C   UNL     1      -0.112  -5.939  -4.150  0.00  0.00    +0.343 C 
ATOM     12  C   UNL     1       1.068  -5.252  -3.510  0.00  0.00    +0.012 C 
ATOM     13  C   UNL     1       1.438  -5.261  -2.263  0.00  0.00    +0.023 C 
ATOM     14  C   UNL     1       3.935  -1.073  -6.190  0.00  0.00    +0.011 C 
ATOM     15  C   UNL     1       4.580  -2.368  -3.863  0.00  0.00    +0.012 C 
ENDROOT
BRANCH   7  16
ATOM     16  O   UNL     1       0.099  -2.984  -3.918  0.00  0.00    -0.388 OA
ATOM     17  H   UNL     1      -0.513  -2.258  -4.101  0.00  0.00    +0.210 HD
ENDBRANCH   7  16
BRANCH   6  18
ATOM     18  O   UNL     1       1.962  -1.256  -4.069  0.00  0.00    -0.389 OA
ATOM     19  H   UNL     1       1.128  -1.076  -3.614  0.00  0.00    +0.210 HD
ENDBRANCH   6  18
BRANCH   1  20
ATOM     20  O   UNL     1       2.430  -3.079  -1.964  0.00  0.00    -0.457 OA
BRANCH  20  21
ATOM     21  C   UNL     1       3.051  -2.336  -1.035  0.00  0.00    +0.310 C 
ATOM     22  O   UNL     1       3.874  -2.841  -0.308  0.00  0.00    -0.251 OA
BRANCH  21  23
ATOM     23  C   UNL     1       2.723  -0.872  -0.898  0.00  0.00    +0.094 C 
ATOM     24  C   UNL     1       1.283  -0.716  -0.403  0.00  0.00    +0.019 C 
BRANCH  23  26
ATOM     25  C   UNL     1       3.428   1.283   0.153  0.00  0.00    +0.004 C 
ATOM     26  C   UNL     1       3.680  -0.226   0.106  0.00  0.00    +0.011 C 
ENDBRANCH  23  26
ENDBRANCH  21  23
ENDBRANCH  20  21
ENDBRANCH   1  20
BRANCH  11  27
ATOM     27  O   UNL     1      -1.333  -5.287  -3.796  0.00  0.00    -0.431 OA
BRANCH  27  28
ATOM     28  C   UNL     1      -2.475  -5.910  -4.128  0.00  0.00    +0.306 C 
ATOM     29  O   UNL     1      -2.438  -6.973  -4.702  0.00  0.00    -0.251 OA
ATOM     30  C   UNL     1      -3.802  -5.283  -3.787  0.00  0.00    +0.136 C 
ENDBRANCH  27  28
ENDBRANCH  11  27
BRANCH   9  31
ATOM     31  O   UNL     1       1.660  -4.954  -7.082  0.00  0.00    -0.434 OA
BRANCH  31  32
ATOM     32  C   UNL     1       1.538  -5.757  -8.150  0.00  0.00    +0.306 C 
ATOM     33  O   UNL     1       1.284  -6.929  -7.999  0.00  0.00    -0.251 OA
ATOM     34  C   UNL     1       1.719  -5.198  -9.538  0.00  0.00    +0.136 C 
ENDBRANCH  31  32
ENDBRANCH   9  31
BRANCH   4  35
ATOM     35  C   UNL     1       5.175  -3.770  -5.805  0.00  0.00    +0.012 C 
BRANCH  35  36
ATOM     36  C   UNL     1       6.033  -4.702  -4.945  0.00  0.00    +0.035 C 
BRANCH  36  37
ATOM     37  C   UNL     1       7.255  -5.119  -5.723  0.00  0.00    -0.055 C 
ATOM     38  C   UNL     1       8.395  -4.453  -5.576  0.00  0.00    +0.012 C 
BRANCH  37  39
ATOM     39  C   UNL     1       7.185  -6.264  -6.644  0.00  0.00    -0.005 C 
ATOM     40  C   UNL     1       6.045  -6.930  -6.790  0.00  0.00    +0.009 C 
ENDBRANCH  37  39
ENDBRANCH  36  37
ENDBRANCH  35  36
ENDBRANCH   4  35
TORSDOF 14
