REMARK  Name = ZINC08437700
REMARK  9 active torsions:
REMARK  status: ('A' for Active; 'I' for Inactive)
REMARK    1  A    between atoms: C_1  and  C_2
REMARK    2  A    between atoms: C_2  and  C_37
REMARK    3  A    between atoms: C_6  and  C_26
REMARK    4  A    between atoms: C_8  and  C_18
REMARK    5  A    between atoms: C_9  and  N_17
REMARK    6  A    between atoms: N_10  and  C_11
REMARK    7  A    between atoms: C_18  and  C_20
REMARK    8  A    between atoms: C_29  and  S_32
REMARK    9  A    between atoms: S_32  and  C_33
REMARK                            x       y       z     vdW  Elec       q    Type
REMARK                         _______ _______ _______ _____ _____    ______ ____
ROOT
ATOM      1  C   UNL     1       9.480   4.108   2.074  0.00  0.00    +0.011 C 
ATOM      2  C   UNL     1       8.916   3.073   3.050  0.00  0.00    -0.023 C 
ATOM      3  C   UNL     1       8.631   1.767   2.305  0.00  0.00    +0.058 C 
ATOM      4  C   UNL     1       7.602   2.011   1.229  0.00  0.00    +0.025 C 
ATOM      5  C   UNL     1       6.649   2.954   1.380  0.00  0.00    +0.025 C 
ATOM      6  C   UNL     1       5.612   3.190   0.311  0.00  0.00    +0.091 C 
ATOM      7  C   UNL     1       6.047   2.610  -1.002  0.00  0.00    +0.048 C 
ATOM      8  C   UNL     1       7.044   1.669  -1.063  0.00  0.00    +0.100 C 
ATOM      9  N   UNL     1       7.662   1.250   0.090  0.00  0.00    -0.259 N 
ATOM     10  C   UNL     1       6.594   3.749   2.539  0.00  0.00    +0.162 C 
ATOM     11  O   UNL     1       5.716   4.582   2.649  0.00  0.00    -0.292 OA
ATOM     12  C   UNL     1       7.601   3.589   3.644  0.00  0.00    +0.086 C 
ATOM     13  C   UNL     1       9.925   2.821   4.172  0.00  0.00    +0.011 C 
ENDROOT
BRANCH   9  14
ATOM     14  C   UNL     1       8.359   0.036   0.102  0.00  0.00    +0.058 A 
ATOM     15  C   UNL     1       9.651  -0.042  -0.413  0.00  0.00    +0.027 A 
ATOM     16  C   UNL     1      10.300  -1.265  -0.378  0.00  0.00    +0.021 A 
ATOM     17  C   UNL     1       9.650  -2.359   0.163  0.00  0.00    +0.111 A 
ATOM     18  N   UNL     1       8.427  -2.252   0.643  0.00  0.00    -0.261 NA
ATOM     19  C   UNL     1       7.775  -1.106   0.633  0.00  0.00    +0.134 A 
ENDBRANCH   9  14
BRANCH   6  20
ATOM     20  C   UNL     1       4.316   2.545   0.731  0.00  0.00    -0.035 A 
ATOM     21  C   UNL     1       3.176   3.316   0.873  0.00  0.00    +0.005 A 
ATOM     22  C   UNL     1       1.987   2.728   1.256  0.00  0.00    +0.015 A 
ATOM     23  C   UNL     1       1.936   1.361   1.500  0.00  0.00    +0.008 A 
ATOM     24  C   UNL     1       3.084   0.591   1.362  0.00  0.00    +0.015 A 
ATOM     25  C   UNL     1       4.268   1.184   0.972  0.00  0.00    +0.005 A 
BRANCH  23  26
ATOM     26  S   UNL     1       0.420   0.607   1.989  0.00  0.00    -0.129 S 
ATOM     27  C   UNL     1       0.845  -1.146   2.184  0.00  0.00    +0.090 C 
ENDBRANCH  23  26
ENDBRANCH   6  20
BRANCH   8  28
ATOM     28  N   UNL     1       7.423   1.147  -2.272  0.00  0.00    -0.346 N 
ATOM     29  H   UNL     1       8.025   0.387  -2.305  0.00  0.00    +0.143 HD
ATOM     30  H   UNL     1       7.089   1.537  -3.095  0.00  0.00    +0.143 HD
ENDBRANCH   8  28
BRANCH   7  31
ATOM     31  C   UNL     1       5.426   3.036  -2.186  0.00  0.00    +0.193 C 
ATOM     32  O   UNL     1       4.800   2.240  -2.866  0.00  0.00    -0.287 OA
BRANCH  31  33
ATOM     33  C   UNL     1       5.531   4.451  -2.609  0.00  0.00    +0.022 A 
ATOM     34  C   UNL     1       6.329   5.340  -1.889  0.00  0.00    +0.012 A 
ATOM     35  C   UNL     1       6.426   6.656  -2.292  0.00  0.00    +0.001 A 
ATOM     36  C   UNL     1       5.726   7.097  -3.401  0.00  0.00    +0.000 A 
ATOM     37  C   UNL     1       4.929   6.221  -4.116  0.00  0.00    +0.001 A 
ATOM     38  C   UNL     1       4.827   4.902  -3.726  0.00  0.00    +0.012 A 
ENDBRANCH  31  33
ENDBRANCH   7  31
TORSDOF 6
