REMARK  Name = ZINC03992526
REMARK  8 active torsions:
REMARK  status: ('A' for Active; 'I' for Inactive)
REMARK    1  A    between atoms: C_1  and  C_2
REMARK    2  A    between atoms: C_2  and  C_3
REMARK    3  A    between atoms: C_2  and  C_4
REMARK    4  A    between atoms: C_8  and  O_11
REMARK    5  A    between atoms: C_9  and  O_10
REMARK    6  A    between atoms: C_12  and  C_24
REMARK    7  A    between atoms: C_16  and  C_22
REMARK    8  A    between atoms: C_16  and  C_23
REMARK                            x       y       z     vdW  Elec       q    Type
REMARK                         _______ _______ _______ _____ _____    ______ ____
ROOT
ATOM      1  C   UNL     1       1.393  -0.838  -4.769  0.00  0.00    +0.001 A 
ATOM      2  C   UNL     1       2.067  -0.494  -3.621  0.00  0.00    +0.019 A 
ATOM      3  C   UNL     1       1.426   0.261  -2.629  0.00  0.00    +0.025 A 
ATOM      4  C   UNL     1       0.084   0.646  -2.777  0.00  0.00    +0.014 A 
ATOM      5  C   UNL     1      -0.573   0.307  -3.941  0.00  0.00    +0.163 A 
ATOM      6  C   UNL     1       0.076  -0.439  -4.933  0.00  0.00    +0.162 A 
ATOM      7  C   UNL     1      -0.600   1.428  -1.674  0.00  0.00    +0.001 C 
ATOM      8  C   UNL     1      -2.089   1.104  -1.622  0.00  0.00    +0.012 C 
ATOM      9  C   UNL     1      -2.751   1.772  -0.414  0.00  0.00    +0.001 C 
ATOM     10  C   UNL     1      -2.115   1.271   0.875  0.00  0.00    +0.007 C 
ATOM     11  C   UNL     1      -0.618   1.588   0.903  0.00  0.00    -0.031 C 
ATOM     12  C   UNL     1       0.072   1.101  -0.352  0.00  0.00    +0.012 C 
ATOM     13  C   UNL     1       1.548   1.510  -0.391  0.00  0.00    +0.084 C 
ATOM     14  C   UNL     1       2.203   0.624  -1.433  0.00  0.00    +0.164 C 
ATOM     15  O   UNL     1       3.340   0.226  -1.281  0.00  0.00    -0.292 OA
ATOM     16  C   UNL     1      -0.028   0.826   2.113  0.00  0.00    +0.011 C 
ATOM     17  C   UNL     1      -0.403   3.079   1.154  0.00  0.00    +0.011 C 
ATOM     18  C   UNL     1      -0.440   2.909  -2.033  0.00  0.00    +0.016 C 
ENDROOT
BRANCH   1  20
ATOM     19  C   UNL     1       3.307  -0.866  -6.345  0.00  0.00    +0.012 C 
ATOM     20  C   UNL     1       2.085  -1.637  -5.842  0.00  0.00    +0.017 C 
ATOM     21  C   UNL     1       2.532  -2.983  -5.268  0.00  0.00    +0.012 C 
ENDBRANCH   1  20
BRANCH   6  22
ATOM     22  O   UNL     1      -0.598  -0.767  -6.064  0.00  0.00    -0.503 OA
ATOM     23  H   UNL     1      -0.516  -0.114  -6.774  0.00  0.00    +0.292 HD
ENDBRANCH   6  22
BRANCH   5  24
ATOM     24  O   UNL     1      -1.858   0.668  -4.195  0.00  0.00    -0.503 OA
ATOM     25  H   UNL     1      -1.946   1.519  -4.646  0.00  0.00    +0.292 HD
ENDBRANCH   5  24
TORSDOF 3
