REMARK  Name = ZINC20152886
REMARK  9 active torsions:
REMARK  status: ('A' for Active; 'I' for Inactive)
REMARK    1  A    between atoms: C_1  and  C_2
REMARK    2  A    between atoms: C_5  and  N_9
REMARK    3  A    between atoms: C_10  and  C_12
REMARK    4  A    between atoms: C_12  and  N_13
REMARK    5  A    between atoms: N_22  and  C_25
REMARK    6  A    between atoms: C_25  and  C_26
REMARK    7  A    between atoms: C_26  and  C_27
REMARK    8  A    between atoms: N_29  and  C_30
REMARK    9  A    between atoms: C_30  and  C_31
REMARK                            x       y       z     vdW  Elec       q    Type
REMARK                         _______ _______ _______ _____ _____    ______ ____
ROOT
ATOM      1  N   UNL     1      -1.333  -2.104   0.046  0.00  0.00    -0.284 N 
ATOM      2  C   UNL     1      -1.386  -2.756  -1.177  0.00  0.00    +0.059 A 
ATOM      3  C   UNL     1      -1.577  -2.062  -2.362  0.00  0.00    +0.027 A 
ATOM      4  C   UNL     1      -1.624  -2.748  -3.559  0.00  0.00    +0.002 A 
ATOM      5  C   UNL     1      -1.482  -4.127  -3.588  0.00  0.00    +0.001 A 
ATOM      6  C   UNL     1      -1.279  -4.833  -2.421  0.00  0.00    +0.015 A 
ATOM      7  C   UNL     1      -1.236  -4.153  -1.206  0.00  0.00    +0.063 A 
ATOM      8  C   UNL     1      -1.040  -4.860   0.072  0.00  0.00    +0.264 A 
ATOM      9  O   UNL     1      -0.909  -6.068   0.103  0.00  0.00    -0.267 OA
ATOM     10  N   UNL     1      -1.009  -4.130   1.208  0.00  0.00    -0.260 N 
ATOM     11  C   UNL     1      -1.153  -2.796   1.184  0.00  0.00    +0.333 A 
ATOM     12  O   UNL     1      -1.117  -2.188   2.236  0.00  0.00    -0.246 OA
ENDROOT
BRANCH   1  13
ATOM     13  C   UNL     1      -1.482  -0.647   0.099  0.00  0.00    +0.222 C 
BRANCH  13  15
ATOM     14  N   UNL     1      -0.016   1.344   0.009  0.00  0.00    -0.283 N 
ATOM     15  C   UNL     1      -0.126   0.001  -0.015  0.00  0.00    +0.237 C 
ATOM     16  O   UNL     1       0.867  -0.687  -0.130  0.00  0.00    -0.274 OA
ATOM     17  H   UNL     1      -0.921   1.969   0.039  0.00  0.00    +0.155 HD
BRANCH  14  22
ATOM     18  C   UNL     1       5.111   3.774  -0.042  0.00  0.00    +0.044 C 
ATOM     19  C   UNL     1       3.749   3.128  -0.028  0.00  0.00    -0.049 A 
ATOM     20  C   UNL     1       3.534   1.956  -0.729  0.00  0.00    +0.005 A 
ATOM     21  C   UNL     1       2.287   1.362  -0.718  0.00  0.00    +0.025 A 
ATOM     22  C   UNL     1       1.249   1.943  -0.003  0.00  0.00    +0.052 A 
ATOM     23  C   UNL     1       1.466   3.124   0.697  0.00  0.00    +0.062 A 
ATOM     24  C   UNL     1       2.718   3.711   0.685  0.00  0.00    +0.025 A 
ATOM     25 CL   UNL     1       0.170   3.858   1.587  0.00  0.00    -0.082 Cl
ENDBRANCH  14  22
ENDBRANCH  13  15
ENDBRANCH   1  13
BRANCH  10  26
ATOM     26  C   UNL     1      -0.816  -4.809   2.493  0.00  0.00    +0.139 C 
BRANCH  26  27
ATOM     27  C   UNL     1      -2.176  -5.196   3.075  0.00  0.00    +0.117 C 
BRANCH  27  28
ATOM     28  C   UNL     1      -1.977  -5.894   4.396  0.00  0.00    +0.215 C 
ATOM     29  O   UNL     1      -0.857  -6.065   4.829  0.00  0.00    -0.276 OA
ATOM     30  N   UNL     1      -3.043  -6.328   5.097  0.00  0.00    -0.308 N 
ATOM     31  H   UNL     1      -4.059  -6.173   4.704  0.00  0.00    +0.149 HD
BRANCH  30  32
ATOM     32  C   UNL     1      -2.849  -7.006   6.381  0.00  0.00    +0.178 C 
BRANCH  32  33
ATOM     33  C   UNL     1      -4.189  -7.387   6.955  0.00  0.00    +0.122 A 
ATOM     34  C   UNL     1      -4.837  -8.547   6.739  0.00  0.00    +0.046 A 
ATOM     35  C   UNL     1      -6.048  -8.481   7.465  0.00  0.00    +0.041 A 
ATOM     36  C   UNL     1      -6.069  -7.285   8.081  0.00  0.00    +0.195 A 
ATOM     37  O   UNL     1      -4.938  -6.630   7.773  0.00  0.00    -0.466 OA
ENDBRANCH  32  33
ENDBRANCH  30  32
ENDBRANCH  27  28
ENDBRANCH  26  27
ENDBRANCH  10  26
TORSDOF 8
