REMARK  Name = ZINC33033284
REMARK  6 active torsions:
REMARK  status: ('A' for Active; 'I' for Inactive)
REMARK    1  A    between atoms: C_1  and  C_2
REMARK    2  A    between atoms: C_8  and  C_10
REMARK    3  A    between atoms: C_13  and  N_25
REMARK    4  A    between atoms: C_14  and  N_16
REMARK    5  A    between atoms: N_16  and  S_17
REMARK    6  A    between atoms: S_17  and  C_20
REMARK                            x       y       z     vdW  Elec       q    Type
REMARK                         _______ _______ _______ _____ _____    ______ ____
ROOT
ATOM      1  C   UNL     1      -0.229  -4.048   3.015  0.00  0.00    +0.039 A 
ATOM      2  C   UNL     1       1.077  -3.594   3.212  0.00  0.00    +0.015 A 
ATOM      3  C   UNL     1       1.856  -4.141   4.207  0.00  0.00    +0.026 A 
ATOM      4  C   UNL     1       1.345  -5.148   5.019  0.00  0.00    +0.054 A 
ATOM      5  C   UNL     1       0.039  -5.607   4.827  0.00  0.00    +0.096 A 
ATOM      6  C   UNL     1      -0.748  -5.056   3.834  0.00  0.00    +0.041 A 
ENDROOT
BRANCH   1  14
ATOM      7  C   UNL     1       0.004  -5.196  -3.108  0.00  0.00    +0.007 C 
ATOM      8  C   UNL     1       0.006  -4.197  -1.949  0.00  0.00    -0.011 C 
ATOM      9  C   UNL     1       0.764  -4.795  -0.762  0.00  0.00    +0.022 C 
ATOM     10  C   UNL     1       0.794  -3.779   0.384  0.00  0.00    +0.108 C 
ATOM     11  N   UNL     1      -0.585  -3.372   0.691  0.00  0.00    -0.298 N 
ATOM     12  C   UNL     1      -1.432  -2.868  -0.398  0.00  0.00    +0.108 C 
ATOM     13  C   UNL     1      -1.436  -3.894  -1.535  0.00  0.00    +0.022 C 
ATOM     14  C   UNL     1      -1.063  -3.461   1.948  0.00  0.00    +0.247 C 
ATOM     15  O   UNL     1      -2.181  -3.057   2.203  0.00  0.00    -0.270 OA
ENDBRANCH   1  14
BRANCH   4  16
ATOM     16  N   UNL     1       2.136  -5.699   6.024  0.00  0.00    -0.332 N 
ATOM     17  C   UNL     1       2.994  -6.864   5.758  0.00  0.00    +0.086 C 
ATOM     18  C   UNL     1       4.407  -6.552   6.264  0.00  0.00    -0.063 C 
ATOM     19  N   UNL     1       4.343  -6.156   7.677  0.00  0.00    +0.381 N 
ATOM     20  C   UNL     1       3.590  -4.903   7.812  0.00  0.00    -0.063 C 
ATOM     21  C   UNL     1       2.141  -5.130   7.381  0.00  0.00    +0.086 C 
ATOM     22  H   UNL     1       3.885  -6.882   8.208  0.00  0.00    -0.086 HD
ATOM     23  H   UNL     1       5.279  -6.024   8.030  0.00  0.00    -0.086 HD
ENDBRANCH   4  16
BRANCH   5  24
ATOM     24  N   UNL     1      -0.474  -6.621   5.645  0.00  0.00    -0.095 NA
BRANCH  24  25
ATOM     25  S   UNL     1      -2.022  -7.165   5.418  0.00  0.00    +0.098 S 
ATOM     26  O   UNL     1      -2.884  -6.085   5.746  0.00  0.00    -0.148 OA
ATOM     27  O   UNL     1      -2.046  -7.800   4.146  0.00  0.00    -0.148 OA
BRANCH  25  28
ATOM     28  C   UNL     1      -2.312  -8.425   6.615  0.00  0.00    +0.148 A 
ATOM     29  C   UNL     1      -2.813  -8.311   7.870  0.00  0.00    +0.037 A 
ATOM     30  C   UNL     1      -2.956  -9.449   8.640  0.00  0.00    +0.010 A 
ATOM     31  C   UNL     1      -2.592 -10.646   8.119  0.00  0.00    +0.047 A 
ATOM     32  S   UNL     1      -2.032 -10.183   6.488  0.00  0.00    -0.077 S 
ENDBRANCH  25  28
ENDBRANCH  24  25
ENDBRANCH   5  24
TORSDOF 5
