REMARK  Name = ZINC35760667
REMARK  13 active torsions:
REMARK  status: ('A' for Active; 'I' for Inactive)
REMARK    1  A    between atoms: C_1  and  C_2
REMARK    2  A    between atoms: C_2  and  C_3
REMARK    3  A    between atoms: C_3  and  N_4
REMARK    4  A    between atoms: N_4  and  C_5
REMARK    5  A    between atoms: N_4  and  C_24
REMARK    6  A    between atoms: C_5  and  C_6
REMARK    7  A    between atoms: C_7  and  C_18
REMARK    8  A    between atoms: C_10  and  N_11
REMARK    9  A    between atoms: C_14  and  C_17
REMARK   10  A    between atoms: C_24  and  C_25
REMARK   11  A    between atoms: C_25  and  C_27
REMARK   12  A    between atoms: C_25  and  O_34
REMARK   13  A    between atoms: C_27  and  N_28
REMARK                            x       y       z     vdW  Elec       q    Type
REMARK                         _______ _______ _______ _____ _____    ______ ____
ROOT
ATOM      1  C   UNL     1       0.521  -1.693  -1.010  0.00  0.00    +0.025 A 
ATOM      2  C   UNL     1      -0.295  -2.415  -1.907  0.00  0.00    +0.117 A 
ATOM      3  N   UNL     1      -0.429  -1.698  -2.998  0.00  0.00    -0.076 NA
ATOM      4  O   UNL     1       0.299  -0.496  -2.825  0.00  0.00    -0.339 OA
ATOM      5  C   UNL     1       0.861  -0.522  -1.605  0.00  0.00    +0.222 A 
ENDROOT
BRANCH   5   6
ATOM      6  N   UNL     1       1.650   0.470  -1.052  0.00  0.00    -0.299 N 
ATOM      7  C   UNL     1       3.092   0.522  -1.330  0.00  0.00    +0.108 C 
ATOM      8  C   UNL     1       3.443   1.918  -1.855  0.00  0.00    +0.022 C 
ATOM      9  C   UNL     1       2.957   2.971  -0.857  0.00  0.00    -0.011 C 
ATOM     10  C   UNL     1       1.436   2.878  -0.714  0.00  0.00    +0.022 C 
ATOM     11  C   UNL     1       1.061   1.496  -0.181  0.00  0.00    +0.108 C 
ATOM     12  C   UNL     1       3.337   4.365  -1.362  0.00  0.00    +0.007 C 
ENDBRANCH   5   6
BRANCH   2  13
ATOM     13  C   UNL     1      -0.895  -3.750  -1.660  0.00  0.00    +0.004 A 
ATOM     14  C   UNL     1      -0.140  -4.757  -1.063  0.00  0.00    +0.010 A 
ATOM     15  C   UNL     1      -0.703  -5.996  -0.835  0.00  0.00    +0.001 A 
ATOM     16  C   UNL     1      -2.015  -6.239  -1.199  0.00  0.00    +0.000 A 
ATOM     17  C   UNL     1      -2.770  -5.244  -1.792  0.00  0.00    +0.001 A 
ATOM     18  C   UNL     1      -2.218  -3.999  -2.020  0.00  0.00    +0.010 A 
ENDBRANCH   2  13
BRANCH   1  19
ATOM     19  C   UNL     1       0.935  -2.142   0.367  0.00  0.00    -0.035 C 
BRANCH  19  20
ATOM     20  N   UNL     1       0.028  -1.560   1.365  0.00  0.00    +0.384 N 
ATOM     21  H   UNL     1       0.002  -0.557   1.252  0.00  0.00    -0.081 HD
BRANCH  20  22
ATOM     22  C   UNL     1       0.509  -1.887   2.714  0.00  0.00    -0.079 C 
BRANCH  22  24
ATOM     23  C   UNL     1       2.290  -1.429   4.406  0.00  0.00    +0.002 C 
ATOM     24  C   UNL     1       1.854  -1.200   2.957  0.00  0.00    -0.022 C 
ENDBRANCH  22  24
ENDBRANCH  20  22
BRANCH  20  25
ATOM     25  C   UNL     1      -1.321  -2.109   1.180  0.00  0.00    -0.045 C 
BRANCH  25  26
ATOM     26  C   UNL     1      -2.292  -1.412   2.136  0.00  0.00    +0.112 C 
BRANCH  26  27
ATOM     27  O   UNL     1      -2.395  -0.030   1.787  0.00  0.00    -0.392 OA
ATOM     28  H   UNL     1      -2.718   0.125   0.889  0.00  0.00    +0.210 HD
ENDBRANCH  26  27
BRANCH  26  29
ATOM     29  C   UNL     1      -3.670  -2.069   2.032  0.00  0.00    +0.114 C 
BRANCH  29  30
ATOM     30  N   UNL     1      -4.601  -1.400   2.950  0.00  0.00    -0.296 NA
ATOM     31  C   UNL     1      -4.217  -1.629   4.351  0.00  0.00    +0.112 C 
ATOM     32  C   UNL     1      -5.176  -0.867   5.269  0.00  0.00    +0.175 C 
ATOM     33  O   UNL     1      -6.517  -1.284   5.000  0.00  0.00    -0.377 OA
ATOM     34  C   UNL     1      -6.925  -1.075   3.646  0.00  0.00    +0.175 C 
ATOM     35  C   UNL     1      -5.984  -1.839   2.711  0.00  0.00    +0.112 C 
ENDBRANCH  29  30
ENDBRANCH  26  29
ENDBRANCH  25  26
ENDBRANCH  20  25
ENDBRANCH  19  20
ENDBRANCH   1  19
TORSDOF 11
