REMARK  Name = ZINC62496416
REMARK  5 active torsions:
REMARK  status: ('A' for Active; 'I' for Inactive)
REMARK    1  A    between atoms: C_5  and  C_7
REMARK    2  A    between atoms: C_7  and  C_8
REMARK    3  A    between atoms: N_12  and  C_21
REMARK    4  A    between atoms: C_15  and  N_20
REMARK    5  A    between atoms: C_21  and  C_22
REMARK                            x       y       z     vdW  Elec       q    Type
REMARK                         _______ _______ _______ _____ _____    ______ ____
ROOT
ATOM      1  C   UNL     1       1.375  -2.703   1.411  0.00  0.00    +0.264 C 
ATOM      2  C   UNL     1       1.520  -4.203   1.391  0.00  0.00    +0.262 C 
ATOM      3  O   UNL     1       2.623  -4.708   1.366  0.00  0.00    -0.271 OA
ATOM      4  N   UNL     1       0.418  -4.983   1.401  0.00  0.00    -0.251 N 
ATOM      5  C   UNL     1      -0.840  -4.386   1.557  0.00  0.00    +0.081 A 
ATOM      6  C   UNL     1      -1.997  -5.119   1.345  0.00  0.00    +0.050 A 
ATOM      7  C   UNL     1      -3.236  -4.511   1.490  0.00  0.00    +0.027 A 
ATOM      8  C   UNL     1      -3.315  -3.171   1.846  0.00  0.00    +0.026 A 
ATOM      9  C   UNL     1      -2.161  -2.441   2.063  0.00  0.00    +0.049 A 
ATOM     10  C   UNL     1      -0.923  -3.045   1.925  0.00  0.00    +0.143 A 
ATOM     11  O   UNL     1       0.216  -2.342   2.167  0.00  0.00    -0.477 OA
ENDROOT
BRANCH   7  12
ATOM     12  N   UNL     1      -4.406  -5.248   1.278  0.00  0.00    -0.358 N 
ATOM     13  H   UNL     1      -4.352  -6.184   1.029  0.00  0.00    +0.142 HD
ATOM     14  H   UNL     1      -5.272  -4.823   1.380  0.00  0.00    +0.142 HD
ENDBRANCH   7  12
BRANCH   1  15
ATOM     15  C   UNL     1       1.228  -2.186  -0.022  0.00  0.00    +0.092 C 
BRANCH  15  20
ATOM     16  C   UNL     1      -0.017   1.378   0.010  0.00  0.00    +0.000 A 
ATOM     17  C   UNL     1       1.171   2.087   0.002  0.00  0.00    +0.003 A 
ATOM     18  C   UNL     1       2.377   1.414  -0.013  0.00  0.00    +0.038 A 
ATOM     19  C   UNL     1       2.397   0.029  -0.021  0.00  0.00    +0.127 A 
ATOM     20  C   UNL     1       1.208  -0.679  -0.013  0.00  0.00    -0.008 A 
ATOM     21  C   UNL     1       0.002  -0.004   0.002  0.00  0.00    +0.006 A 
ATOM     22  F   UNL     1       3.577  -0.630  -0.036  0.00  0.00    -0.205 F 
ENDBRANCH  15  20
ENDBRANCH   1  15
BRANCH   4  23
ATOM     23  C   UNL     1       0.537  -6.435   1.250  0.00  0.00    +0.232 C 
BRANCH  23  24
ATOM     24  C   UNL     1       0.684  -7.056   2.576  0.00  0.00    +0.082 C 
ATOM     25  N   UNL     1       0.797  -7.535   3.600  0.00  0.00    -0.195 NA
ENDBRANCH  23  24
ENDBRANCH   4  23
TORSDOF 5
