REMARK  Name = ZINC65136873
REMARK  6 active torsions:
REMARK  status: ('A' for Active; 'I' for Inactive)
REMARK    1  A    between atoms: C_4  and  N_7
REMARK    2  A    between atoms: C_14  and  C_17
REMARK    3  A    between atoms: C_17  and  C_18
REMARK    4  A    between atoms: C_18  and  C_19
REMARK    5  A    between atoms: N_21  and  C_22
REMARK    6  A    between atoms: C_22  and  C_23
REMARK                            x       y       z     vdW  Elec       q    Type
REMARK                         _______ _______ _______ _____ _____    ______ ____
ROOT
ATOM      1  N   UNL     1       3.623  -0.657  -0.100  0.00  0.00    -0.269 N 
ATOM      2  C   UNL     1       3.645  -1.995   0.058  0.00  0.00    +0.306 C 
ATOM      3  O   UNL     1       2.602  -2.616   0.123  0.00  0.00    -0.252 OA
ATOM      4  N   UNL     1       4.823  -2.644   0.144  0.00  0.00    -0.285 N 
ATOM      5  C   UNL     1       6.083  -1.897   0.253  0.00  0.00    +0.109 C 
ATOM      6  C   UNL     1       6.850  -2.401   1.480  0.00  0.00    +0.019 C 
ATOM      7  C   UNL     1       7.026  -3.918   1.380  0.00  0.00    +0.006 C 
ATOM      8  C   UNL     1       5.652  -4.591   1.360  0.00  0.00    +0.007 C 
ATOM      9  C   UNL     1       4.870  -4.113   0.138  0.00  0.00    +0.112 C 
ATOM     10  H   UNL     1       4.446  -0.176  -0.280  0.00  0.00    +0.156 HD
ENDROOT
BRANCH   1  14
ATOM     11  C   UNL     1       0.020   1.417   0.182  0.00  0.00    +0.000 A 
ATOM     12  C   UNL     1       1.215   2.074   0.411  0.00  0.00    +0.002 A 
ATOM     13  C   UNL     1       2.411   1.390   0.319  0.00  0.00    +0.023 A 
ATOM     14  C   UNL     1       2.413   0.040  -0.005  0.00  0.00    +0.035 A 
ATOM     15  C   UNL     1       1.212  -0.618  -0.235  0.00  0.00    +0.023 A 
ATOM     16  C   UNL     1       0.019   0.072  -0.141  0.00  0.00    +0.002 A 
ENDBRANCH   1  14
BRANCH   8  17
ATOM     17  C   UNL     1       5.828  -6.110   1.294  0.00  0.00    +0.014 C 
BRANCH  17  18
ATOM     18  C   UNL     1       4.460  -6.787   1.399  0.00  0.00    +0.096 C 
BRANCH  18  19
ATOM     19  C   UNL     1       4.634  -8.283   1.334  0.00  0.00    +0.213 C 
ATOM     20  O   UNL     1       5.743  -8.760   1.215  0.00  0.00    -0.276 OA
ATOM     21  N   UNL     1       3.558  -9.090   1.408  0.00  0.00    -0.311 N 
ATOM     22  H   UNL     1       2.671  -8.709   1.503  0.00  0.00    +0.149 HD
BRANCH  21  23
ATOM     23  C   UNL     1       3.727 -10.544   1.345  0.00  0.00    +0.139 C 
BRANCH  23  24
ATOM     24  C   UNL     1       2.380 -11.211   1.448  0.00  0.00    -0.027 A 
ATOM     25  C   UNL     1       1.872 -11.551   2.689  0.00  0.00    +0.009 A 
ATOM     26  C   UNL     1       0.636 -12.163   2.789  0.00  0.00    +0.050 A 
ATOM     27  C   UNL     1      -0.096 -12.438   1.646  0.00  0.00    +0.166 A 
ATOM     28  C   UNL     1       0.415 -12.096   0.396  0.00  0.00    +0.167 A 
ATOM     29  C   UNL     1       1.652 -11.478   0.304  0.00  0.00    +0.054 A 
ATOM     30  O   UNL     1      -0.485 -12.467  -0.560  0.00  0.00    -0.453 OA
ATOM     31  C   UNL     1      -1.366 -13.406   0.085  0.00  0.00    +0.466 C 
ATOM     32  O   UNL     1      -1.317 -13.023   1.472  0.00  0.00    -0.453 OA
ENDBRANCH  23  24
ENDBRANCH  21  23
ENDBRANCH  18  19
ENDBRANCH  17  18
ENDBRANCH   8  17
TORSDOF 6
