REMARK  Name = ZINC11882291
REMARK  7 active torsions:
REMARK  status: ('A' for Active; 'I' for Inactive)
REMARK    1  A    between atoms: C_6  and  C_7
REMARK    2  A    between atoms: C_7  and  C_8
REMARK    3  A    between atoms: C_8  and  C_14
REMARK    4  A    between atoms: C_14  and  C_15
REMARK    5  A    between atoms: C_15  and  C_16
REMARK    6  A    between atoms: C_23  and  C_24
REMARK    7  A    between atoms: C_23  and  N_64
REMARK                            x       y       z     vdW  Elec       q    Type
REMARK                         _______ _______ _______ _____ _____    ______ ____
ROOT
ATOM      1  C   UNL     1       6.298   1.763   6.974  0.00  0.00    +0.216 C 
ATOM      2  O   UNL     1       7.282   1.383   7.572  0.00  0.00    -0.276 OA
ATOM      3  N   UNL     1       5.678   0.940   6.104  0.00  0.00    -0.305 N 
ATOM      4  C   UNL     1       6.179  -0.422   5.865  0.00  0.00    +0.089 C 
ATOM      5  C   UNL     1       6.330  -0.627   4.354  0.00  0.00    -0.059 C 
ATOM      6  C   UNL     1       4.700   1.105   3.876  0.00  0.00    -0.059 C 
ATOM      7  C   UNL     1       4.484   1.381   5.368  0.00  0.00    +0.089 C 
ATOM      8  N   UNL     1       5.037  -0.325   3.703  0.00  0.00    +0.384 N 
ATOM      9  H   UNL     1       4.303  -0.895   4.140  0.00  0.00    -0.081 HD
ENDROOT
BRANCH   1  10
ATOM     10  C   UNL     1       5.767   3.155   7.203  0.00  0.00    +0.098 C 
BRANCH  10  11
ATOM     11  C   UNL     1       6.646   3.873   8.229  0.00  0.00    +0.035 C 
BRANCH  11  12
ATOM     12  C   UNL     1       6.107   5.286   8.462  0.00  0.00    +0.039 C 
ATOM     13  C   UNL     1       6.964   6.017   9.519  0.00  0.00    +0.035 C 
ATOM     14  C   UNL     1       6.179   5.718  10.820  0.00  0.00    +0.098 C 
ATOM     15  C   UNL     1       4.765   5.460  10.349  0.00  0.00    +0.214 C 
ATOM     16  O   UNL     1       3.784   5.463  11.062  0.00  0.00    -0.276 OA
ATOM     17  N   UNL     1       4.753   5.227   9.025  0.00  0.00    -0.309 N 
ATOM     18  H   UNL     1       3.953   5.043   8.509  0.00  0.00    +0.149 HD
BRANCH  12  19
ATOM     19  C   UNL     1       6.101   6.072   7.149  0.00  0.00    +0.061 C 
BRANCH  19  25
ATOM     20  C   UNL     1       4.214   7.711   7.280  0.00  0.00    +0.005 A 
ATOM     21  C   UNL     1       3.724   8.982   7.513  0.00  0.00    +0.020 A 
ATOM     22  C   UNL     1       4.590  10.005   7.853  0.00  0.00    +0.041 A 
ATOM     23  C   UNL     1       5.946   9.755   7.965  0.00  0.00    +0.020 A 
ATOM     24  C   UNL     1       6.434   8.482   7.737  0.00  0.00    +0.005 A 
ATOM     25  C   UNL     1       5.568   7.460   7.398  0.00  0.00    -0.045 A 
ATOM     26 CL   UNL     1       3.976  11.604   8.140  0.00  0.00    -0.084 Cl
ENDBRANCH  19  25
ENDBRANCH  12  19
ENDBRANCH  11  12
ENDBRANCH  10  11
ENDBRANCH   1  10
BRANCH   8  27
ATOM     27  C   UNL     1       5.107  -0.656   2.264  0.00  0.00    -0.043 C 
BRANCH  27  28
ATOM     28  C   UNL     1       3.725  -0.548   1.673  0.00  0.00    -0.060 A 
ATOM     29  C   UNL     1       2.886  -1.647   1.675  0.00  0.00    +0.005 A 
ATOM     30  C   UNL     1       1.617  -1.553   1.135  0.00  0.00    +0.050 A 
ATOM     31  C   UNL     1       1.183  -0.356   0.589  0.00  0.00    +0.166 A 
ATOM     32  C   UNL     1       2.028   0.751   0.586  0.00  0.00    +0.166 A 
ATOM     33  C   UNL     1       3.299   0.650   1.130  0.00  0.00    +0.051 A 
ATOM     34  O   UNL     1       1.376   1.797  -0.001  0.00  0.00    -0.453 OA
ATOM     35  C   UNL     1      -0.018   1.436   0.010  0.00  0.00    +0.466 C 
ATOM     36  O   UNL     1       0.002  -0.004   0.002  0.00  0.00    -0.453 OA
ENDBRANCH  27  28
ENDBRANCH   8  27
TORSDOF 7
