REMARK  Name = ZINC63230345
REMARK  8 active torsions:
REMARK  status: ('A' for Active; 'I' for Inactive)
REMARK    1  A    between atoms: C_1  and  C_2
REMARK    2  A    between atoms: C_8  and  N_10
REMARK    3  A    between atoms: N_10  and  C_11
REMARK    4  A    between atoms: C_11  and  N_13
REMARK    5  A    between atoms: N_13  and  N_14
REMARK    6  A    between atoms: C_15  and  C_17
REMARK    7  A    between atoms: C_17  and  C_18
REMARK    8  A    between atoms: C_18  and  C_19
REMARK                            x       y       z     vdW  Elec       q    Type
REMARK                         _______ _______ _______ _____ _____    ______ ____
ROOT
ATOM      1  N   UNL     1      -1.257   0.843   4.663  0.00  0.00    -0.235 N 
ATOM      2  C   UNL     1      -1.888   1.278   5.772  0.00  0.00    +0.229 C 
ATOM      3  O   UNL     1      -1.275   1.396   6.811  0.00  0.00    -0.274 OA
ATOM      4  H   UNL     1      -1.748   0.748   3.831  0.00  0.00    +0.173 HD
ENDROOT
BRANCH   1   5
ATOM      5  N   UNL     1       0.107   0.528   4.711  0.00  0.00    -0.246 N 
ATOM      6  H   UNL     1       0.598   0.623   5.542  0.00  0.00    +0.172 HD
BRANCH   5   7
ATOM      7  C   UNL     1       0.738   0.093   3.602  0.00  0.00    +0.147 C 
ATOM      8  S   UNL     1       2.405  -0.292   3.661  0.00  0.00    -0.017 S 
BRANCH   7   9
ATOM      9  N   UNL     1       0.056  -0.038   2.447  0.00  0.00    -0.322 N 
ATOM     10  H   UNL     1      -0.888   0.180   2.413  0.00  0.00    +0.148 HD
BRANCH   9  17
ATOM     11  C   UNL     1      -0.019   1.526   0.010  0.00  0.00    +0.009 C 
ATOM     12  C   UNL     1       0.002  -0.004   0.002  0.00  0.00    +0.006 C 
ATOM     13  C   UNL     1      -1.433  -0.534   0.013  0.00  0.00    +0.005 C 
ATOM     14  C   UNL     1      -1.413  -2.063   0.004  0.00  0.00    +0.000 C 
ATOM     15  C   UNL     1      -0.673  -2.570   1.244  0.00  0.00    +0.002 C 
ATOM     16  C   UNL     1       0.763  -2.041   1.233  0.00  0.00    +0.022 C 
ATOM     17  C   UNL     1       0.742  -0.511   1.242  0.00  0.00    +0.075 C 
ENDBRANCH   9  17
ENDBRANCH   7   9
ENDBRANCH   5   7
ENDBRANCH   1   5
BRANCH   2  18
ATOM     18  C   UNL     1      -3.356   1.616   5.720  0.00  0.00    +0.102 C 
BRANCH  18  19
ATOM     19  C   UNL     1      -3.821   2.081   7.101  0.00  0.00    +0.042 C 
BRANCH  19  20
ATOM     20  C   UNL     1      -5.288   2.420   7.050  0.00  0.00    -0.041 C 
ATOM     21  C   UNL     1      -6.322   1.611   7.378  0.00  0.00    -0.001 A 
ATOM     22  C   UNL     1      -6.386   0.227   7.861  0.00  0.00    +0.010 A 
ATOM     23  C   UNL     1      -7.596  -0.326   8.108  0.00  0.00    +0.001 A 
ATOM     24  C   UNL     1      -8.786   0.388   7.913  0.00  0.00    +0.002 A 
ATOM     25  C   UNL     1      -8.807   1.663   7.471  0.00  0.00    +0.026 A 
ATOM     26  C   UNL     1      -7.593   2.344   7.180  0.00  0.00    +0.043 A 
ATOM     27  N   UNL     1      -7.355   3.558   6.747  0.00  0.00    -0.380 N 
ATOM     28  C   UNL     1      -5.903   3.735   6.626  0.00  0.00    +0.144 C 
ATOM     29  H   UNL     1      -8.026   4.228   6.544  0.00  0.00    +0.160 HD
ENDBRANCH  19  20
ENDBRANCH  18  19
ENDBRANCH   2  18
TORSDOF 7
