REMARK  Name = ZINC12721033
REMARK  13 active torsions:
REMARK  status: ('A' for Active; 'I' for Inactive)
REMARK    1  A    between atoms: C_1  and  C_2
REMARK    2  A    between atoms: C_2  and  O_3
REMARK    3  A    between atoms: O_3  and  C_4
REMARK    4  A    between atoms: C_4  and  C_6
REMARK    5  A    between atoms: C_7  and  C_19
REMARK    6  A    between atoms: C_12  and  C_14
REMARK    7  A    between atoms: C_19  and  O_20
REMARK    8  A    between atoms: O_20  and  C_21
REMARK    9  A    between atoms: C_21  and  C_23
REMARK   10  A    between atoms: C_23  and  O_24
REMARK   11  A    between atoms: O_24  and  C_25
REMARK   12  A    between atoms: C_32  and  C_34
REMARK   13  A    between atoms: C_32  and  C_35
REMARK                            x       y       z     vdW  Elec       q    Type
REMARK                         _______ _______ _______ _____ _____    ______ ____
ROOT
ATOM      1  C   UNL     1       2.612   4.579   1.409  0.00  0.00    +0.082 C 
ATOM      2  C   UNL     1       2.486   5.889   1.712  0.00  0.00    +0.061 C 
ATOM      3  N   UNL     1       2.060   6.790   0.779  0.00  0.00    -0.269 N 
ATOM      4  C   UNL     1       1.740   6.462  -0.479  0.00  0.00    +0.304 C 
ATOM      5  O   UNL     1       1.369   7.335  -1.238  0.00  0.00    -0.252 OA
ATOM      6  N   UNL     1       1.814   5.195  -0.929  0.00  0.00    -0.288 N 
ATOM      7  C   UNL     1       2.265   4.145  -0.001  0.00  0.00    +0.150 C 
ATOM      8  H   UNL     1       1.985   7.721   1.043  0.00  0.00    +0.156 HD
ATOM      9  H   UNL     1       1.577   4.979  -1.845  0.00  0.00    +0.151 HD
ENDROOT
BRANCH   7  10
ATOM     10  C   UNL     1       1.177   3.105   0.088  0.00  0.00    +0.015 A 
ATOM     11  C   UNL     1       1.285   1.754   0.076  0.00  0.00    +0.013 A 
ATOM     12  C   UNL     1       0.137   0.989   0.171  0.00  0.00    +0.008 A 
ATOM     13  C   UNL     1      -1.062   1.613   0.269  0.00  0.00    +0.045 A 
ATOM     14  S   UNL     1      -0.587   3.334   0.239  0.00  0.00    -0.099 S 
ENDBRANCH   7  10
BRANCH   1  15
ATOM     15  C   UNL     1       3.054   3.644   2.374  0.00  0.00    +0.339 C 
ATOM     16  O   UNL     1       4.207   3.255   2.361  0.00  0.00    -0.245 OA
BRANCH  15  17
ATOM     17  O   UNL     1       2.198   3.184   3.310  0.00  0.00    -0.462 OA
BRANCH  17  19
ATOM     18  C   UNL     1       1.604   1.838   5.227  0.00  0.00    +0.048 C 
ATOM     19  C   UNL     1       2.712   2.242   4.253  0.00  0.00    +0.229 C 
ENDBRANCH  17  19
ENDBRANCH  15  17
ENDBRANCH   1  15
BRANCH   2  20
ATOM     20  C   UNL     1       2.821   6.363   3.103  0.00  0.00    +0.283 C 
BRANCH  20  21
ATOM     21  O   UNL     1       3.974   7.245   3.049  0.00  0.00    -0.456 OA
BRANCH  21  22
ATOM     22  C   UNL     1       4.404   7.757   4.212  0.00  0.00    +0.345 C 
ATOM     23  O   UNL     1       3.836   7.479   5.242  0.00  0.00    -0.247 OA
BRANCH  22  24
ATOM     24  C   UNL     1       5.595   8.680   4.234  0.00  0.00    +0.349 C 
BRANCH  24  25
ATOM     25  O   UNL     1       5.856   9.090   5.579  0.00  0.00    -0.477 OA
BRANCH  25  26
ATOM     26  C   UNL     1       6.906   9.931   5.775  0.00  0.00    +0.163 A 
ATOM     27  C   UNL     1       7.666  10.350   4.697  0.00  0.00    +0.049 A 
ATOM     28  C   UNL     1       8.736  11.204   4.889  0.00  0.00    +0.004 A 
ATOM     29  C   UNL     1       9.050  11.638   6.165  0.00  0.00    +0.007 A 
ATOM     30  C   UNL     1       8.297  11.220   7.241  0.00  0.00    +0.002 A 
ATOM     31  C   UNL     1       7.212  10.374   7.064  0.00  0.00    +0.166 A 
ATOM     32  O   UNL     1       6.599  10.102   8.250  0.00  0.00    -0.482 OA
ATOM     33  C   UNL     1       7.499  10.403   9.329  0.00  0.00    +0.109 C 
ATOM     34  C   UNL     1       8.398  11.509   8.726  0.00  0.00    +0.086 C 
ATOM     35  C   UNL     1       8.329   9.173   9.703  0.00  0.00    +0.056 C 
ATOM     36  C   UNL     1       6.736  10.930  10.546  0.00  0.00    +0.056 C 
ENDBRANCH  25  26
ENDBRANCH  24  25
ENDBRANCH  22  24
ENDBRANCH  21  22
ENDBRANCH  20  21
ENDBRANCH   2  20
TORSDOF 10
