REMARK  Name = ZINC62495516
REMARK  5 active torsions:
REMARK  status: ('A' for Active; 'I' for Inactive)
REMARK    1  A    between atoms: C_1  and  C_2
REMARK    2  A    between atoms: C_4  and  C_22
REMARK    3  A    between atoms: C_6  and  C_8
REMARK    4  A    between atoms: C_8  and  C_9
REMARK    5  A    between atoms: C_16  and  O_21
REMARK                            x       y       z     vdW  Elec       q    Type
REMARK                         _______ _______ _______ _____ _____    ______ ____
ROOT
ATOM      1  C   UNL     1       1.502  -3.083   2.922  0.00  0.00    +0.263 C 
ATOM      2  C   UNL     1       1.520  -3.950   4.155  0.00  0.00    +0.258 C 
ATOM      3  O   UNL     1       1.620  -5.154   4.052  0.00  0.00    -0.271 OA
ATOM      4  N   UNL     1       1.426  -3.381   5.375  0.00  0.00    -0.279 N 
ATOM      5  C   UNL     1       1.439  -1.983   5.480  0.00  0.00    +0.079 A 
ATOM      6  C   UNL     1       1.118  -1.365   6.678  0.00  0.00    +0.072 A 
ATOM      7  C   UNL     1       1.123   0.019   6.763  0.00  0.00    +0.119 A 
ATOM      8  C   UNL     1       1.447   0.783   5.651  0.00  0.00    +0.049 A 
ATOM      9  C   UNL     1       1.774   0.167   4.456  0.00  0.00    +0.051 A 
ATOM     10  C   UNL     1       1.776  -1.214   4.369  0.00  0.00    +0.143 A 
ATOM     11  O   UNL     1       2.126  -1.829   3.207  0.00  0.00    -0.477 OA
ATOM     12  H   UNL     1       1.350  -3.932   6.169  0.00  0.00    +0.155 HD
ENDROOT
BRANCH   7  13
ATOM     13  O   UNL     1       0.808   0.629   7.937  0.00  0.00    -0.507 OA
ATOM     14  H   UNL     1       1.568   0.788   8.513  0.00  0.00    +0.292 HD
ENDBRANCH   7  13
BRANCH   1  15
ATOM     15  C   UNL     1       0.054  -2.844   2.489  0.00  0.00    +0.089 C 
BRANCH  15  21
ATOM     16  C   UNL     1      -0.018   1.503   0.010  0.00  0.00    +0.044 C 
ATOM     17  C   UNL     1       0.002  -0.004   0.002  0.00  0.00    -0.050 A 
ATOM     18  C   UNL     1       0.006  -0.689  -1.199  0.00  0.00    +0.006 A 
ATOM     19  C   UNL     1       0.025  -2.071  -1.206  0.00  0.00    -0.050 A 
ATOM     20  C   UNL     1       0.040  -2.768  -0.013  0.00  0.00    +0.007 A 
ATOM     21  C   UNL     1       0.037  -2.084   1.188  0.00  0.00    -0.043 A 
ATOM     22  C   UNL     1       0.023  -0.702   1.195  0.00  0.00    +0.007 A 
ATOM     23  C   UNL     1       0.027  -2.817  -2.516  0.00  0.00    +0.044 C 
ENDBRANCH  15  21
ENDBRANCH   1  15
TORSDOF 3
