REMARK  Name = ZINC02217941
REMARK  11 active torsions:
REMARK  status: ('A' for Active; 'I' for Inactive)
REMARK    1  A    between atoms: C_1  and  O_2
REMARK    2  A    between atoms: O_2  and  C_3
REMARK    3  A    between atoms: C_6  and  C_9
REMARK    4  A    between atoms: C_15  and  C_33
REMARK    5  A    between atoms: C_16  and  C_25
REMARK    6  A    between atoms: C_18  and  C_21
REMARK    7  A    between atoms: C_19  and  N_20
REMARK    8  A    between atoms: C_21  and  O_23
REMARK    9  A    between atoms: O_23  and  C_24
REMARK   10  A    between atoms: C_28  and  O_31
REMARK   11  A    between atoms: O_31  and  C_32
REMARK                            x       y       z     vdW  Elec       q    Type
REMARK                         _______ _______ _______ _____ _____    ______ ____
ROOT
ATOM      1  C   UNL     1      -2.530   1.086   1.320  0.00  0.00    +0.028 C 
ATOM      2  C   UNL     1      -3.703   1.730   1.087  0.00  0.00    +0.080 A 
ATOM      3  C   UNL     1      -3.947   3.151   0.821  0.00  0.00    +0.271 A 
ATOM      4  O   UNL     1      -3.026   3.945   0.783  0.00  0.00    -0.266 OA
ATOM      5  N   UNL     1      -5.216   3.557   0.615  0.00  0.00    -0.257 N 
ATOM      6  C   UNL     1      -6.213   2.602   0.679  0.00  0.00    +0.104 A 
ATOM      7  C   UNL     1      -7.533   2.860   0.500  0.00  0.00    +0.072 C 
ATOM      8  C   UNL     1      -7.955   4.286   0.208  0.00  0.00    +0.102 C 
ATOM      9  C   UNL     1      -6.834   5.304   0.145  0.00  0.00    +0.087 C 
ATOM     10  C   UNL     1      -5.562   4.885   0.348  0.00  0.00    +0.115 C 
ATOM     11  S   UNL     1      -5.363   1.076   1.032  0.00  0.00    -0.065 S 
ENDROOT
BRANCH   1  15
ATOM     12  C   UNL     1       1.043   3.312   1.824  0.00  0.00    +0.120 A 
ATOM     13  C   UNL     1       1.072   2.103   1.138  0.00  0.00    +0.046 A 
ATOM     14  C   UNL     1      -0.085   1.374   0.975  0.00  0.00    +0.011 A 
ATOM     15  C   UNL     1      -1.292   1.856   1.496  0.00  0.00    -0.024 A 
ATOM     16  C   UNL     1      -1.313   3.071   2.192  0.00  0.00    +0.011 A 
ATOM     17  C   UNL     1      -0.151   3.792   2.348  0.00  0.00    +0.046 A 
BRANCH  12  19
ATOM     18  C   UNL     1       2.087   5.261   2.696  0.00  0.00    +0.277 C 
ATOM     19  O   UNL     1       2.187   4.027   1.981  0.00  0.00    -0.495 OA
ENDBRANCH  12  19
ENDBRANCH   1  15
BRANCH   8  20
ATOM     20  C   UNL     1      -8.925   4.719   1.278  0.00  0.00    -0.034 A 
ATOM     21  C   UNL     1      -8.533   4.726   2.603  0.00  0.00    +0.008 A 
ATOM     22  C   UNL     1      -9.418   5.127   3.585  0.00  0.00    +0.046 A 
ATOM     23  C   UNL     1     -10.706   5.513   3.240  0.00  0.00    +0.120 A 
ATOM     24  C   UNL     1     -11.098   5.500   1.909  0.00  0.00    +0.046 A 
ATOM     25  C   UNL     1     -10.207   5.103   0.931  0.00  0.00    +0.008 A 
BRANCH  23  26
ATOM     26  O   UNL     1     -11.580   5.903   4.204  0.00  0.00    -0.495 OA
ATOM     27  C   UNL     1     -11.107   5.892   5.553  0.00  0.00    +0.277 C 
ENDBRANCH  23  26
ENDBRANCH   8  20
BRANCH  10  28
ATOM     28  N   UNL     1      -4.558   5.815   0.289  0.00  0.00    -0.344 N 
ATOM     29  H   UNL     1      -4.690   6.697   0.670  0.00  0.00    +0.144 HD
ATOM     30  H   UNL     1      -3.714   5.592  -0.135  0.00  0.00    +0.144 HD
ENDBRANCH  10  28
BRANCH   9  31
ATOM     31  C   UNL     1      -7.108   6.654  -0.117  0.00  0.00    +0.339 C 
ATOM     32  O   UNL     1      -6.193   7.442  -0.275  0.00  0.00    -0.245 OA
BRANCH  31  33
ATOM     33  O   UNL     1      -8.388   7.080  -0.195  0.00  0.00    -0.465 OA
ATOM     34  C   UNL     1      -8.593   8.469  -0.466  0.00  0.00    +0.280 C 
ENDBRANCH  31  33
ENDBRANCH   9  31
BRANCH   7  35
ATOM     35  C   UNL     1      -8.504   1.810   0.583  0.00  0.00    +0.098 C 
ATOM     36  N   UNL     1      -9.273   0.977   0.649  0.00  0.00    -0.191 NA
ENDBRANCH   7  35
TORSDOF 8
