REMARK  Name = ZINC46670413
REMARK  9 active torsions:
REMARK  status: ('A' for Active; 'I' for Inactive)
REMARK    1  A    between atoms: C_5  and  C_7
REMARK    2  A    between atoms: C_7  and  C_9
REMARK    3  A    between atoms: C_7  and  N_25
REMARK    4  A    between atoms: C_9  and  C_10
REMARK    5  A    between atoms: N_12  and  C_13
REMARK    6  A    between atoms: C_13  and  C_14
REMARK    7  A    between atoms: C_14  and  N_15
REMARK    8  A    between atoms: N_15  and  C_16
REMARK    9  A    between atoms: C_21  and  N_22
REMARK                            x       y       z     vdW  Elec       q    Type
REMARK                         _______ _______ _______ _____ _____    ______ ____
ROOT
ATOM      1  C   UNL     1       1.424  -4.088  -1.136  0.00  0.00    +0.215 C 
ATOM      2  O   UNL     1       1.439  -4.605  -0.039  0.00  0.00    -0.276 OA
ATOM      3  N   UNL     1       1.780  -4.801  -2.222  0.00  0.00    -0.314 N 
ATOM      4  H   UNL     1       1.768  -4.388  -3.100  0.00  0.00    +0.149 HD
ENDROOT
BRANCH   1   5
ATOM      5  C   UNL     1       1.006  -2.647  -1.284  0.00  0.00    +0.123 C 
BRANCH   5   6
ATOM      6  C   UNL     1       0.654  -2.074   0.090  0.00  0.00    +0.116 C 
BRANCH   6  11
ATOM      7  C   UNL     1      -0.165   1.294  -1.407  0.00  0.00    +0.000 A 
ATOM      8  C   UNL     1      -0.194   2.098  -0.283  0.00  0.00    +0.003 A 
ATOM      9  C   UNL     1       0.051   1.553   0.963  0.00  0.00    +0.039 A 
ATOM     10  C   UNL     1       0.326   0.201   1.085  0.00  0.00    +0.128 A 
ATOM     11  C   UNL     1       0.355  -0.603  -0.041  0.00  0.00    +0.008 A 
ATOM     12  C   UNL     1       0.110  -0.056  -1.287  0.00  0.00    +0.008 A 
ATOM     13  F   UNL     1       0.566  -0.333   2.303  0.00  0.00    -0.205 F 
ENDBRANCH   6  11
BRANCH   6  14
ATOM     14  N   UNL     1      -0.522  -2.766   0.622  0.00  0.00    -0.292 N 
ATOM     15  C   UNL     1      -1.710  -2.654  -0.005  0.00  0.00    +0.298 C 
ATOM     16  O   UNL     1      -1.788  -2.053  -1.059  0.00  0.00    -0.253 OA
ATOM     17  N   UNL     1      -2.813  -3.208   0.537  0.00  0.00    -0.313 N 
ATOM     18  H   UNL     1      -0.446  -3.305   1.424  0.00  0.00    +0.151 HD
ATOM     19  H   UNL     1      -2.751  -3.688   1.378  0.00  0.00    +0.146 HD
ATOM     20  H   UNL     1      -3.668  -3.128   0.086  0.00  0.00    +0.146 HD
ENDBRANCH   6  14
ENDBRANCH   5   6
ENDBRANCH   1   5
BRANCH   3  21
ATOM     21  C   UNL     1       2.187  -6.201  -2.078  0.00  0.00    +0.123 C 
BRANCH  21  22
ATOM     22  C   UNL     1       2.538  -6.775  -3.452  0.00  0.00    +0.120 C 
BRANCH  22  23
ATOM     23  N   UNL     1       2.945  -8.175  -3.308  0.00  0.00    -0.341 N 
ATOM     24  H   UNL     1       2.957  -8.588  -2.430  0.00  0.00    +0.146 HD
BRANCH  23  25
ATOM     25  C   UNL     1       3.314  -8.914  -4.433  0.00  0.00    +0.058 A 
ATOM     26  C   UNL     1       3.377  -8.302  -5.679  0.00  0.00    +0.025 A 
ATOM     27  C   UNL     1       3.743  -9.036  -6.790  0.00  0.00    +0.002 A 
ATOM     28  C   UNL     1       4.048 -10.379  -6.663  0.00  0.00    +0.002 A 
ATOM     29  C   UNL     1       3.986 -10.992  -5.425  0.00  0.00    +0.034 A 
ATOM     30  C   UNL     1       3.626 -10.262  -4.309  0.00  0.00    +0.147 A 
BRANCH  30  31
ATOM     31  N   UNL     1       3.566 -10.917  -2.983  0.00  0.00    +0.058 N 
ATOM     32  O   UNL     1       3.923 -10.318  -1.996  0.00  0.00    -0.126 OA
ATOM     33  O   UNL     1       3.160 -12.052  -2.888  0.00  0.00    -0.126 OA
ENDBRANCH  30  31
ENDBRANCH  23  25
ENDBRANCH  22  23
ENDBRANCH  21  22
ENDBRANCH   3  21
TORSDOF 9
