REMARK  Name = ZINC05317873
REMARK  7 active torsions:
REMARK  status: ('A' for Active; 'I' for Inactive)
REMARK    1  A    between atoms: C_1  and  C_2
REMARK    2  A    between atoms: C_5  and  C_8
REMARK    3  A    between atoms: C_10  and  C_14
REMARK    4  A    between atoms: N_16  and  N_17
REMARK    5  A    between atoms: C_18  and  C_19
REMARK    6  A    between atoms: C_19  and  C_26
REMARK    7  A    between atoms: C_20  and  C_21
REMARK                            x       y       z     vdW  Elec       q    Type
REMARK                         _______ _______ _______ _____ _____    ______ ____
ROOT
ATOM      1  C   UNL     1      -7.998   3.158   1.413  0.00  0.00    +0.281 C 
ATOM      2  O   UNL     1      -7.751   4.349   1.420  0.00  0.00    -0.267 OA
ATOM      3  N   UNL     1      -7.034   2.272   1.093  0.00  0.00    -0.202 N 
ATOM      4  H   UNL     1      -7.230   1.322   1.088  0.00  0.00    +0.178 HD
ENDROOT
BRANCH   1   7
ATOM      5  C   UNL     1     -11.485   2.555   2.334  0.00  0.00    +0.093 A 
ATOM      6  C   UNL     1     -10.434   3.463   2.107  0.00  0.00    +0.062 A 
ATOM      7  C   UNL     1      -9.348   2.684   1.755  0.00  0.00    +0.122 A 
ATOM      8  N   UNL     1      -9.775   1.386   1.792  0.00  0.00    -0.272 N 
ATOM      9  H   UNL     1      -9.208   0.589   1.586  0.00  0.00    +0.189 HD
ATOM     10  N   UNL     1     -11.013   1.343   2.129  0.00  0.00    -0.173 NA
BRANCH   5  15
ATOM     11  C   UNL     1     -16.863   3.896   3.900  0.00  0.00    +0.044 C 
ATOM     12  C   UNL     1     -15.456   3.545   3.490  0.00  0.00    -0.050 A 
ATOM     13  C   UNL     1     -15.101   2.220   3.309  0.00  0.00    +0.004 A 
ATOM     14  C   UNL     1     -13.813   1.894   2.934  0.00  0.00    +0.010 A 
ATOM     15  C   UNL     1     -12.871   2.901   2.737  0.00  0.00    +0.002 A 
ATOM     16  C   UNL     1     -13.232   4.233   2.925  0.00  0.00    +0.010 A 
ATOM     17  C   UNL     1     -14.524   4.549   3.296  0.00  0.00    +0.004 A 
ENDBRANCH   5  15
ENDBRANCH   1   7
BRANCH   3  18
ATOM     18  N   UNL     1      -5.748   2.723   0.768  0.00  0.00    -0.188 NA
ATOM     19  C   UNL     1      -4.815   1.866   0.459  0.00  0.00    +0.133 C 
BRANCH  19  20
ATOM     20  C   UNL     1      -3.517   2.321   0.131  0.00  0.00    -0.027 C 
ATOM     21  C   UNL     1      -2.548   1.431  -0.191  0.00  0.00    +0.051 C 
ATOM     22  C   UNL     1      -3.211   3.797   0.139  0.00  0.00    +0.045 C 
BRANCH  21  23
ATOM     23  C   UNL     1      -1.249   1.905  -0.667  0.00  0.00    +0.128 A 
ATOM     24  C   UNL     1      -0.152   1.127  -0.916  0.00  0.00    +0.049 A 
ATOM     25  C   UNL     1       0.863   1.991  -1.361  0.00  0.00    +0.042 A 
ATOM     26  C   UNL     1       0.352   3.240  -1.358  0.00  0.00    +0.195 A 
ATOM     27  O   UNL     1      -0.922   3.185  -0.935  0.00  0.00    -0.464 OA
ENDBRANCH  21  23
ENDBRANCH  19  20
ENDBRANCH   3  18
TORSDOF 5
