REMARK  Name = ZINC03329711
REMARK  3 active torsions:
REMARK  status: ('A' for Active; 'I' for Inactive)
REMARK    1  A    between atoms: C_4  and  N_21
REMARK    2  A    between atoms: C_6  and  C_7
REMARK    3  A    between atoms: C_12  and  C_15
REMARK                            x       y       z     vdW  Elec       q    Type
REMARK                         _______ _______ _______ _____ _____    ______ ____
ROOT
ATOM      1  C   UNL     1      -1.265  -0.763   0.010  0.00  0.00    +0.250 C 
ATOM      2  O   UNL     1      -2.327  -0.172   0.022  0.00  0.00    -0.270 OA
ATOM      3  N   UNL     1      -1.244  -2.110   0.002  0.00  0.00    -0.261 N 
ATOM      4  C   UNL     1      -2.418  -2.814   0.009  0.00  0.00    +0.165 A 
ATOM      5  N   UNL     1      -2.586  -4.122   0.004  0.00  0.00    -0.224 NA
ATOM      6  C   UNL     1      -3.795  -4.654   0.012  0.00  0.00    +0.087 A 
ATOM      7  C   UNL     1      -4.929  -3.697   0.028  0.00  0.00    +0.077 A 
ATOM      8  S   UNL     1      -4.085  -2.179   0.036  0.00  0.00    -0.060 S 
ATOM      9  H   UNL     1      -0.396  -2.582  -0.008  0.00  0.00    +0.157 HD
ENDROOT
BRANCH   1  15
ATOM     10  C   UNL     1       1.224  -0.680  -0.013  0.00  0.00    +0.014 A 
ATOM     11  C   UNL     1       2.404   0.034  -0.021  0.00  0.00    +0.023 A 
ATOM     12  C   UNL     1       2.378   1.419  -0.013  0.00  0.00    +0.071 A 
ATOM     13  C   UNL     1       1.169   2.095   0.002  0.00  0.00    +0.145 A 
ATOM     14  C   UNL     1      -0.017   1.393   0.010  0.00  0.00    +0.047 A 
ATOM     15  C   UNL     1       0.002  -0.004   0.002  0.00  0.00    +0.039 A 
ATOM     16 CL   UNL     1       3.868   2.311  -0.022  0.00  0.00    -0.081 Cl
BRANCH  13  17
ATOM     17  N   UNL     1       1.151   3.575   0.010  0.00  0.00    +0.058 N 
ATOM     18  O   UNL     1       0.002   4.220   0.025  0.00  0.00    -0.126 OA
ATOM     19  O   UNL     1       2.283   4.248   0.003  0.00  0.00    -0.126 OA
ENDBRANCH  13  17
ENDBRANCH   1  15
BRANCH   6  20
ATOM     20  C   UNL     1      -3.994  -6.035   0.007  0.00  0.00    +0.040 A 
ATOM     21  C   UNL     1      -2.996  -7.118  -0.014  0.00  0.00    +0.019 A 
ATOM     22  C   UNL     1      -3.485  -8.361  -0.011  0.00  0.00    +0.028 A 
ATOM     23  C   UNL     1      -4.873  -8.557   0.002  0.00  0.00    +0.079 A 
ATOM     24  S   UNL     1      -5.525  -6.951   0.017  0.00  0.00    -0.075 S 
ATOM     25 CL   UNL     1      -5.740 -10.062   0.001  0.00  0.00    -0.076 Cl
ENDBRANCH   6  20
TORSDOF 3
