REMARK  Name = ZINC12091012
REMARK  13 active torsions:
REMARK  status: ('A' for Active; 'I' for Inactive)
REMARK    1  A    between atoms: C_1  and  C_2
REMARK    2  A    between atoms: C_2  and  C_3
REMARK    3  A    between atoms: C_2  and  C_4
REMARK    4  A    between atoms: C_6  and  C_9
REMARK    5  A    between atoms: C_9  and  N_10
REMARK    6  A    between atoms: C_11  and  C_13
REMARK    7  A    between atoms: C_13  and  C_14
REMARK    8  A    between atoms: C_21  and  C_22
REMARK    9  A    between atoms: C_21  and  N_61
REMARK   10  A    between atoms: C_24  and  O_30
REMARK   11  A    between atoms: C_26  and  O_28
REMARK   12  A    between atoms: O_28  and  C_29
REMARK   13  A    between atoms: O_30  and  C_31
REMARK                            x       y       z     vdW  Elec       q    Type
REMARK                         _______ _______ _______ _____ _____    ______ ____
ROOT
ATOM      1  C   UNL     1      -1.827   0.923   2.099  0.00  0.00    +0.028 C 
ATOM      2  C   UNL     1      -2.205   1.110   3.541  0.00  0.00    +0.200 C 
ATOM      3  O   UNL     1      -2.593   0.147   4.169  0.00  0.00    -0.278 OA
ATOM      4  N   UNL     1      -2.131   2.292   4.161  0.00  0.00    -0.318 N 
ATOM      5  C   UNL     1      -1.711   3.517   3.486  0.00  0.00    +0.085 C 
ATOM      6  C   UNL     1      -0.970   3.175   2.192  0.00  0.00    -0.058 C 
ATOM      7  H   UNL     1      -2.366   2.338   5.101  0.00  0.00    +0.149 HD
ATOM      8  N   UNL     1      -1.806   2.233   1.421  0.00  0.00    +0.391 N 
ATOM      9  H   UNL     1      -2.764   2.599   1.370  0.00  0.00    -0.080 HD
ENDROOT
BRANCH   1  10
ATOM     10  C   UNL     1      -2.860   0.026   1.415  0.00  0.00    +0.089 C 
BRANCH  10  12
ATOM     11  N   UNL     1      -5.251   0.143   0.791  0.00  0.00    -0.310 N 
ATOM     12  C   UNL     1      -4.201   0.713   1.415  0.00  0.00    +0.212 C 
ATOM     13  O   UNL     1      -4.336   1.779   1.978  0.00  0.00    -0.276 OA
ATOM     14  H   UNL     1      -5.143  -0.709   0.341  0.00  0.00    +0.149 HD
BRANCH  11  15
ATOM     15  C   UNL     1      -6.555   0.812   0.792  0.00  0.00    +0.160 C 
BRANCH  15  18
ATOM     16  C   UNL     1      -8.512  -0.657  -1.953  0.00  0.00    +0.081 A 
ATOM     17  N   UNL     1      -7.650   0.068  -1.278  0.00  0.00    -0.247 NA
ATOM     18  C   UNL     1      -7.550  -0.027   0.031  0.00  0.00    +0.066 A 
ATOM     19  C   UNL     1      -8.360  -0.902   0.679  0.00  0.00    +0.071 A 
ATOM     20  S   UNL     1      -9.283  -1.574  -0.696  0.00  0.00    -0.080 S 
BRANCH  16  22
ATOM     21  C   UNL     1      -8.507  -2.095  -3.973  0.00  0.00    +0.014 C 
ATOM     22  C   UNL     1      -8.768  -0.686  -3.438  0.00  0.00    +0.038 C 
ATOM     23  C   UNL     1     -10.221  -0.296  -3.713  0.00  0.00    +0.014 C 
ENDBRANCH  16  22
ENDBRANCH  15  18
ENDBRANCH  11  15
ENDBRANCH  10  12
ENDBRANCH   1  10
BRANCH   8  24
ATOM     24  C   UNL     1      -1.272   2.086   0.048  0.00  0.00    -0.042 C 
BRANCH  24  25
ATOM     25  C   UNL     1       0.106   1.478   0.086  0.00  0.00    -0.057 A 
ATOM     26  C   UNL     1       1.211   2.286   0.277  0.00  0.00    +0.047 A 
ATOM     27  C   UNL     1       2.482   1.730   0.306  0.00  0.00    +0.124 A 
ATOM     28  C   UNL     1       2.643   0.363   0.145  0.00  0.00    +0.091 A 
ATOM     29  C   UNL     1       1.533  -0.446  -0.046  0.00  0.00    +0.124 A 
ATOM     30  C   UNL     1       0.264   0.115  -0.075  0.00  0.00    +0.047 A 
BRANCH  29  31
ATOM     31  O   UNL     1       1.688  -1.786  -0.204  0.00  0.00    -0.495 OA
ATOM     32  C   UNL     1       3.022  -2.295  -0.163  0.00  0.00    +0.277 C 
ENDBRANCH  29  31
BRANCH  27  33
ATOM     33  O   UNL     1       3.568   2.526   0.494  0.00  0.00    -0.495 OA
ATOM     34  C   UNL     1       4.845   1.885   0.514  0.00  0.00    +0.277 C 
ENDBRANCH  27  33
ENDBRANCH  24  25
ENDBRANCH   8  24
TORSDOF 9
