REMARK  Name = ZINC24341154
REMARK  12 active torsions:
REMARK  status: ('A' for Active; 'I' for Inactive)
REMARK    1  A    between atoms: C_1  and  C_2
REMARK    2  A    between atoms: C_2  and  N_3
REMARK    3  A    between atoms: N_3  and  C_4
REMARK    4  A    between atoms: N_3  and  S_6
REMARK    5  A    between atoms: C_4  and  C_5
REMARK    6  A    between atoms: S_6  and  C_9
REMARK    7  A    between atoms: C_12  and  N_18
REMARK    8  A    between atoms: C_13  and  N_15
REMARK    9  A    between atoms: N_21  and  C_24
REMARK   10  A    between atoms: C_24  and  C_25
REMARK   11  A    between atoms: C_29  and  C_36
REMARK   12  A    between atoms: C_32  and  C_35
REMARK                            x       y       z     vdW  Elec       q    Type
REMARK                         _______ _______ _______ _____ _____    ______ ____
ROOT
ATOM      1  N   UNL     1       1.227   2.014  -0.131  0.00  0.00    -0.332 N 
ATOM      2  C   UNL     1      -0.108   1.403  -0.056  0.00  0.00    +0.086 C 
ATOM      3  C   UNL     1       0.029  -0.121  -0.086  0.00  0.00    -0.059 C 
ATOM      4  N   UNL     1       0.868  -0.557   1.038  0.00  0.00    +0.387 N 
ATOM      5  C   UNL     1       2.203   0.053   0.963  0.00  0.00    -0.059 C 
ATOM      6  C   UNL     1       2.067   1.577   0.993  0.00  0.00    +0.086 C 
ATOM      7  H   UNL     1       0.392  -0.218   1.970  0.00  0.00    -0.081 HD
ENDROOT
BRANCH   1  11
ATOM      8  C   UNL     1       0.963   6.167  -0.272  0.00  0.00    +0.108 A 
ATOM      9  C   UNL     1       0.554   5.487   0.862  0.00  0.00    +0.030 A 
ATOM     10  C   UNL     1       0.635   4.110   0.909  0.00  0.00    +0.027 A 
ATOM     11  C   UNL     1       1.138   3.407  -0.178  0.00  0.00    +0.060 A 
ATOM     12  C   UNL     1       1.548   4.092  -1.315  0.00  0.00    +0.149 A 
ATOM     13  C   UNL     1       1.459   5.470  -1.358  0.00  0.00    +0.063 A 
BRANCH   8  14
ATOM     14  S   UNL     1       0.851   7.924  -0.332  0.00  0.00    +0.061 S 
ATOM     15  O   UNL     1       0.864   8.378   1.015  0.00  0.00    -0.153 OA
ATOM     16  O   UNL     1       1.804   8.360  -1.292  0.00  0.00    -0.153 OA
BRANCH  14  17
ATOM     17  N   UNL     1      -0.642   8.299  -0.943  0.00  0.00    -0.177 NA
BRANCH  17  19
ATOM     18  C   UNL     1      -1.947   9.959   0.292  0.00  0.00    +0.022 C 
ATOM     19  C   UNL     1      -1.781   8.474  -0.038  0.00  0.00    +0.106 C 
ENDBRANCH  17  19
BRANCH  17  20
ATOM     20  C   UNL     1      -0.824   8.455  -2.388  0.00  0.00    +0.106 C 
ATOM     21  C   UNL     1      -1.314   7.135  -2.986  0.00  0.00    +0.022 C 
ENDBRANCH  17  20
ENDBRANCH  14  17
ENDBRANCH   8  14
BRANCH  12  22
ATOM     22  N   UNL     1       2.079   3.347  -2.478  0.00  0.00    +0.058 N 
ATOM     23  O   UNL     1       2.526   3.952  -3.437  0.00  0.00    -0.126 OA
ATOM     24  O   UNL     1       2.070   2.129  -2.477  0.00  0.00    -0.126 OA
ENDBRANCH  12  22
ENDBRANCH   1  11
BRANCH   4  25
ATOM     25  C   UNL     1       0.962  -2.022   1.087  0.00  0.00    +0.019 C 
BRANCH  25  26
ATOM     26  C   UNL     1      -0.391  -2.601   1.415  0.00  0.00    +0.199 C 
ATOM     27  O   UNL     1      -1.314  -1.865   1.694  0.00  0.00    -0.278 OA
ATOM     28  N   UNL     1      -0.575  -3.936   1.397  0.00  0.00    -0.303 N 
ATOM     29  C   UNL     1       0.531  -4.840   1.055  0.00  0.00    +0.111 C 
ATOM     30  C   UNL     1       0.681  -5.877   2.178  0.00  0.00    +0.004 C 
ATOM     31  C   UNL     1      -0.660  -6.581   2.396  0.00  0.00    +0.009 C 
ATOM     32  C   UNL     1      -1.713  -5.555   2.825  0.00  0.00    +0.004 C 
ATOM     33  C   UNL     1      -1.888  -4.515   1.714  0.00  0.00    +0.111 C 
ATOM     34  C   UNL     1      -1.255  -4.860   4.109  0.00  0.00    +0.009 C 
ATOM     35  C   UNL     1       1.740  -6.908   1.782  0.00  0.00    +0.009 C 
ENDBRANCH  25  26
ENDBRANCH   4  25
TORSDOF 8
