REMARK  Name = ZINC20721605
REMARK  10 active torsions:
REMARK  status: ('A' for Active; 'I' for Inactive)
REMARK    1  A    between atoms: C_1  and  O_2
REMARK    2  A    between atoms: O_2  and  C_3
REMARK    3  A    between atoms: C_3  and  C_5
REMARK    4  A    between atoms: C_5  and  C_6
REMARK    5  A    between atoms: C_6  and  C_7
REMARK    6  A    between atoms: C_7  and  C_9
REMARK    7  A    between atoms: C_7  and  N_13
REMARK    8  A    between atoms: C_9  and  O_11
REMARK    9  A    between atoms: O_11  and  C_12
REMARK   10  A    between atoms: C_25  and  C_27
REMARK                            x       y       z     vdW  Elec       q    Type
REMARK                         _______ _______ _______ _____ _____    ______ ____
ROOT
ATOM      1  N   UNL     1       0.863  -6.721   1.569  0.00  0.00    -0.286 N 
ATOM      2  C   UNL     1      -0.073  -5.918   2.111  0.00  0.00    +0.304 C 
ATOM      3  O   UNL     1       0.241  -4.827   2.547  0.00  0.00    -0.253 OA
ATOM      4  N   UNL     1      -1.357  -6.323   2.171  0.00  0.00    -0.273 N 
ATOM      5  C   UNL     1      -2.411  -5.417   2.652  0.00  0.00    +0.116 C 
ATOM      6  C   UNL     1      -3.009  -5.985   3.946  0.00  0.00    +0.074 C 
ATOM      7  C   UNL     1      -3.255  -7.460   3.761  0.00  0.00    +0.040 A 
ATOM      8  C   UNL     1      -2.693  -8.220   2.796  0.00  0.00    +0.062 A 
ATOM      9  N   UNL     1      -3.136  -9.471   2.943  0.00  0.00    -0.348 N 
ATOM     10  C   UNL     1      -3.956  -9.518   3.961  0.00  0.00    +0.171 A 
ATOM     11  N   UNL     1      -4.056  -8.279   4.497  0.00  0.00    -0.349 N 
ATOM     12  H   UNL     1      -4.596  -8.023   5.261  0.00  0.00    +0.166 HD
ATOM     13  C   UNL     1      -1.739  -7.683   1.750  0.00  0.00    +0.159 C 
ATOM     14  H   UNL     1       0.626  -7.618   1.284  0.00  0.00    +0.151 HD
ATOM     15  H   UNL     1      -2.890 -10.224   2.384  0.00  0.00    +0.167 HD
ENDROOT
BRANCH  13  16
ATOM     16  C   UNL     1      -2.421  -7.631   0.407  0.00  0.00    +0.017 A 
ATOM     17  C   UNL     1      -3.797  -7.737   0.327  0.00  0.00    +0.011 A 
ATOM     18  C   UNL     1      -4.425  -7.690  -0.904  0.00  0.00    +0.042 A 
ATOM     19  C   UNL     1      -3.676  -7.537  -2.058  0.00  0.00    +0.161 A 
ATOM     20  C   UNL     1      -2.296  -7.431  -1.980  0.00  0.00    +0.194 A 
ATOM     21  C   UNL     1      -1.669  -7.472  -0.744  0.00  0.00    +0.167 A 
ATOM     22  F   UNL     1      -0.325  -7.363  -0.664  0.00  0.00    -0.202 F 
ATOM     23  F   UNL     1      -1.564  -7.281  -3.105  0.00  0.00    -0.199 F 
ATOM     24  F   UNL     1      -4.290  -7.492  -3.261  0.00  0.00    -0.202 F 
ENDBRANCH  13  16
BRANCH   1  25
ATOM     25  C   UNL     1       2.238  -6.241   1.409  0.00  0.00    +0.184 C 
BRANCH  25  26
ATOM     26  C   UNL     1       2.355  -5.474   0.117  0.00  0.00    +0.327 C 
ATOM     27  O   UNL     1       1.389  -5.343  -0.597  0.00  0.00    -0.249 OA
BRANCH  26  28
ATOM     28  O   UNL     1       3.532  -4.938  -0.241  0.00  0.00    -0.467 OA
ATOM     29  C   UNL     1       3.570  -4.224  -1.478  0.00  0.00    +0.280 C 
ENDBRANCH  26  28
ENDBRANCH  25  26
BRANCH  25  30
ATOM     30  C   UNL     1       3.195  -7.434   1.382  0.00  0.00    +0.045 C 
BRANCH  30  31
ATOM     31  C   UNL     1       3.168  -8.140   2.740  0.00  0.00    +0.123 C 
BRANCH  31  32
ATOM     32  C   UNL     1       4.111  -9.315   2.713  0.00  0.00    +0.307 C 
ATOM     33  O   UNL     1       4.740  -9.563   1.712  0.00  0.00    -0.251 OA
BRANCH  32  35
ATOM     34  C   UNL     1       5.163 -11.184   3.707  0.00  0.00    +0.280 C 
ATOM     35  O   UNL     1       4.253 -10.087   3.803  0.00  0.00    -0.468 OA
ENDBRANCH  32  35
ENDBRANCH  31  32
ENDBRANCH  30  31
ENDBRANCH  25  30
ENDBRANCH   1  25
TORSDOF 8
