REMARK  Name = ZINC39675319
REMARK  12 active torsions:
REMARK  status: ('A' for Active; 'I' for Inactive)
REMARK    1  A    between atoms: C_1  and  C_2
REMARK    2  A    between atoms: C_2  and  O_3
REMARK    3  A    between atoms: O_3  and  C_4
REMARK    4  A    between atoms: C_9  and  C_10
REMARK    5  A    between atoms: C_14  and  C_23
REMARK    6  A    between atoms: N_25  and  C_26
REMARK    7  A    between atoms: C_26  and  C_28
REMARK    8  A    between atoms: C_26  and  C_29
REMARK    9  A    between atoms: C_29  and  C_30
REMARK   10  A    between atoms: C_30  and  C_31
REMARK   11  A    between atoms: C_34  and  O_37
REMARK   12  A    between atoms: O_37  and  C_38
REMARK                            x       y       z     vdW  Elec       q    Type
REMARK                         _______ _______ _______ _____ _____    ______ ____
ROOT
ATOM      1  C   UNL     1      -4.125  -1.297   0.126  0.00  0.00    +0.250 C 
ATOM      2  O   UNL     1      -4.086  -0.088   0.245  0.00  0.00    -0.270 OA
ATOM      3  N   UNL     1      -5.311  -1.924  -0.001  0.00  0.00    -0.296 N 
ATOM      4  C   UNL     1      -5.567  -3.383  -0.049  0.00  0.00    +0.121 C 
ATOM      5  C   UNL     1      -6.862  -3.579   0.772  0.00  0.00    +0.100 C 
ATOM      6  C   UNL     1      -7.572  -2.216   0.717  0.00  0.00    -0.004 C 
ATOM      7  C   UNL     1      -6.655  -1.310  -0.118  0.00  0.00    +0.115 C 
ATOM      8  C   UNL     1      -8.934  -2.356   0.044  0.00  0.00    -0.010 C 
ATOM      9  C   UNL     1      -9.645  -1.000   0.053  0.00  0.00    -0.082 C 
ATOM     10  N   UNL     1      -9.806  -0.539   1.438  0.00  0.00    +0.379 N 
ATOM     11  C   UNL     1      -8.489  -0.317   2.048  0.00  0.00    -0.082 C 
ATOM     12  C   UNL     1      -7.729  -1.645   2.123  0.00  0.00    -0.010 C 
ATOM     13  H   UNL     1     -10.328   0.325   1.445  0.00  0.00    -0.086 HD
ATOM     14  H   UNL     1     -10.307  -1.236   1.967  0.00  0.00    -0.086 HD
ENDROOT
BRANCH   1  20
ATOM     15  C   UNL     1      -1.783  -1.669   0.900  0.00  0.00    +0.133 A 
ATOM     16  C   UNL     1      -0.614  -2.414   0.892  0.00  0.00    +0.046 A 
ATOM     17  C   UNL     1      -0.523  -3.552   0.115  0.00  0.00    +0.004 A 
ATOM     18  C   UNL     1      -1.597  -3.957  -0.662  0.00  0.00    +0.001 A 
ATOM     19  C   UNL     1      -2.767  -3.229  -0.665  0.00  0.00    +0.017 A 
ATOM     20  C   UNL     1      -2.873  -2.079   0.121  0.00  0.00    +0.078 A 
BRANCH  15  21
ATOM     21  O   UNL     1      -1.873  -0.551   1.663  0.00  0.00    -0.491 OA
BRANCH  21  23
ATOM     22  C   UNL     1      -1.010   1.084   3.220  0.00  0.00    +0.048 C 
ATOM     23  C   UNL     1      -0.721  -0.195   2.430  0.00  0.00    +0.226 C 
ENDBRANCH  21  23
ENDBRANCH  15  21
ENDBRANCH   1  20
BRANCH   5  24
ATOM     24  C   UNL     1      -6.530  -3.943   2.197  0.00  0.00    +0.218 C 
ATOM     25  O   UNL     1      -5.507  -3.534   2.704  0.00  0.00    -0.275 OA
ATOM     26  N   UNL     1      -7.369  -4.723   2.906  0.00  0.00    -0.312 N 
ATOM     27  H   UNL     1      -8.187  -5.050   2.500  0.00  0.00    +0.149 HD
BRANCH  26  28
ATOM     28  C   UNL     1      -7.046  -5.077   4.290  0.00  0.00    +0.070 C 
ATOM     29  C   UNL     1      -7.524  -3.964   5.226  0.00  0.00    +0.028 C 
BRANCH  28  30
ATOM     30  C   UNL     1      -7.745  -6.387   4.658  0.00  0.00    +0.026 C 
BRANCH  30  31
ATOM     31  C   UNL     1      -7.177  -7.524   3.807  0.00  0.00    +0.037 C 
BRANCH  31  32
ATOM     32  C   UNL     1      -7.865  -8.815   4.169  0.00  0.00    -0.047 A 
ATOM     33  C   UNL     1      -7.351  -9.613   5.174  0.00  0.00    +0.007 A 
ATOM     34  C   UNL     1      -7.979 -10.797   5.508  0.00  0.00    +0.046 A 
ATOM     35  C   UNL     1      -9.128 -11.185   4.833  0.00  0.00    +0.120 A 
ATOM     36  C   UNL     1      -9.642 -10.383   3.825  0.00  0.00    +0.046 A 
ATOM     37  C   UNL     1      -9.013  -9.197   3.499  0.00  0.00    +0.007 A 
BRANCH  35  38
ATOM     38  O   UNL     1      -9.748 -12.350   5.159  0.00  0.00    -0.495 OA
ATOM     39  C   UNL     1     -10.926 -12.686   4.423  0.00  0.00    +0.277 C 
ENDBRANCH  35  38
ENDBRANCH  31  32
ENDBRANCH  30  31
ENDBRANCH  28  30
ENDBRANCH  26  28
ENDBRANCH   5  24
TORSDOF 9
