REMARK  Name = ZINC41992612
REMARK  7 active torsions:
REMARK  status: ('A' for Active; 'I' for Inactive)
REMARK    1  A    between atoms: C_1  and  C_2
REMARK    2  A    between atoms: C_5  and  C_9
REMARK    3  A    between atoms: C_7  and  C_8
REMARK    4  A    between atoms: C_9  and  C_10
REMARK    5  A    between atoms: C_9  and  C_11
REMARK    6  A    between atoms: C_9  and  S_14
REMARK    7  A    between atoms: S_14  and  C_15
REMARK                            x       y       z     vdW  Elec       q    Type
REMARK                         _______ _______ _______ _____ _____    ______ ____
ROOT
ATOM      1  C   UNL     1       0.059  -4.275  -0.021  0.00  0.00    +0.147 C 
ATOM      2  C   UNL     1       0.058  -4.777  -1.467  0.00  0.00    +0.040 C 
ENDROOT
BRANCH   1   7
ATOM      3  C   UNL     1      -0.018   1.503   0.010  0.00  0.00    +0.044 C 
ATOM      4  C   UNL     1       0.002  -0.004   0.002  0.00  0.00    -0.048 A 
ATOM      5  C   UNL     1       0.006  -0.689  -1.199  0.00  0.00    +0.004 A 
ATOM      6  C   UNL     1       0.025  -2.071  -1.207  0.00  0.00    +0.006 A 
ATOM      7  C   UNL     1       0.040  -2.768  -0.013  0.00  0.00    -0.020 A 
ATOM      8  C   UNL     1       0.037  -2.084   1.188  0.00  0.00    +0.009 A 
ATOM      9  C   UNL     1       0.023  -0.702   1.195  0.00  0.00    -0.047 A 
ATOM     10  C   UNL     1       0.025   0.045   2.504  0.00  0.00    +0.044 C 
ENDBRANCH   1   7
BRANCH   1  11
ATOM     11  C   UNL     1      -1.161  -4.797   0.693  0.00  0.00    +0.376 C 
ATOM     12  O   UNL     1      -2.274  -4.515   0.284  0.00  0.00    -0.244 OA
ATOM     13  O   UNL     1      -1.034  -5.502   1.680  0.00  0.00    -0.244 OA
ENDBRANCH   1  11
BRANCH   1  14
ATOM     14  S   UNL     1       1.553  -4.865   0.822  0.00  0.00    -0.062 S 
BRANCH  14  15
ATOM     15  C   UNL     1       1.430  -6.621   0.729  0.00  0.00    +0.211 A 
ATOM     16  N   UNL     1       2.316  -7.490   1.229  0.00  0.00    -0.188 NA
ATOM     17  C   UNL     1       1.916  -8.720   0.984  0.00  0.00    +0.209 A 
ATOM     18  N   UNL     1       0.748  -8.652   0.312  0.00  0.00    -0.246 N 
ATOM     19  H   UNL     1       0.215  -9.399  -0.003  0.00  0.00    +0.192 HD
ATOM     20  N   UNL     1       0.452  -7.287   0.164  0.00  0.00    -0.144 NA
ATOM     21  N   UNL     1       2.577  -9.878   1.350  0.00  0.00    -0.328 N 
ATOM     22  H   UNL     1       3.416  -9.825   1.834  0.00  0.00    +0.145 HD
ATOM     23  H   UNL     1       2.201 -10.743   1.123  0.00  0.00    +0.145 HD
ENDBRANCH  14  15
ENDBRANCH   1  14
TORSDOF 4
