REMARK  Name = ZINC35231503
REMARK  11 active torsions:
REMARK  status: ('A' for Active; 'I' for Inactive)
REMARK    1  A    between atoms: C_1  and  C_2
REMARK    2  A    between atoms: C_2  and  C_3
REMARK    3  A    between atoms: C_3  and  C_4
REMARK    4  A    between atoms: C_4  and  N_5
REMARK    5  A    between atoms: N_5  and  C_6
REMARK    6  A    between atoms: C_6  and  C_7
REMARK    7  A    between atoms: C_21  and  C_23
REMARK    8  A    between atoms: N_30  and  C_31
REMARK    9  A    between atoms: C_31  and  C_32
REMARK   10  A    between atoms: C_31  and  C_33
REMARK   11  A    between atoms: C_31  and  C_34
REMARK                            x       y       z     vdW  Elec       q    Type
REMARK                         _______ _______ _______ _____ _____    ______ ____
ROOT
ATOM      1  C   UNL     1      -3.234  -4.235  -1.694  0.00  0.00    +0.238 C 
ATOM      2  O   UNL     1      -2.462  -4.936  -1.076  0.00  0.00    -0.273 OA
ATOM      3  N   UNL     1      -3.861  -4.721  -2.783  0.00  0.00    -0.252 N 
ATOM      4  C   UNL     1      -3.713  -6.070  -3.133  0.00  0.00    +0.061 A 
ATOM      5  C   UNL     1      -3.480  -7.028  -2.159  0.00  0.00    +0.025 A 
ATOM      6  C   UNL     1      -3.325  -8.354  -2.519  0.00  0.00    +0.002 A 
ATOM      7  C   UNL     1      -3.400  -8.732  -3.847  0.00  0.00    +0.002 A 
ATOM      8  C   UNL     1      -3.636  -7.784  -4.827  0.00  0.00    +0.028 A 
ATOM      9  C   UNL     1      -3.798  -6.459  -4.474  0.00  0.00    +0.068 A 
ATOM     10  N   UNL     1      -4.066  -5.466  -5.428  0.00  0.00    -0.316 N 
ATOM     11  C   UNL     1      -3.979  -5.507  -6.779  0.00  0.00    +0.092 A 
ATOM     12  C   UNL     1      -4.336  -4.295  -7.261  0.00  0.00    +0.020 A 
ATOM     13  C   UNL     1      -4.659  -3.476  -6.156  0.00  0.00    +0.025 A 
ATOM     14  C   UNL     1      -4.490  -4.210  -5.051  0.00  0.00    +0.052 A 
ATOM     15  C   UNL     1      -4.706  -3.834  -3.602  0.00  0.00    +0.194 C 
ENDROOT
BRANCH  15  16
ATOM     16  C   UNL     1      -6.154  -4.023  -3.230  0.00  0.00    +0.131 A 
ATOM     17  C   UNL     1      -7.073  -3.047  -3.125  0.00  0.00    +0.047 A 
ATOM     18  C   UNL     1      -8.290  -3.667  -2.758  0.00  0.00    +0.041 A 
ATOM     19  C   UNL     1      -8.041  -4.985  -2.661  0.00  0.00    +0.195 A 
ATOM     20  O   UNL     1      -6.748  -5.196  -2.954  0.00  0.00    -0.466 OA
ENDBRANCH  15  16
BRANCH   1  21
ATOM     21  C   UNL     1      -3.493  -2.820  -1.243  0.00  0.00    +0.205 C 
BRANCH  21  22
ATOM     22  N   UNL     1      -2.793  -2.574   0.019  0.00  0.00    -0.277 N 
ATOM     23  C   UNL     1      -3.410  -2.821   1.192  0.00  0.00    +0.303 C 
ATOM     24  O   UNL     1      -4.548  -3.248   1.202  0.00  0.00    -0.253 OA
ATOM     25  N   UNL     1      -2.765  -2.594   2.354  0.00  0.00    -0.294 N 
ATOM     26  H   UNL     1      -1.857  -2.253   2.346  0.00  0.00    +0.151 HD
BRANCH  25  27
ATOM     27  C   UNL     1      -3.436  -2.863   3.628  0.00  0.00    +0.028 C 
ATOM     28  C   UNL     1      -3.819  -4.342   3.701  0.00  0.00    +0.031 C 
ATOM     29  C   UNL     1      -2.491  -2.523   4.783  0.00  0.00    +0.031 C 
ATOM     30  C   UNL     1      -4.697  -2.003   3.732  0.00  0.00    +0.031 C 
ENDBRANCH  25  27
BRANCH  22  31
ATOM     31  C   UNL     1      -1.421  -2.059   0.008  0.00  0.00    +0.110 C 
BRANCH  31  32
ATOM     32  C   UNL     1      -1.451  -0.529   0.021  0.00  0.00    +0.019 C 
BRANCH  32  34
ATOM     33  C   UNL     1      -0.048   1.538   0.023  0.00  0.00    +0.004 C 
ATOM     34  C   UNL     1      -0.018   0.009   0.009  0.00  0.00    -0.002 C 
ENDBRANCH  32  34
ENDBRANCH  31  32
ENDBRANCH  22  31
ENDBRANCH  21  22
ENDBRANCH   1  21
TORSDOF 7
