REMARK  Name = ZINC09991508
REMARK  6 active torsions:
REMARK  status: ('A' for Active; 'I' for Inactive)
REMARK    1  A    between atoms: C_1  and  C_2
REMARK    2  A    between atoms: C_4  and  N_27
REMARK    3  A    between atoms: C_6  and  C_7
REMARK    4  A    between atoms: C_12  and  C_15
REMARK    5  A    between atoms: C_15  and  C_17
REMARK    6  A    between atoms: C_28  and  C_30
REMARK                            x       y       z     vdW  Elec       q    Type
REMARK                         _______ _______ _______ _____ _____    ______ ____
ROOT
ATOM      1  C   UNL     1      -8.873   0.034   1.350  0.00  0.00    +0.254 C 
ATOM      2  O   UNL     1      -9.165   0.946   2.101  0.00  0.00    -0.269 OA
ATOM      3  N   UNL     1      -7.586  -0.346   1.219  0.00  0.00    -0.297 N 
ATOM      4  C   UNL     1      -7.231  -1.522   0.413  0.00  0.00    +0.109 C 
ATOM      5  C   UNL     1      -6.384  -2.469   1.270  0.00  0.00    +0.030 C 
ATOM      6  C   UNL     1      -5.183  -1.705   1.830  0.00  0.00    +0.063 C 
ATOM      7  C   UNL     1      -5.673  -0.559   2.718  0.00  0.00    +0.030 C 
ATOM      8  C   UNL     1      -6.512   0.409   1.878  0.00  0.00    +0.109 C 
ENDROOT
BRANCH   1  14
ATOM      9  C   UNL     1     -11.748  -0.562   2.326  0.00  0.00    +0.045 C 
ATOM     10  C   UNL     1     -11.219  -0.946   0.968  0.00  0.00    -0.029 A 
ATOM     11  C   UNL     1     -12.004  -1.601   0.057  0.00  0.00    +0.035 A 
ATOM     12  C   UNL     1     -11.466  -1.927  -1.169  0.00  0.00    +0.073 A 
ATOM     13  S   UNL     1      -9.849  -1.310  -1.066  0.00  0.00    -0.069 S 
ATOM     14  C   UNL     1      -9.918  -0.650   0.590  0.00  0.00    +0.079 A 
BRANCH  12  15
ATOM     15  N   UNL     1     -12.074  -2.584  -2.232  0.00  0.00    -0.280 N 
ATOM     16  C   UNL     1     -11.382  -2.817  -3.365  0.00  0.00    +0.221 C 
ATOM     17  O   UNL     1     -10.229  -2.453  -3.457  0.00  0.00    -0.275 OA
ATOM     18  H   UNL     1     -12.996  -2.876  -2.158  0.00  0.00    +0.155 HD
BRANCH  16  19
ATOM     19  C   UNL     1     -12.041  -3.530  -4.517  0.00  0.00    +0.075 C 
ATOM     20  C   UNL     1     -11.544  -4.937  -4.855  0.00  0.00    +0.013 C 
ATOM     21  C   UNL     1     -11.203  -3.764  -5.776  0.00  0.00    +0.013 C 
ENDBRANCH  16  19
ENDBRANCH  12  15
ENDBRANCH   1  14
BRANCH   6  22
ATOM     22  C   UNL     1      -4.328  -2.642   2.645  0.00  0.00    +0.166 C 
ATOM     23  O   UNL     1      -4.822  -3.629   3.149  0.00  0.00    -0.292 OA
BRANCH  22  24
ATOM     24  C   UNL     1      -2.899  -2.359   2.830  0.00  0.00    +0.021 A 
ATOM     25  C   UNL     1      -2.327  -1.220   2.250  0.00  0.00    +0.015 A 
ATOM     26  C   UNL     1      -0.987  -0.962   2.421  0.00  0.00    +0.050 A 
ATOM     27  C   UNL     1      -0.196  -1.823   3.175  0.00  0.00    +0.162 A 
ATOM     28  C   UNL     1      -0.759  -2.958   3.758  0.00  0.00    +0.163 A 
ATOM     29  C   UNL     1      -2.103  -3.227   3.587  0.00  0.00    +0.060 A 
ATOM     30  O   UNL     1       0.002  -3.810   4.499  0.00  0.00    -0.485 OA
ATOM     31  C   UNL     1       1.421  -3.709   4.339  0.00  0.00    +0.270 C 
ATOM     32  C   UNL     1       1.806  -2.225   4.391  0.00  0.00    +0.270 C 
ATOM     33  O   UNL     1       1.125  -1.547   3.330  0.00  0.00    -0.485 OA
ENDBRANCH  22  24
ENDBRANCH   6  22
TORSDOF 5
