REMARK  Name = ZINC45917382
REMARK  12 active torsions:
REMARK  status: ('A' for Active; 'I' for Inactive)
REMARK    1  A    between atoms: C_1  and  C_2
REMARK    2  A    between atoms: C_2  and  C_3
REMARK    3  A    between atoms: C_3  and  N_4
REMARK    4  A    between atoms: C_5  and  C_7
REMARK    5  A    between atoms: C_7  and  C_9
REMARK    6  A    between atoms: C_7  and  O_10
REMARK    7  A    between atoms: O_10  and  C_11
REMARK    8  A    between atoms: C_11  and  C_13
REMARK    9  A    between atoms: C_15  and  C_25
REMARK   10  A    between atoms: N_21  and  C_22
REMARK   11  A    between atoms: C_22  and  C_23
REMARK   12  A    between atoms: C_22  and  C_24
REMARK                            x       y       z     vdW  Elec       q    Type
REMARK                         _______ _______ _______ _____ _____    ______ ____
ROOT
ATOM      1  C   UNL     1       2.010  -6.320  -5.252  0.00  0.00    +0.073 A 
ATOM      2  C   UNL     1       2.971  -5.624  -5.977  0.00  0.00    +0.044 A 
ATOM      3  C   UNL     1       3.455  -6.170  -7.169  0.00  0.00    +0.074 A 
ATOM      4  N   UNL     1       3.019  -7.334  -7.622  0.00  0.00    -0.228 NA
ATOM      5  C   UNL     1       2.106  -8.040  -6.973  0.00  0.00    +0.160 A 
ATOM      6  C   UNL     1       1.568  -7.564  -5.759  0.00  0.00    +0.053 A 
ATOM      7  C   UNL     1       0.639  -8.526  -5.311  0.00  0.00    +0.145 A 
ATOM      8  N   UNL     1       0.611  -9.507  -6.168  0.00  0.00    -0.177 NA
ATOM      9  N   UNL     1       1.498  -9.244  -7.218  0.00  0.00    -0.244 N 
ENDROOT
BRANCH   3  10
ATOM     10  C   UNL     1       4.480  -5.429  -7.943  0.00  0.00    +0.004 A 
ATOM     11  C   UNL     1       4.955  -4.203  -7.478  0.00  0.00    +0.014 A 
ATOM     12  C   UNL     1       5.906  -3.514  -8.200  0.00  0.00    +0.050 A 
ATOM     13  C   UNL     1       6.396  -4.037  -9.390  0.00  0.00    +0.162 A 
ATOM     14  C   UNL     1       5.927  -5.261  -9.857  0.00  0.00    +0.163 A 
ATOM     15  C   UNL     1       4.974  -5.958  -9.134  0.00  0.00    +0.059 A 
ATOM     16  O   UNL     1       6.402  -5.792 -11.018  0.00  0.00    -0.485 OA
ATOM     17  C   UNL     1       7.085  -4.897 -11.903  0.00  0.00    +0.270 C 
ATOM     18  C   UNL     1       8.073  -4.065 -11.075  0.00  0.00    +0.270 C 
ATOM     19  O   UNL     1       7.332  -3.339 -10.088  0.00  0.00    -0.485 OA
ENDBRANCH   3  10
BRANCH   9  20
ATOM     20  C   UNL     1       1.746 -10.113  -8.372  0.00  0.00    +0.103 C 
ATOM     21  C   UNL     1       2.252 -11.473  -7.886  0.00  0.00    +0.032 C 
ATOM     22  C   UNL     1       0.446 -10.303  -9.156  0.00  0.00    +0.032 C 
ENDBRANCH   9  20
BRANCH   1  23
ATOM     23  C   UNL     1       1.471  -5.779  -3.987  0.00  0.00    +0.341 C 
ATOM     24  O   UNL     1       0.635  -6.405  -3.365  0.00  0.00    -0.245 OA
BRANCH  23  25
ATOM     25  O   UNL     1       1.906  -4.592  -3.522  0.00  0.00    -0.449 OA
BRANCH  25  26
ATOM     26  C   UNL     1       1.341  -4.130  -2.293  0.00  0.00    +0.259 C 
ATOM     27  C   UNL     1       2.187  -4.635  -1.122  0.00  0.00    +0.062 C 
BRANCH  26  29
ATOM     28  N   UNL     1       0.738  -1.962  -1.265  0.00  0.00    -0.312 N 
ATOM     29  C   UNL     1       1.321  -2.623  -2.285  0.00  0.00    +0.254 C 
ATOM     30  O   UNL     1       1.829  -2.004  -3.196  0.00  0.00    -0.272 OA
ATOM     31  H   UNL     1       0.332  -2.457  -0.536  0.00  0.00    +0.149 HD
BRANCH  28  32
ATOM     32  C   UNL     1       0.718  -0.497  -1.257  0.00  0.00    +0.104 C 
BRANCH  32  34
ATOM     33  C   UNL     1      -0.019   1.526   0.010  0.00  0.00    +0.005 C 
ATOM     34  C   UNL     1       0.002  -0.004   0.002  0.00  0.00    +0.015 C 
ENDBRANCH  32  34
ENDBRANCH  28  32
ENDBRANCH  26  29
ENDBRANCH  25  26
ENDBRANCH  23  25
ENDBRANCH   1  23
TORSDOF 8
