REMARK  Name = ZINC08417277
REMARK  6 active torsions:
REMARK  status: ('A' for Active; 'I' for Inactive)
REMARK    1  A    between atoms: C_4  and  C_7
REMARK    2  A    between atoms: C_10  and  C_13
REMARK    3  A    between atoms: N_15  and  N_16
REMARK    4  A    between atoms: N_16  and  C_17
REMARK    5  A    between atoms: C_17  and  N_19
REMARK    6  A    between atoms: N_19  and  C_20
REMARK                            x       y       z     vdW  Elec       q    Type
REMARK                         _______ _______ _______ _____ _____    ______ ____
ROOT
ATOM      1  C   UNL     1       2.854   3.009   5.200  0.00  0.00    +0.260 C 
ATOM      2  O   UNL     1       2.506   2.996   6.364  0.00  0.00    -0.269 OA
ATOM      3  N   UNL     1       1.982   2.667   4.231  0.00  0.00    -0.231 N 
ATOM      4  H   UNL     1       2.259   2.678   3.302  0.00  0.00    +0.173 HD
ENDROOT
BRANCH   1   8
ATOM      5  C   UNL     1       6.824   4.133   4.181  0.00  0.00    -0.018 A 
ATOM      6  C   UNL     1       6.425   4.118   5.518  0.00  0.00    +0.009 A 
ATOM      7  C   UNL     1       5.140   3.754   5.849  0.00  0.00    +0.014 A 
ATOM      8  C   UNL     1       4.234   3.400   4.846  0.00  0.00    +0.038 A 
ATOM      9  C   UNL     1       4.637   3.409   3.508  0.00  0.00    +0.014 A 
ATOM     10  C   UNL     1       5.921   3.780   3.179  0.00  0.00    +0.009 A 
BRANCH   5  14
ATOM     11  C   UNL     1      10.796   5.257   3.163  0.00  0.00    +0.000 A 
ATOM     12  C   UNL     1       9.902   4.907   2.167  0.00  0.00    +0.001 A 
ATOM     13  C   UNL     1       8.612   4.541   2.492  0.00  0.00    +0.008 A 
ATOM     14  C   UNL     1       8.210   4.525   3.826  0.00  0.00    -0.018 A 
ATOM     15  C   UNL     1       9.113   4.884   4.825  0.00  0.00    +0.008 A 
ATOM     16  C   UNL     1      10.403   5.243   4.489  0.00  0.00    +0.001 A 
ENDBRANCH   5  14
ENDBRANCH   1   8
BRANCH   3  17
ATOM     17  N   UNL     1       0.673   2.296   4.567  0.00  0.00    -0.246 N 
ATOM     18  H   UNL     1       0.395   2.286   5.497  0.00  0.00    +0.172 HD
BRANCH  17  19
ATOM     19  C   UNL     1      -0.200   1.954   3.599  0.00  0.00    +0.147 C 
ATOM     20  S   UNL     1      -1.799   1.502   4.009  0.00  0.00    -0.017 S 
BRANCH  19  21
ATOM     21  N   UNL     1       0.186   1.969   2.308  0.00  0.00    -0.323 N 
ATOM     22  H   UNL     1       1.092   2.226   2.075  0.00  0.00    +0.148 HD
BRANCH  21  23
ATOM     23  C   UNL     1      -0.763   1.597   1.255  0.00  0.00    +0.072 C 
ATOM     24  C   UNL     1      -0.013   1.086   0.008  0.00  0.00    +0.022 C 
ATOM     25  C   UNL     1      -0.784   1.609  -1.216  0.00  0.00    +0.002 C 
ATOM     26  C   UNL     1      -1.978   2.421  -0.670  0.00  0.00    +0.002 C 
ATOM     27  C   UNL     1      -1.531   2.845   0.750  0.00  0.00    +0.022 C 
ENDBRANCH  21  23
ENDBRANCH  19  21
ENDBRANCH  17  19
ENDBRANCH   3  17
TORSDOF 6
