REMARK  Name = ZINC39955530
REMARK  5 active torsions:
REMARK  status: ('A' for Active; 'I' for Inactive)
REMARK    1  A    between atoms: C_1  and  C_2
REMARK    2  A    between atoms: C_7  and  N_8
REMARK    3  A    between atoms: C_9  and  N_21
REMARK    4  A    between atoms: C_10  and  C_19
REMARK    5  A    between atoms: C_11  and  C_13
REMARK                            x       y       z     vdW  Elec       q    Type
REMARK                         _______ _______ _______ _____ _____    ______ ____
ROOT
ATOM      1  N   UNL     1       0.180   0.119   2.334  0.00  0.00    -0.217 N 
ATOM      2  C   UNL     1       0.377  -0.370   3.579  0.00  0.00    +0.138 A 
ATOM      3  C   UNL     1       0.366   0.715   4.451  0.00  0.00    +0.117 A 
ATOM      4  C   UNL     1       0.153   1.873   3.668  0.00  0.00    +0.111 A 
ATOM      5  N   UNL     1       0.050   1.510   2.420  0.00  0.00    -0.166 NA
ENDROOT
BRANCH   1  12
ATOM      6  C   UNL     1      -1.971   0.598   0.534  0.00  0.00    +0.046 C 
ATOM      7  C   UNL     1      -0.912  -0.435   0.250  0.00  0.00    -0.025 A 
ATOM      8  C   UNL     1      -0.965  -1.179  -0.913  0.00  0.00    +0.008 A 
ATOM      9  C   UNL     1       0.006  -2.127  -1.175  0.00  0.00    +0.039 A 
ATOM     10  C   UNL     1       1.036  -2.335  -0.272  0.00  0.00    +0.125 A 
ATOM     11  C   UNL     1       1.093  -1.594   0.895  0.00  0.00    +0.066 A 
ATOM     12  C   UNL     1       0.122  -0.637   1.155  0.00  0.00    +0.073 A 
ATOM     13  F   UNL     1       1.983  -3.263  -0.530  0.00  0.00    -0.205 F 
ENDBRANCH   1  12
BRANCH   4  14
ATOM     14  C   UNL     1       0.066   3.286   4.186  0.00  0.00    +0.170 C 
ATOM     15  C   UNL     1       1.353   4.071   3.828  0.00  0.00    +0.040 C 
ATOM     16  C   UNL     1       0.822   5.530   3.839  0.00  0.00    +0.031 C 
ATOM     17  C   UNL     1      -0.620   5.357   3.315  0.00  0.00    +0.161 C 
ATOM     18  O   UNL     1      -1.000   3.992   3.533  0.00  0.00    -0.370 OA
ENDBRANCH   4  14
BRANCH   2  19
ATOM     19  N   UNL     1       0.556  -1.697   3.921  0.00  0.00    -0.342 N 
ATOM     20  H   UNL     1       0.610  -2.373   3.228  0.00  0.00    +0.144 HD
ATOM     21  H   UNL     1       0.628  -1.952   4.854  0.00  0.00    +0.144 HD
ENDBRANCH   2  19
BRANCH   3  22
ATOM     22  C   UNL     1       0.538   0.667   5.872  0.00  0.00    +0.105 C 
ATOM     23  N   UNL     1       0.675   0.629   6.999  0.00  0.00    -0.191 NA
ENDBRANCH   3  22
TORSDOF 4
