REMARK  Name = ZINC65426762
REMARK  7 active torsions:
REMARK  status: ('A' for Active; 'I' for Inactive)
REMARK    1  A    between atoms: C_1  and  C_2
REMARK    2  A    between atoms: C_2  and  C_3
REMARK    3  A    between atoms: C_2  and  N_4
REMARK    4  A    between atoms: C_7  and  C_10
REMARK    5  A    between atoms: N_15  and  C_24
REMARK    6  A    between atoms: CA_19  and  C_22
REMARK    7  A    between atoms: C_22  and  O_23
REMARK                            x       y       z     vdW  Elec       q    Type
REMARK                         _______ _______ _______ _____ _____    ______ ____
ROOT
ATOM      1  C   UNL     1       1.705  -2.558   4.852  0.00  0.00    -0.063 C 
ATOM      2  C   UNL     1       1.808  -4.079   5.098  0.00  0.00    -0.004 C 
ATOM      3  C   UNL     1       0.500  -4.749   4.647  0.00  0.00    +0.107 C 
ATOM      4  N   UNL     1       0.074  -5.619   5.755  0.00  0.00    -0.329 N 
ATOM      5  C   UNL     1       0.533  -4.974   6.996  0.00  0.00    +0.107 C 
ATOM      6  C   UNL     1       1.844  -4.226   6.643  0.00  0.00    -0.003 C 
ATOM      7  CA  UNL     1       1.760  -2.779   7.177  0.00  0.00    -0.041 C 
ATOM      8  N   UNL     1       1.079  -2.023   6.090  0.00  0.00    +0.385 N 
ATOM      9  H1  UNL     1       1.255  -1.034   6.179  0.00  0.00    -0.085 HD
ATOM     10  H2  UNL     1       0.087  -2.211   6.096  0.00  0.00    -0.085 HD
ENDROOT
BRANCH   1  14
ATOM     11  N   UNL     1       0.564  -1.141   0.983  0.00  0.00    +0.381 N 
ATOM     12  C   UNL     1      -0.068  -0.486   2.135  0.00  0.00    -0.078 C 
ATOM     13  C   UNL     1       0.754  -0.761   3.396  0.00  0.00    -0.017 C 
ATOM     14  C   UNL     1       0.819  -2.272   3.637  0.00  0.00    -0.028 C 
ATOM     15  C   UNL     1       1.412  -2.951   2.400  0.00  0.00    -0.017 C 
ATOM     16  C   UNL     1       0.566  -2.596   1.175  0.00  0.00    -0.078 C 
ATOM     17  H   UNL     1       1.514  -0.814   0.892  0.00  0.00    -0.081 HD
BRANCH  11  19
ATOM     18  C   UNL     1      -0.186   0.706  -0.440  0.00  0.00    -0.014 C 
ATOM     19  C   UNL     1      -0.184  -0.810  -0.238  0.00  0.00    -0.075 C 
ATOM     20  C   UNL     1       0.479  -1.484  -1.441  0.00  0.00    -0.014 C 
ENDBRANCH  11  19
ENDBRANCH   1  14
BRANCH   4  21
ATOM     21  C   UNL     1      -0.629  -6.821   5.650  0.00  0.00    +0.030 A 
ATOM     22  C   UNL     1      -0.992  -7.309   4.401  0.00  0.00    +0.023 A 
ATOM     23  C   UNL     1      -1.687  -8.498   4.300  0.00  0.00    +0.002 A 
ATOM     24  C   UNL     1      -2.022  -9.203   5.441  0.00  0.00    +0.000 A 
ATOM     25  C   UNL     1      -1.663  -8.721   6.687  0.00  0.00    +0.002 A 
ATOM     26  C   UNL     1      -0.963  -7.535   6.794  0.00  0.00    +0.023 A 
ENDBRANCH   4  21
BRANCH   7  27
ATOM     27  C   UNL     1       0.935  -2.731   8.465  0.00  0.00    +0.140 C 
BRANCH  27  28
ATOM     28  O   UNL     1       0.994  -1.415   9.019  0.00  0.00    -0.397 OA
ATOM     29  H   UNL     1       0.492  -1.312   9.840  0.00  0.00    +0.209 HD
ENDBRANCH  27  28
ENDBRANCH   7  27
TORSDOF 5
