REMARK  Name = ZINC10001013
REMARK  10 active torsions:
REMARK  status: ('A' for Active; 'I' for Inactive)
REMARK    1  A    between atoms: C_1  and  C_2
REMARK    2  A    between atoms: C_2  and  N_3
REMARK    3  A    between atoms: C_4  and  C_21
REMARK    4  A    between atoms: C_7  and  S_8
REMARK    5  A    between atoms: S_8  and  C_9
REMARK    6  A    between atoms: C_9  and  C_10
REMARK    7  A    between atoms: N_12  and  C_13
REMARK    8  A    between atoms: C_18  and  C_19
REMARK    9  A    between atoms: C_21  and  N_22
REMARK   10  A    between atoms: C_23  and  C_25
REMARK                            x       y       z     vdW  Elec       q    Type
REMARK                         _______ _______ _______ _____ _____    ______ ____
ROOT
ATOM      1  N   UNL     1      -0.446   2.720   1.938  0.00  0.00    -0.305 N 
ATOM      2  C   UNL     1      -0.687   1.548   1.275  0.00  0.00    +0.151 A 
ATOM      3  N   UNL     1      -1.642   0.932   1.912  0.00  0.00    -0.132 NA
ATOM      4  N   UNL     1      -2.022   1.631   2.921  0.00  0.00    -0.122 NA
ATOM      5  C   UNL     1      -1.323   2.741   2.983  0.00  0.00    +0.192 A 
ENDROOT
BRANCH   1   7
ATOM      6  C   UNL     1      -0.083   4.767   0.648  0.00  0.00    +0.027 C 
ATOM      7  C   UNL     1       0.546   3.742   1.595  0.00  0.00    +0.122 C 
ENDBRANCH   1   7
BRANCH   5   8
ATOM      8  S   UNL     1      -1.483   4.013   4.192  0.00  0.00    -0.077 S 
BRANCH   8   9
ATOM      9  C   UNL     1      -2.810   3.318   5.207  0.00  0.00    +0.173 C 
BRANCH   9  10
ATOM     10  C   UNL     1      -3.126   4.263   6.338  0.00  0.00    +0.227 C 
ATOM     11  O   UNL     1      -2.513   5.304   6.447  0.00  0.00    -0.275 OA
ATOM     12  N   UNL     1      -4.088   3.951   7.228  0.00  0.00    -0.285 N 
ATOM     13  H   UNL     1      -4.632   3.159   7.096  0.00  0.00    +0.155 HD
BRANCH  12  14
ATOM     14  C   UNL     1      -4.303   4.770   8.342  0.00  0.00    +0.038 A 
ATOM     15  C   UNL     1      -3.274   5.565   8.830  0.00  0.00    +0.023 A 
ATOM     16  C   UNL     1      -3.488   6.373   9.929  0.00  0.00    +0.003 A 
ATOM     17  C   UNL     1      -4.726   6.392  10.544  0.00  0.00    +0.020 A 
ATOM     18  C   UNL     1      -5.754   5.601  10.061  0.00  0.00    +0.046 A 
ATOM     19  C   UNL     1      -5.547   4.794   8.958  0.00  0.00    -0.011 A 
ATOM     20  C   UNL     1      -6.668   3.938   8.428  0.00  0.00    +0.047 C 
ATOM     21 CL   UNL     1      -7.307   5.627  10.837  0.00  0.00    -0.083 Cl
ENDBRANCH  12  14
ENDBRANCH   9  10
ENDBRANCH   8   9
ENDBRANCH   5   8
BRANCH   2  22
ATOM     22  C   UNL     1       0.025   1.058   0.041  0.00  0.00    +0.181 C 
BRANCH  22  23
ATOM     23  N   UNL     1      -0.681   1.533  -1.152  0.00  0.00    -0.304 N 
ATOM     24  C   UNL     1      -0.222   1.215  -2.378  0.00  0.00    +0.245 C 
ATOM     25  O   UNL     1       0.778   0.533  -2.495  0.00  0.00    -0.270 OA
ATOM     26  H   UNL     1      -1.478   2.077  -1.058  0.00  0.00    +0.149 HD
BRANCH  24  27
ATOM     27  C   UNL     1      -0.933   1.694  -3.580  0.00  0.00    +0.040 A 
ATOM     28  C   UNL     1      -2.086   2.472  -3.447  0.00  0.00    +0.017 A 
ATOM     29  C   UNL     1      -2.745   2.923  -4.570  0.00  0.00    +0.050 A 
ATOM     30  C   UNL     1      -2.275   2.596  -5.835  0.00  0.00    +0.166 A 
ATOM     31  C   UNL     1      -1.128   1.814  -5.974  0.00  0.00    +0.167 A 
ATOM     32  C   UNL     1      -0.459   1.365  -4.852  0.00  0.00    +0.062 A 
ATOM     33  O   UNL     1      -0.880   1.638  -7.305  0.00  0.00    -0.453 OA
ATOM     34  C   UNL     1      -2.111   1.973  -7.972  0.00  0.00    +0.466 C 
ATOM     35  O   UNL     1      -2.742   2.908  -7.078  0.00  0.00    -0.453 OA
ENDBRANCH  24  27
ENDBRANCH  22  23
ENDBRANCH   2  22
TORSDOF 8
