REMARK  Name = ZINC60154313
REMARK  3 active torsions:
REMARK  status: ('A' for Active; 'I' for Inactive)
REMARK    1  A    between atoms: C_7  and  C_11
REMARK    2  A    between atoms: C_17  and  C_19
REMARK    3  A    between atoms: C_23  and  N_25
REMARK                            x       y       z     vdW  Elec       q    Type
REMARK                         _______ _______ _______ _____ _____    ______ ____
ROOT
ATOM      1  C   UNL     1      -3.554  -5.759   0.771  0.00  0.00    +0.039 A 
ATOM      2  C   UNL     1      -3.386  -4.756   1.728  0.00  0.00    +0.013 A 
ATOM      3  C   UNL     1      -4.489  -4.146   2.290  0.00  0.00    +0.003 A 
ATOM      4  C   UNL     1      -5.763  -4.525   1.909  0.00  0.00    +0.025 A 
ATOM      5  C   UNL     1      -5.941  -5.522   0.958  0.00  0.00    +0.057 A 
ATOM      6  C   UNL     1      -4.840  -6.137   0.383  0.00  0.00    +0.038 A 
ENDROOT
BRANCH   5   7
ATOM      7  N   UNL     1      -7.233  -5.902   0.576  0.00  0.00    -0.188 N 
ATOM      8  C   UNL     1      -8.162  -6.159   1.520  0.00  0.00    +0.240 C 
ATOM      9  O   UNL     1      -7.876  -6.111   2.698  0.00  0.00    -0.273 OA
ATOM     10  C   UNL     1      -9.572  -6.510   1.081  0.00  0.00    +0.093 C 
ATOM     11  C   UNL     1      -9.565  -7.986   0.664  0.00  0.00    +0.040 C 
ATOM     12  C   UNL     1     -10.767  -8.320  -0.162  0.00  0.00    -0.030 C 
ATOM     13  C   UNL     1     -11.510  -7.443  -0.757  0.00  0.00    -0.030 C 
ATOM     14  C   UNL     1     -11.275  -5.965  -0.680  0.00  0.00    +0.040 C 
ATOM     15  C   UNL     1      -9.893  -5.639  -0.140  0.00  0.00    +0.092 C 
ATOM     16  C   UNL     1      -8.835  -5.853  -1.187  0.00  0.00    +0.234 C 
ATOM     17  O   UNL     1      -9.123  -5.881  -2.364  0.00  0.00    -0.274 OA
ATOM     18  N   UNL     1      -7.554  -6.006  -0.785  0.00  0.00    -0.227 N 
ATOM     19  H   UNL     1      -6.860  -6.192  -1.437  0.00  0.00    +0.173 HD
ENDBRANCH   5   7
BRANCH   1  26
ATOM     20  C   UNL     1      -1.944 -10.304   0.469  0.00  0.00    -0.039 C 
ATOM     21  C   UNL     1      -3.185  -9.882   0.544  0.00  0.00    -0.004 C 
ATOM     22  C   UNL     1      -3.628  -8.525   0.070  0.00  0.00    +0.135 C 
ATOM     23  N   UNL     1      -2.443  -7.704  -0.217  0.00  0.00    -0.293 N 
ATOM     24  C   UNL     1      -1.334  -8.347  -0.943  0.00  0.00    +0.113 C 
ATOM     25  C   UNL     1      -0.805  -9.492  -0.072  0.00  0.00    +0.054 C 
ATOM     26  C   UNL     1      -2.374  -6.414   0.167  0.00  0.00    +0.247 C 
ATOM     27  O   UNL     1      -1.342  -5.790   0.018  0.00  0.00    -0.270 OA
BRANCH  20  34
ATOM     28  C   UNL     1      -1.581 -12.153   4.749  0.00  0.00    +0.001 A 
ATOM     29  C   UNL     1      -1.283 -13.508   4.721  0.00  0.00    +0.002 A 
ATOM     30  C   UNL     1      -1.126 -14.168   3.523  0.00  0.00    +0.026 A 
ATOM     31  C   UNL     1      -1.267 -13.472   2.326  0.00  0.00    +0.047 A 
ATOM     32  C   UNL     1      -1.569 -12.100   2.361  0.00  0.00    +0.007 A 
ATOM     33  C   UNL     1      -1.724 -11.451   3.585  0.00  0.00    +0.010 A 
ATOM     34  C   UNL     1      -1.649 -11.666   0.956  0.00  0.00    +0.003 A 
ATOM     35  C   UNL     1      -1.400 -12.763   0.196  0.00  0.00    +0.091 A 
ATOM     36  N   UNL     1      -1.172 -13.840   1.002  0.00  0.00    -0.360 N 
ATOM     37  H   UNL     1      -0.972 -14.736   0.688  0.00  0.00    +0.165 HD
ENDBRANCH  20  34
ENDBRANCH   1  26
TORSDOF 3
