REMARK  Name = ZINC01722044
REMARK  2 active torsions:
REMARK  status: ('A' for Active; 'I' for Inactive)
REMARK    1  A    between atoms: C_4  and  C_7
REMARK    2  A    between atoms: C_14  and  C_18
REMARK                            x       y       z     vdW  Elec       q    Type
REMARK                         _______ _______ _______ _____ _____    ______ ____
ROOT
ATOM      1  C   UNL     1      -1.263   1.479  -0.329  0.00  0.00    +0.107 C 
ATOM      2  C   UNL     1      -1.685   2.266   0.921  0.00  0.00    +0.181 C 
ATOM      3  S   UNL     1      -0.532   3.646   1.169  0.00  0.00    -0.029 S 
ATOM      4  O   UNL     1      -0.807   4.243   2.429  0.00  0.00    -0.174 OA
ATOM      5  O   UNL     1      -0.539   4.457   0.002  0.00  0.00    -0.174 OA
ATOM      6  C   UNL     1       1.071   2.799   1.272  0.00  0.00    +0.181 C 
ATOM      7  C   UNL     1       1.282   1.971   0.000  0.00  0.00    +0.107 C 
ATOM      8  C   UNL     1       0.150   0.988  -0.151  0.00  0.00    +0.151 C 
ATOM      9  O   UNL     1       0.377  -0.198  -0.135  0.00  0.00    -0.296 OA
ENDROOT
BRANCH   1  13
ATOM     10  C   UNL     1      -3.872  -1.861  -0.868  0.00  0.00    +0.000 A 
ATOM     11  C   UNL     1      -3.770  -0.897  -1.854  0.00  0.00    +0.000 A 
ATOM     12  C   UNL     1      -2.926   0.183  -1.679  0.00  0.00    +0.004 A 
ATOM     13  C   UNL     1      -2.184   0.301  -0.519  0.00  0.00    -0.036 A 
ATOM     14  C   UNL     1      -2.282  -0.666   0.465  0.00  0.00    +0.004 A 
ATOM     15  C   UNL     1      -3.130  -1.744   0.292  0.00  0.00    +0.000 A 
ENDBRANCH   1  13
BRANCH   7  16
ATOM     16  C   UNL     1       1.316   2.887  -1.196  0.00  0.00    -0.036 A 
ATOM     17  C   UNL     1       0.742   2.488  -2.388  0.00  0.00    +0.004 A 
ATOM     18  C   UNL     1       0.769   3.330  -3.484  0.00  0.00    +0.000 A 
ATOM     19  C   UNL     1       1.379   4.567  -3.391  0.00  0.00    +0.000 A 
ATOM     20  C   UNL     1       1.958   4.963  -2.200  0.00  0.00    +0.000 A 
ATOM     21  C   UNL     1       1.927   4.123  -1.102  0.00  0.00    +0.004 A 
ENDBRANCH   7  16
TORSDOF 2
