REMARK  Name = ZINC01335053
REMARK  15 active torsions:
REMARK  status: ('A' for Active; 'I' for Inactive)
REMARK    1  A    between atoms: C_1  and  C_2
REMARK    2  A    between atoms: C_7  and  C_15
REMARK    3  A    between atoms: C_13  and  C_14
REMARK    4  A    between atoms: C_15  and  N_16
REMARK    5  A    between atoms: N_16  and  C_17
REMARK    6  A    between atoms: N_16  and  C_24
REMARK    7  A    between atoms: C_17  and  C_18
REMARK    8  A    between atoms: C_24  and  C_26
REMARK    9  A    between atoms: C_24  and  C_40
REMARK   10  A    between atoms: N_30  and  C_31
REMARK   11  A    between atoms: C_31  and  C_32
REMARK   12  A    between atoms: C_35  and  O_38
REMARK   13  A    between atoms: O_38  and  C_39
REMARK   14  A    between atoms: C_40  and  C_41
REMARK   15  A    between atoms: C_40  and  C_42
REMARK                            x       y       z     vdW  Elec       q    Type
REMARK                         _______ _______ _______ _____ _____    ______ ____
ROOT
ATOM      1  N   UNL     1       0.972  -4.679   3.187  0.00  0.00    -0.284 NA
ENDROOT
BRANCH   1   2
ATOM      2  C   UNL     1       0.278  -3.638   2.418  0.00  0.00    +0.126 C 
BRANCH   2   9
ATOM      3  C   UNL     1       3.393   3.511   4.097  0.00  0.00    +0.044 C 
ATOM      4  C   UNL     1       2.958   2.155   3.604  0.00  0.00    -0.046 A 
ATOM      5  C   UNL     1       3.583   1.593   2.499  0.00  0.00    +0.004 A 
ATOM      6  C   UNL     1       3.204   0.365   2.035  0.00  0.00    +0.010 A 
ATOM      7  C   UNL     1       2.177  -0.333   2.680  0.00  0.00    -0.001 A 
ATOM      8  C   UNL     1       1.746  -1.651   2.211  0.00  0.00    +0.020 A 
ATOM      9  C   UNL     1       0.746  -2.280   2.876  0.00  0.00    +0.031 A 
ATOM     10  C   UNL     1       0.141  -1.668   3.994  0.00  0.00    +0.254 A 
ATOM     11  O   UNL     1      -0.756  -2.251   4.578  0.00  0.00    -0.268 OA
ATOM     12  N   UNL     1       0.530  -0.458   4.433  0.00  0.00    -0.322 N 
ATOM     13  H   UNL     1       0.093  -0.066   5.205  0.00  0.00    +0.169 HD
ATOM     14  C   UNL     1       1.541   0.234   3.801  0.00  0.00    +0.052 A 
ATOM     15  C   UNL     1       1.948   1.483   4.258  0.00  0.00    -0.024 A 
ATOM     16  C   UNL     1       1.283   2.103   5.460  0.00  0.00    +0.046 C 
ENDBRANCH   2   9
ENDBRANCH   1   2
BRANCH   1  17
ATOM     17  C   UNL     1       2.410  -4.686   2.887  0.00  0.00    +0.122 C 
BRANCH  17  18
ATOM     18  C   UNL     1       3.149  -5.406   3.985  0.00  0.00    -0.015 A 
ATOM     19  C   UNL     1       3.007  -5.008   5.306  0.00  0.00    +0.008 A 
ATOM     20  C   UNL     1       3.706  -5.699   6.283  0.00  0.00    +0.020 A 
ATOM     21  C   UNL     1       4.516  -6.756   5.910  0.00  0.00    +0.111 A 
ATOM     22  N   UNL     1       4.628  -7.107   4.644  0.00  0.00    -0.263 NA
ATOM     23  C   UNL     1       3.973  -6.475   3.689  0.00  0.00    +0.115 A 
ENDBRANCH  17  18
ENDBRANCH   1  17
BRANCH   1  24
ATOM     24  C   UNL     1       0.377  -6.000   2.941  0.00  0.00    +0.130 C 
BRANCH  24  25
ATOM     25  C   UNL     1      -1.126  -5.884   2.957  0.00  0.00    +0.169 A 
ATOM     26  N   UNL     1      -1.871  -5.508   3.967  0.00  0.00    -0.112 NA
ATOM     27  N   UNL     1      -3.102  -5.538   3.587  0.00  0.00    -0.023 NA
ATOM     28  N   UNL     1      -3.160  -5.924   2.360  0.00  0.00    -0.044 NA
ATOM     29  N   UNL     1      -1.962  -6.142   1.934  0.00  0.00    -0.223 N 
BRANCH  29  30
ATOM     30  C   UNL     1      -1.583  -6.589   0.592  0.00  0.00    +0.182 C 
BRANCH  30  31
ATOM     31  C   UNL     1      -1.717  -8.087   0.505  0.00  0.00    -0.026 A 
ATOM     32  C   UNL     1      -0.614  -8.892   0.726  0.00  0.00    +0.009 A 
ATOM     33  C   UNL     1      -0.734 -10.266   0.646  0.00  0.00    +0.046 A 
ATOM     34  C   UNL     1      -1.961 -10.838   0.345  0.00  0.00    +0.120 A 
ATOM     35  C   UNL     1      -3.066 -10.029   0.124  0.00  0.00    +0.046 A 
ATOM     36  C   UNL     1      -2.942  -8.655   0.210  0.00  0.00    +0.009 A 
BRANCH  34  37
ATOM     37  O   UNL     1      -2.081 -12.190   0.266  0.00  0.00    -0.495 OA
ATOM     38  C   UNL     1      -3.375 -12.709  -0.048  0.00  0.00    +0.277 C 
ENDBRANCH  34  37
ENDBRANCH  30  31
ENDBRANCH  29  30
ENDBRANCH  24  25
BRANCH  24  39
ATOM     39  C   UNL     1       0.825  -6.973   4.034  0.00  0.00    +0.008 C 
ATOM     40  C   UNL     1       0.388  -6.441   5.401  0.00  0.00    +0.009 C 
ATOM     41  C   UNL     1       0.186  -8.342   3.791  0.00  0.00    +0.009 C 
ENDBRANCH  24  39
ENDBRANCH   1  24
TORSDOF 10
