REMARK  Name = ZINC20816767
REMARK  9 active torsions:
REMARK  status: ('A' for Active; 'I' for Inactive)
REMARK    1  A    between atoms: C_1  and  C_2
REMARK    2  A    between atoms: N_4  and  C_19
REMARK    3  A    between atoms: N_13  and  C_18
REMARK    4  A    between atoms: N_16  and  C_17
REMARK    5  A    between atoms: C_19  and  C_20
REMARK    6  A    between atoms: C_20  and  N_21
REMARK    7  A    between atoms: N_24  and  C_27
REMARK    8  A    between atoms: C_27  and  C_28
REMARK    9  A    between atoms: C_27  and  C_34
REMARK                            x       y       z     vdW  Elec       q    Type
REMARK                         _______ _______ _______ _____ _____    ______ ____
ROOT
ATOM      1  C   UNL     1      -3.093   4.412   1.519  0.00  0.00    -0.057 C 
ENDROOT
BRANCH   1   2
ATOM      2  N   UNL     1      -4.483   4.675   1.915  0.00  0.00    +0.382 N 
ATOM      3  C   UNL     1      -5.008   5.867   1.234  0.00  0.00    -0.063 C 
ATOM      4  C   UNL     1      -6.479   6.060   1.610  0.00  0.00    +0.067 C 
ATOM      5  N   UNL     1      -6.595   6.196   3.069  0.00  0.00    -0.295 NA
ATOM      6  C   UNL     1      -6.070   5.004   3.749  0.00  0.00    +0.067 C 
ATOM      7  C   UNL     1      -4.599   4.811   3.373  0.00  0.00    -0.063 C 
ATOM      8  H   UNL     1      -5.090   3.812   1.604  0.00  0.00    -0.082 HD
BRANCH   5   9
ATOM      9  C   UNL     1      -7.985   6.459   3.464  0.00  0.00    +0.117 C 
BRANCH   9  10
ATOM     10  C   UNL     1      -8.060   6.619   4.960  0.00  0.00    -0.026 A 
ATOM     11  C   UNL     1      -7.112   7.375   5.624  0.00  0.00    +0.005 A 
ATOM     12  C   UNL     1      -7.184   7.525   6.996  0.00  0.00    +0.000 A 
ATOM     13  C   UNL     1      -8.198   6.911   7.706  0.00  0.00    +0.000 A 
ATOM     14  C   UNL     1      -9.143   6.150   7.044  0.00  0.00    +0.000 A 
ATOM     15  C   UNL     1      -9.075   6.004   5.671  0.00  0.00    +0.005 A 
ENDBRANCH   9  10
BRANCH   9  16
ATOM     16  C   UNL     1      -8.466   7.724   2.799  0.00  0.00    -0.026 A 
ATOM     17  C   UNL     1      -7.654   8.842   2.772  0.00  0.00    +0.005 A 
ATOM     18  C   UNL     1      -8.092  10.000   2.159  0.00  0.00    +0.000 A 
ATOM     19  C   UNL     1      -9.347  10.043   1.580  0.00  0.00    +0.000 A 
ATOM     20  C   UNL     1     -10.162   8.927   1.612  0.00  0.00    +0.000 A 
ATOM     21  C   UNL     1      -9.720   7.767   2.221  0.00  0.00    +0.005 A 
ENDBRANCH   9  16
ENDBRANCH   5   9
ENDBRANCH   1   2
BRANCH   1  22
ATOM     22  C   UNL     1      -3.047   4.031   0.038  0.00  0.00    +0.117 C 
BRANCH  22  26
ATOM     23  C   UNL     1       1.206   5.825  -1.522  0.00  0.00    +0.064 C 
ATOM     24  C   UNL     1       0.424   4.657  -0.977  0.00  0.00    +0.054 C 
ATOM     25  N   UNL     1      -0.832   4.792  -0.846  0.00  0.00    -0.185 NA
ATOM     26  N   UNL     1      -1.661   3.769  -0.356  0.00  0.00    -0.194 N 
ATOM     27  C   UNL     1      -1.111   2.505  -0.262  0.00  0.00    +0.221 A 
ATOM     28  N   UNL     1      -1.696   1.352  -0.063  0.00  0.00    -0.195 NA
ATOM     29  C   UNL     1      -0.782   0.376  -0.048  0.00  0.00    +0.170 A 
ATOM     30  C   UNL     1       0.466   0.960  -0.261  0.00  0.00    +0.153 A 
ATOM     31  N   UNL     1       0.238   2.313  -0.393  0.00  0.00    -0.299 N 
ATOM     32  C   UNL     1       1.180   3.406  -0.623  0.00  0.00    +0.177 C 
ATOM     33  C   UNL     1       1.606   0.137  -0.295  0.00  0.00    +0.282 A 
ATOM     34  O   UNL     1       2.709   0.622  -0.480  0.00  0.00    -0.265 OA
ATOM     35  N   UNL     1       1.469  -1.194  -0.123  0.00  0.00    -0.262 N 
ATOM     36  C   UNL     1       0.260  -1.745   0.081  0.00  0.00    +0.333 A 
ATOM     37  O   UNL     1       0.175  -2.949   0.232  0.00  0.00    -0.246 OA
ATOM     38  N   UNL     1      -0.858  -0.996   0.122  0.00  0.00    -0.280 N 
ATOM     39  C   UNL     1      -2.157  -1.635   0.347  0.00  0.00    +0.155 C 
ATOM     40  C   UNL     1       2.656  -2.052  -0.160  0.00  0.00    +0.157 C 
ENDBRANCH  22  26
ENDBRANCH   1  22
TORSDOF 6
