REMARK  Name = ZINC40008014
REMARK  13 active torsions:
REMARK  status: ('A' for Active; 'I' for Inactive)
REMARK    1  A    between atoms: C_1  and  C_2
REMARK    2  A    between atoms: C_2  and  CA_3
REMARK    3  A    between atoms: CA_3  and  C_5
REMARK    4  A    between atoms: CA_3  and  N_7
REMARK    5  A    between atoms: C_5  and  O_6
REMARK    6  A    between atoms: N_7  and  C_8
REMARK    7  A    between atoms: C_9  and  C_20
REMARK    8  A    between atoms: C_16  and  C_19
REMARK    9  A    between atoms: N_24  and  C_28
REMARK   10  A    between atoms: C_28  and  C_29
REMARK   11  A    between atoms: C_29  and  C_30
REMARK   12  A    between atoms: C_33  and  O_36
REMARK   13  A    between atoms: O_36  and  C_37
REMARK                            x       y       z     vdW  Elec       q    Type
REMARK                         _______ _______ _______ _____ _____    ______ ____
ROOT
ATOM      1  C   UNL     1      -0.050   1.194   2.859  0.00  0.00    +0.134 A 
ATOM      2  C   UNL     1      -0.559   1.459   4.152  0.00  0.00    +0.081 A 
ATOM      3  C   UNL     1      -0.148   2.646   4.805  0.00  0.00    +0.267 A 
ATOM      4  O   UNL     1      -0.562   2.914   5.920  0.00  0.00    -0.267 OA
ATOM      5  N   UNL     1       0.710   3.475   4.172  0.00  0.00    -0.267 N 
ATOM      6  C   UNL     1       1.111   4.620   4.794  0.00  0.00    +0.096 A 
ATOM      7  C   UNL     1       1.969   5.471   4.189  0.00  0.00    +0.019 A 
ATOM      8  C   UNL     1       2.459   5.184   2.907  0.00  0.00    +0.008 A 
ATOM      9  C   UNL     1       2.063   4.041   2.277  0.00  0.00    -0.007 A 
ATOM     10  C   UNL     1       1.170   3.167   2.922  0.00  0.00    +0.145 A 
ATOM     11  N   UNL     1       0.793   2.050   2.300  0.00  0.00    -0.214 NA
ATOM     12  C   UNL     1       2.579   3.718   0.899  0.00  0.00    +0.047 C 
ENDROOT
BRANCH   2  13
ATOM     13  C   UNL     1      -1.457   0.562   4.776  0.00  0.00    +0.037 C 
ATOM     14  C   UNL     1      -1.104  -0.745   4.952  0.00  0.00    +0.077 C 
ATOM     15  C   UNL     1      -1.882  -1.836   5.433  0.00  0.00    +0.258 C 
ATOM     16  O   UNL     1      -3.045  -1.680   5.761  0.00  0.00    -0.269 OA
ATOM     17  N   UNL     1      -1.307  -3.023   5.513  0.00  0.00    -0.255 N 
ATOM     18  C   UNL     1      -0.016  -3.196   5.149  0.00  0.00    +0.121 C 
ATOM     19  S   UNL     1       0.922  -4.628   5.170  0.00  0.00    -0.027 S 
ATOM     20  S   UNL     1       0.458  -1.553   4.633  0.00  0.00    -0.061 S 
BRANCH  17  21
ATOM     21  C   UNL     1      -2.078  -4.168   6.005  0.00  0.00    +0.119 C 
BRANCH  21  22
ATOM     22  C   UNL     1      -2.767  -4.862   4.828  0.00  0.00    +0.054 C 
BRANCH  22  23
ATOM     23  C   UNL     1      -3.561  -6.039   5.333  0.00  0.00    -0.046 A 
ATOM     24  C   UNL     1      -2.965  -7.283   5.426  0.00  0.00    +0.007 A 
ATOM     25  C   UNL     1      -3.691  -8.364   5.888  0.00  0.00    +0.046 A 
ATOM     26  C   UNL     1      -5.017  -8.200   6.260  0.00  0.00    +0.120 A 
ATOM     27  C   UNL     1      -5.612  -6.950   6.167  0.00  0.00    +0.046 A 
ATOM     28  C   UNL     1      -4.881  -5.871   5.708  0.00  0.00    +0.007 A 
BRANCH  26  29
ATOM     29  O   UNL     1      -5.733  -9.262   6.715  0.00  0.00    -0.495 OA
ATOM     30  C   UNL     1      -7.093  -9.019   7.080  0.00  0.00    +0.277 C 
ENDBRANCH  26  29
ENDBRANCH  22  23
ENDBRANCH  21  22
ENDBRANCH  17  21
ENDBRANCH   2  13
BRANCH   1  31
ATOM     31  N   UNL     1      -0.424   0.050   2.188  0.00  0.00    -0.323 N 
ATOM     32  H   UNL     1      -1.041  -0.575   2.599  0.00  0.00    +0.148 HD
BRANCH  31  33
ATOM     33  CA  UNL     1       0.112  -0.223   0.851  0.00  0.00    +0.097 C 
BRANCH  33  35
ATOM     34  C   UNL     1      -0.612   2.007  -0.010  0.00  0.00    +0.006 C 
ATOM     35  C   UNL     1      -0.742   0.494  -0.196  0.00  0.00    +0.021 C 
ENDBRANCH  33  35
BRANCH  33  36
ATOM     36  C   UNL     1       0.082  -1.730   0.588  0.00  0.00    +0.178 C 
BRANCH  36  37
ATOM     37  O   UNL     1      -1.274  -2.181   0.552  0.00  0.00    -0.393 OA
ATOM     38  H   UNL     1      -1.369  -3.129   0.388  0.00  0.00    +0.209 HD
ENDBRANCH  36  37
ENDBRANCH  33  36
ENDBRANCH  31  33
ENDBRANCH   1  31
TORSDOF 10
