REMARK  Name = ZINC08800273
REMARK  11 active torsions:
REMARK  status: ('A' for Active; 'I' for Inactive)
REMARK    1  A    between atoms: C_1  and  C_2
REMARK    2  A    between atoms: C_2  and  C_3
REMARK    3  A    between atoms: N_5  and  C_6
REMARK    4  A    between atoms: C_9  and  S_13
REMARK    5  A    between atoms: C_10  and  C_12
REMARK    6  A    between atoms: S_13  and  N_16
REMARK    7  A    between atoms: N_16  and  C_17
REMARK    8  A    between atoms: C_17  and  C_18
REMARK    9  A    between atoms: C_18  and  C_20
REMARK   10  A    between atoms: C_18  and  N_73
REMARK   11  A    between atoms: N_29  and  C_30
REMARK                            x       y       z     vdW  Elec       q    Type
REMARK                         _______ _______ _______ _____ _____    ______ ____
ROOT
ATOM      1  C   UNL     1      -8.535   0.515   3.179  0.00  0.00    +0.095 C 
ENDROOT
BRANCH   1   2
ATOM      2  N   UNL     1      -8.584  -0.945   3.066  0.00  0.00    -0.191 NA
ATOM      3  H   UNL     1      -9.026  -1.470   3.751  0.00  0.00    +0.148 HD
BRANCH   2   4
ATOM      4  S   UNL     1      -7.884  -1.699   1.768  0.00  0.00    +0.059 S 
ATOM      5  O   UNL     1      -8.390  -1.059   0.605  0.00  0.00    -0.153 OA
ATOM      6  O   UNL     1      -8.020  -3.096   1.989  0.00  0.00    -0.153 OA
BRANCH   4  10
ATOM      7  C   UNL     1      -3.450  -0.791   1.921  0.00  0.00    +0.034 A 
ATOM      8  C   UNL     1      -4.216  -0.340   0.854  0.00  0.00    +0.025 A 
ATOM      9  C   UNL     1      -5.567  -0.623   0.808  0.00  0.00    +0.030 A 
ATOM     10  C   UNL     1      -6.159  -1.345   1.828  0.00  0.00    +0.108 A 
ATOM     11  C   UNL     1      -5.400  -1.791   2.894  0.00  0.00    -0.022 A 
ATOM     12  C   UNL     1      -4.047  -1.516   2.944  0.00  0.00    +0.028 A 
ATOM     13  C   UNL     1      -6.049  -2.578   4.003  0.00  0.00    +0.046 C 
BRANCH   7  16
ATOM     14  C   UNL     1      -1.358  -0.483   0.831  0.00  0.00    +0.217 C 
ATOM     15  O   UNL     1      -1.875  -0.786  -0.224  0.00  0.00    -0.275 OA
ATOM     16  N   UNL     1      -2.080  -0.510   1.968  0.00  0.00    -0.285 N 
ATOM     17  H   UNL     1      -1.650  -0.335   2.820  0.00  0.00    +0.155 HD
BRANCH  14  19
ATOM     18  C   UNL     1       0.671  -0.118  -0.548  0.00  0.00    +0.013 C 
ATOM     19  C   UNL     1       0.091  -0.070   0.867  0.00  0.00    +0.093 C 
ENDBRANCH  14  19
ENDBRANCH   7  16
ENDBRANCH   4  10
ENDBRANCH   2   4
ENDBRANCH   1   2
BRANCH   1  20
ATOM     20  C   UNL     1      -9.567   0.982   4.207  0.00  0.00    -0.022 C 
BRANCH  20  21
ATOM     21  C   UNL     1      -9.603   2.488   4.234  0.00  0.00    -0.059 A 
ATOM     22  C   UNL     1      -9.731   3.199   3.055  0.00  0.00    +0.004 A 
ATOM     23  C   UNL     1      -9.767   4.577   3.083  0.00  0.00    +0.023 A 
ATOM     24  C   UNL     1      -9.662   5.262   4.295  0.00  0.00    +0.033 A 
ATOM     25  C   UNL     1      -9.532   4.545   5.471  0.00  0.00    -0.026 A 
ATOM     26  C   UNL     1      -9.502   3.160   5.436  0.00  0.00    +0.007 A 
ATOM     27  C   UNL     1      -9.425   5.225   6.814  0.00  0.00    +0.038 C 
ATOM     28  C   UNL     1      -9.095   6.706   6.616  0.00  0.00    +0.024 C 
ATOM     29  C   UNL     1     -10.037   7.261   5.542  0.00  0.00    +0.105 C 
ATOM     30  N   UNL     1      -9.689   6.655   4.255  0.00  0.00    -0.333 N 
ATOM     31  C   UNL     1     -10.581   7.134   3.189  0.00  0.00    +0.129 C 
ENDBRANCH  20  21
BRANCH  20  37
ATOM     32  C   UNL     1     -11.330   1.015   2.549  0.00  0.00    -0.078 C 
ATOM     33  C   UNL     1     -12.642   0.349   2.128  0.00  0.00    -0.019 C 
ATOM     34  C   UNL     1     -13.705   0.606   3.200  0.00  0.00    -0.004 C 
ATOM     35  C   UNL     1     -13.204   0.069   4.544  0.00  0.00    -0.019 C 
ATOM     36  C   UNL     1     -11.876   0.743   4.894  0.00  0.00    -0.078 C 
ATOM     37  N   UNL     1     -10.889   0.437   3.836  0.00  0.00    +0.385 N 
ATOM     38  H   UNL     1     -10.814  -0.582   3.735  0.00  0.00    -0.081 HD
ENDBRANCH  20  37
ENDBRANCH   1  20
TORSDOF 8
