REMARK  Name = ZINC41006818
REMARK  8 active torsions:
REMARK  status: ('A' for Active; 'I' for Inactive)
REMARK    1  A    between atoms: C_1  and  C_2
REMARK    2  A    between atoms: C_2  and  O_39
REMARK    3  A    between atoms: C_6  and  C_30
REMARK    4  A    between atoms: C_8  and  C_21
REMARK    5  A    between atoms: C_10  and  C_12
REMARK    6  A    between atoms: N_14  and  C_15
REMARK    7  A    between atoms: C_26  and  N_27
REMARK    8  A    between atoms: N_32  and  C_33
REMARK                            x       y       z     vdW  Elec       q    Type
REMARK                         _______ _______ _______ _____ _____    ______ ____
ROOT
ATOM      1  C   UNL     1       4.035   1.595   2.126  0.00  0.00    +0.042 C 
ATOM      2  C   UNL     1       3.764   0.108   1.888  0.00  0.00    +0.082 C 
ATOM      3  C   UNL     1       4.819  -0.728   2.619  0.00  0.00    +0.110 C 
ATOM      4  C   UNL     1       4.650  -0.520   4.108  0.00  0.00    +0.148 C 
ATOM      5  O   UNL     1       5.590  -0.212   4.801  0.00  0.00    -0.296 OA
ATOM      6  C   UNL     1       3.273  -0.707   4.706  0.00  0.00    +0.149 C 
ATOM      7  C   UNL     1       2.274   0.128   3.899  0.00  0.00    +0.055 C 
ATOM      8  C   UNL     1       2.375  -0.248   2.420  0.00  0.00    +0.115 C 
ENDROOT
BRANCH   7   9
ATOM      9  C   UNL     1       0.877  -0.144   4.393  0.00  0.00    -0.012 A 
ATOM     10  C   UNL     1       0.515  -1.423   4.773  0.00  0.00    +0.006 A 
ATOM     11  C   UNL     1      -0.767  -1.673   5.227  0.00  0.00    +0.000 A 
ATOM     12  C   UNL     1      -1.687  -0.644   5.300  0.00  0.00    +0.002 A 
ATOM     13  C   UNL     1      -1.325   0.635   4.921  0.00  0.00    +0.033 A 
ATOM     14  C   UNL     1      -0.042   0.886   4.472  0.00  0.00    +0.130 A 
BRANCH  14  15
ATOM     15  N   UNL     1       0.347   2.256   4.070  0.00  0.00    +0.057 N 
ATOM     16  O   UNL     1      -0.033   3.206   4.715  0.00  0.00    -0.126 OA
ATOM     17  O   UNL     1       1.045   2.426   3.098  0.00  0.00    -0.126 OA
ENDBRANCH  14  15
ENDBRANCH   7   9
BRANCH   8  18
ATOM     18  C   UNL     1       2.143  -1.729   2.263  0.00  0.00    +0.224 C 
ATOM     19  O   UNL     1       2.898  -2.520   2.788  0.00  0.00    -0.275 OA
ATOM     20  N   UNL     1       1.097  -2.175   1.540  0.00  0.00    -0.285 N 
ATOM     21  H   UNL     1       0.537  -1.545   1.058  0.00  0.00    +0.155 HD
BRANCH  20  22
ATOM     22  C   UNL     1       0.819  -3.545   1.483  0.00  0.00    +0.033 A 
ATOM     23  C   UNL     1      -0.497  -3.986   1.428  0.00  0.00    +0.023 A 
ATOM     24  C   UNL     1      -0.768  -5.338   1.372  0.00  0.00    +0.002 A 
ATOM     25  C   UNL     1       0.268  -6.254   1.370  0.00  0.00    +0.000 A 
ATOM     26  C   UNL     1       1.579  -5.818   1.425  0.00  0.00    +0.002 A 
ATOM     27  C   UNL     1       1.858  -4.466   1.475  0.00  0.00    +0.023 A 
ENDBRANCH  20  22
ENDBRANCH   8  18
BRANCH   6  28
ATOM     28  C   UNL     1       3.279  -0.248   6.142  0.00  0.00    +0.228 C 
ATOM     29  O   UNL     1       2.543   0.649   6.495  0.00  0.00    -0.275 OA
ATOM     30  N   UNL     1       4.101  -0.836   7.034  0.00  0.00    -0.285 N 
ATOM     31  H   UNL     1       4.746  -1.497   6.737  0.00  0.00    +0.155 HD
BRANCH  30  32
ATOM     32  C   UNL     1       4.026  -0.491   8.388  0.00  0.00    +0.033 A 
ATOM     33  C   UNL     1       5.171  -0.500   9.173  0.00  0.00    +0.023 A 
ATOM     34  C   UNL     1       5.093  -0.159  10.509  0.00  0.00    +0.002 A 
ATOM     35  C   UNL     1       3.877   0.191  11.065  0.00  0.00    +0.000 A 
ATOM     36  C   UNL     1       2.734   0.200  10.286  0.00  0.00    +0.002 A 
ATOM     37  C   UNL     1       2.806  -0.134   8.948  0.00  0.00    +0.023 A 
ENDBRANCH  30  32
ENDBRANCH   6  28
BRANCH   2  38
ATOM     38  O   UNL     1       3.823  -0.169   0.487  0.00  0.00    -0.388 OA
ATOM     39  H   UNL     1       4.677   0.034   0.082  0.00  0.00    +0.210 HD
ENDBRANCH   2  38
TORSDOF 7
