REMARK  Name = ZINC40947165
REMARK  15 active torsions:
REMARK  status: ('A' for Active; 'I' for Inactive)
REMARK    1  A    between atoms: C_1  and  C_2
REMARK    2  A    between atoms: C_2  and  C_3
REMARK    3  A    between atoms: C_3  and  C_4
REMARK    4  A    between atoms: C_4  and  C_5
REMARK    5  A    between atoms: C_5  and  C_6
REMARK    6  A    between atoms: C_6  and  O_7
REMARK    7  A    between atoms: O_7  and  C_8
REMARK    8  A    between atoms: C_9  and  O_28
REMARK    9  A    between atoms: C_11  and  C_15
REMARK   10  A    between atoms: N_16  and  N_17
REMARK   11  A    between atoms: C_18  and  C_20
REMARK   12  A    between atoms: C_20  and  S_21
REMARK   13  A    between atoms: S_21  and  C_22
REMARK   14  A    between atoms: O_28  and  C_29
REMARK   15  A    between atoms: C_29  and  C_30
REMARK                            x       y       z     vdW  Elec       q    Type
REMARK                         _______ _______ _______ _____ _____    ______ ____
ROOT
ATOM      1  C   UNL     1      -2.948  -6.369  -0.213  0.00  0.00    +0.176 A 
ATOM      2  C   UNL     1      -3.808  -6.780  -1.230  0.00  0.00    +0.164 A 
ATOM      3  C   UNL     1      -4.411  -8.022  -1.165  0.00  0.00    +0.059 A 
ATOM      4  C   UNL     1      -4.156  -8.863  -0.078  0.00  0.00    -0.001 A 
ATOM      5  C   UNL     1      -3.294  -8.445   0.938  0.00  0.00    +0.028 A 
ATOM      6  C   UNL     1      -2.691  -7.206   0.863  0.00  0.00    +0.064 A 
ATOM      7 BR   UNL     1      -1.516  -6.644   2.235  0.00  0.00    -0.046 Br
ENDROOT
BRANCH   4   8
ATOM      8  C   UNL     1      -4.798 -10.189  -0.004  0.00  0.00    +0.138 C 
ATOM      9  N   UNL     1      -4.801 -10.846   1.115  0.00  0.00    -0.188 NA
BRANCH   9  10
ATOM     10  N   UNL     1      -4.712 -10.158   2.332  0.00  0.00    -0.206 N 
ATOM     11  C   UNL     1      -4.583 -10.843   3.486  0.00  0.00    +0.242 C 
ATOM     12  O   UNL     1      -4.543 -12.055   3.470  0.00  0.00    -0.273 OA
ATOM     13  H   UNL     1      -4.744  -9.188   2.345  0.00  0.00    +0.177 HD
BRANCH  11  14
ATOM     14  C   UNL     1      -4.488 -10.102   4.795  0.00  0.00    +0.173 C 
BRANCH  14  15
ATOM     15  S   UNL     1      -4.322 -11.294   6.153  0.00  0.00    -0.088 S 
BRANCH  15  16
ATOM     16  C   UNL     1      -4.224 -10.286   7.595  0.00  0.00    +0.160 A 
ATOM     17  N   UNL     1      -4.264  -8.971   7.700  0.00  0.00    -0.133 NA
ATOM     18  N   UNL     1      -4.170  -8.381   8.939  0.00  0.00    -0.125 NA
ATOM     19  C   UNL     1      -4.038  -9.132  10.016  0.00  0.00    +0.180 A 
ATOM     20  S   UNL     1      -4.050 -10.771   9.305  0.00  0.00    -0.025 S 
ATOM     21  N   UNL     1      -3.927  -8.750  11.347  0.00  0.00    -0.336 N 
ATOM     22  H   UNL     1      -3.941  -7.810  11.585  0.00  0.00    +0.144 HD
ATOM     23  H   UNL     1      -3.835  -9.424  12.039  0.00  0.00    +0.144 HD
ENDBRANCH  15  16
ENDBRANCH  14  15
ENDBRANCH  11  14
ENDBRANCH   9  10
ENDBRANCH   4   8
BRANCH   1  24
ATOM     24  O   UNL     1      -2.356  -5.147  -0.279  0.00  0.00    -0.487 OA
BRANCH  24  25
ATOM     25  C   UNL     1      -1.092  -5.074  -0.941  0.00  0.00    +0.229 C 
BRANCH  25  26
ATOM     26  C   UNL     1      -0.586  -3.630  -0.915  0.00  0.00    +0.041 C 
BRANCH  26  27
ATOM     27  C   UNL     1       0.768  -3.551  -1.625  0.00  0.00    +0.003 C 
BRANCH  27  28
ATOM     28  C   UNL     1       1.274  -2.108  -1.599  0.00  0.00    -0.000 C 
BRANCH  28  30
ATOM     29  C   UNL     1       3.134  -0.585  -2.282  0.00  0.00    +0.004 C 
ATOM     30  C   UNL     1       2.627  -2.029  -2.308  0.00  0.00    -0.003 C 
ENDBRANCH  28  30
ENDBRANCH  27  28
ENDBRANCH  26  27
ENDBRANCH  25  26
ENDBRANCH  24  25
ENDBRANCH   1  24
BRANCH   2  31
ATOM     31  O   UNL     1      -4.054  -5.959  -2.286  0.00  0.00    -0.489 OA
BRANCH  31  32
ATOM     32  C   UNL     1      -4.945  -6.445  -3.291  0.00  0.00    +0.226 C 
ATOM     33  C   UNL     1      -5.097  -5.392  -4.390  0.00  0.00    +0.048 C 
ENDBRANCH  31  32
ENDBRANCH   2  31
TORSDOF 13
