REMARK  Name = ZINC37462303
REMARK  9 active torsions:
REMARK  status: ('A' for Active; 'I' for Inactive)
REMARK    1  A    between atoms: C_1  and  C_2
REMARK    2  A    between atoms: C_2  and  C_3
REMARK    3  A    between atoms: C_2  and  C_4
REMARK    4  A    between atoms: C_4  and  O_35
REMARK    5  A    between atoms: C_5  and  C_31
REMARK    6  A    between atoms: C_7  and  C_23
REMARK    7  A    between atoms: N_12  and  C_13
REMARK    8  A    between atoms: C_31  and  O_33
REMARK    9  A    between atoms: O_33  and  C_34
REMARK                            x       y       z     vdW  Elec       q    Type
REMARK                         _______ _______ _______ _____ _____    ______ ____
ROOT
ATOM      1  C   UNL     1      -0.407  -1.179   0.057  0.00  0.00    +0.156 C 
ATOM      2  C   UNL     1      -1.419  -2.301  -0.196  0.00  0.00    +0.173 C 
ATOM      3  C   UNL     1      -2.832  -1.725  -0.054  0.00  0.00    +0.123 C 
ATOM      4  N   UNL     1      -2.978  -0.584  -0.960  0.00  0.00    -0.318 N 
ATOM      5  C   UNL     1      -1.926   0.174  -1.302  0.00  0.00    +0.140 C 
ATOM      6  S   UNL     1      -2.176   1.502  -2.353  0.00  0.00    -0.018 S 
ATOM      7  N   UNL     1      -0.685  -0.068  -0.855  0.00  0.00    -0.253 N 
ATOM      8  H   UNL     1      -3.854  -0.371  -1.318  0.00  0.00    +0.148 HD
ENDROOT
BRANCH   7   9
ATOM      9  C   UNL     1       0.367   0.761  -1.267  0.00  0.00    +0.042 A 
ATOM     10  C   UNL     1       1.048   0.484  -2.445  0.00  0.00    +0.027 A 
ATOM     11  C   UNL     1       2.086   1.300  -2.851  0.00  0.00    +0.051 A 
ATOM     12  C   UNL     1       2.451   2.398  -2.085  0.00  0.00    +0.162 A 
ATOM     13  C   UNL     1       1.769   2.678  -0.906  0.00  0.00    +0.164 A 
ATOM     14  C   UNL     1       0.725   1.861  -0.501  0.00  0.00    +0.073 A 
ATOM     15  O   UNL     1       2.108   3.755  -0.145  0.00  0.00    -0.485 OA
ATOM     16  C   UNL     1       3.392   4.338  -0.390  0.00  0.00    +0.270 C 
ATOM     17  C   UNL     1       3.572   4.488  -1.906  0.00  0.00    +0.270 C 
ATOM     18  O   UNL     1       3.479   3.188  -2.499  0.00  0.00    -0.485 OA
ENDBRANCH   7   9
BRANCH   3  19
ATOM     19  C   UNL     1      -3.846  -2.783  -0.408  0.00  0.00    +0.009 A 
ATOM     20  C   UNL     1      -4.354  -2.851  -1.692  0.00  0.00    +0.011 A 
ATOM     21  C   UNL     1      -5.283  -3.821  -2.017  0.00  0.00    +0.039 A 
ATOM     22  C   UNL     1      -5.706  -4.725  -1.058  0.00  0.00    +0.126 A 
ATOM     23  C   UNL     1      -5.198  -4.657   0.228  0.00  0.00    +0.077 A 
ATOM     24  C   UNL     1      -4.263  -3.689   0.552  0.00  0.00    +0.131 A 
ATOM     25  F   UNL     1      -3.763  -3.626   1.805  0.00  0.00    -0.205 F 
ATOM     26  F   UNL     1      -6.615  -5.673  -1.376  0.00  0.00    -0.205 F 
ENDBRANCH   3  19
BRANCH   1  28
ATOM     27  C   UNL     1       2.027  -0.652   0.256  0.00  0.00    +0.012 C 
ATOM     28  C   UNL     1       1.009  -1.703  -0.192  0.00  0.00    +0.034 C 
ATOM     29  C   UNL     1       1.223  -2.992   0.603  0.00  0.00    +0.012 C 
ENDBRANCH   1  28
BRANCH   2  30
ATOM     30  C   UNL     1      -1.230  -2.850  -1.587  0.00  0.00    +0.317 C 
ATOM     31  O   UNL     1      -0.850  -2.126  -2.476  0.00  0.00    -0.250 OA
BRANCH  30  32
ATOM     32  O   UNL     1      -1.483  -4.144  -1.838  0.00  0.00    -0.468 OA
ATOM     33  C   UNL     1      -1.282  -4.597  -3.178  0.00  0.00    +0.280 C 
ENDBRANCH  30  32
ENDBRANCH   2  30
BRANCH   1  34
ATOM     34  O   UNL     1      -0.519  -0.729   1.408  0.00  0.00    -0.370 OA
ATOM     35  H   UNL     1       0.092  -0.015   1.637  0.00  0.00    +0.212 HD
ENDBRANCH   1  34
TORSDOF 6
