REMARK  Name = ZINC39710206
REMARK  10 active torsions:
REMARK  status: ('A' for Active; 'I' for Inactive)
REMARK    1  A    between atoms: C_1  and  C_2
REMARK    2  A    between atoms: C_9  and  C_14
REMARK    3  A    between atoms: C_14  and  C_16
REMARK    4  A    between atoms: C_14  and  N_25
REMARK    5  A    between atoms: N_20  and  C_21
REMARK    6  A    between atoms: C_21  and  C_22
REMARK    7  A    between atoms: C_22  and  O_23
REMARK    8  A    between atoms: O_23  and  C_24
REMARK    9  A    between atoms: N_28  and  C_31
REMARK   10  A    between atoms: C_35  and  C_37
REMARK                            x       y       z     vdW  Elec       q    Type
REMARK                         _______ _______ _______ _____ _____    ______ ____
ROOT
ATOM      1  C   UNL     1      -1.344  -5.088   2.791  0.00  0.00    +0.142 C 
ENDROOT
BRANCH   1  10
ATOM      2  C   UNL     1       5.416  -5.945   4.928  0.00  0.00    +0.044 C 
ATOM      3  C   UNL     1       4.319  -5.222   4.190  0.00  0.00    -0.050 A 
ATOM      4  C   UNL     1       4.474  -3.868   3.891  0.00  0.00    +0.005 A 
ATOM      5  C   UNL     1       3.529  -3.151   3.229  0.00  0.00    +0.024 A 
ATOM      6  C   UNL     1       2.333  -3.761   2.810  0.00  0.00    +0.040 A 
ATOM      7  N   UNL     1       1.413  -3.047   2.160  0.00  0.00    -0.284 N 
ATOM      8  C   UNL     1       0.268  -3.558   1.740  0.00  0.00    +0.226 C 
ATOM      9  O   UNL     1      -0.534  -2.857   1.152  0.00  0.00    -0.275 OA
ATOM     10  C   UNL     1      -0.042  -5.016   1.992  0.00  0.00    +0.123 C 
ATOM     11  C   UNL     1       1.002  -5.832   2.730  0.00  0.00    -0.003 C 
ATOM     12  C   UNL     1       2.142  -5.190   3.112  0.00  0.00    -0.007 A 
ATOM     13  C   UNL     1       3.203  -5.903   3.824  0.00  0.00    +0.012 A 
ATOM     14  H   UNL     1       1.592  -2.110   1.988  0.00  0.00    +0.155 HD
ENDBRANCH   1  10
BRANCH   1  15
ATOM     15  N   UNL     1      -1.609  -6.482   3.171  0.00  0.00    -0.289 NA
ATOM     16  C   UNL     1      -1.779  -7.329   1.982  0.00  0.00    +0.104 C 
ATOM     17  C   UNL     1      -1.872  -8.796   2.413  0.00  0.00    +0.120 C 
ATOM     18  N   UNL     1      -2.935  -8.921   3.421  0.00  0.00    -0.327 N 
ATOM     19  C   UNL     1      -2.909  -8.010   4.576  0.00  0.00    +0.120 C 
ATOM     20  C   UNL     1      -2.775  -6.573   4.060  0.00  0.00    +0.104 C 
BRANCH  18  21
ATOM     21  C   UNL     1      -3.943  -9.878   3.286  0.00  0.00    +0.030 A 
ATOM     22  C   UNL     1      -3.901 -10.790   2.239  0.00  0.00    +0.023 A 
ATOM     23  C   UNL     1      -4.899 -11.735   2.108  0.00  0.00    +0.002 A 
ATOM     24  C   UNL     1      -5.940 -11.774   3.018  0.00  0.00    +0.012 A 
ATOM     25  C   UNL     1      -5.985 -10.868   4.061  0.00  0.00    +0.057 A 
ATOM     26  C   UNL     1      -4.987  -9.924   4.202  0.00  0.00    +0.035 A 
BRANCH  25  27
ATOM     27  C   UNL     1      -7.122 -10.914   5.050  0.00  0.00    +0.417 C 
ATOM     28  F   UNL     1      -7.997 -11.949   4.706  0.00  0.00    -0.166 F 
ATOM     29  F   UNL     1      -6.614 -11.139   6.334  0.00  0.00    -0.166 F 
ATOM     30  F   UNL     1      -7.809  -9.695   5.027  0.00  0.00    -0.166 F 
ENDBRANCH  25  27
ENDBRANCH  18  21
ENDBRANCH   1  15
BRANCH   1  31
ATOM     31  C   UNL     1      -2.481  -4.573   1.946  0.00  0.00    +0.170 A 
ATOM     32  N   UNL     1      -2.897  -5.069   0.807  0.00  0.00    -0.112 NA
ATOM     33  N   UNL     1      -3.886  -4.352   0.398  0.00  0.00    -0.023 NA
ATOM     34  N   UNL     1      -4.112  -3.412   1.247  0.00  0.00    -0.044 NA
ATOM     35  N   UNL     1      -3.270  -3.517   2.219  0.00  0.00    -0.225 N 
BRANCH  35  36
ATOM     36  C   UNL     1      -3.186  -2.649   3.396  0.00  0.00    +0.175 C 
BRANCH  36  37
ATOM     37  C   UNL     1      -2.231  -1.489   3.107  0.00  0.00    +0.183 C 
BRANCH  37  38
ATOM     38  O   UNL     1      -2.126  -0.659   4.265  0.00  0.00    -0.381 OA
ATOM     39  C   UNL     1      -1.252   0.460   4.101  0.00  0.00    +0.194 C 
ENDBRANCH  37  38
ENDBRANCH  36  37
ENDBRANCH  35  36
ENDBRANCH   1  31
TORSDOF 8
