REMARK  Name = ZINC59219819
REMARK  5 active torsions:
REMARK  status: ('A' for Active; 'I' for Inactive)
REMARK    1  A    between atoms: C_4  and  C_7
REMARK    2  A    between atoms: N_9  and  N_10
REMARK    3  A    between atoms: C_11  and  C_12
REMARK    4  A    between atoms: C_15  and  C_17
REMARK    5  A    between atoms: C_22  and  C_23
REMARK                            x       y       z     vdW  Elec       q    Type
REMARK                         _______ _______ _______ _____ _____    ______ ____
ROOT
ATOM      1  C   UNL     1       6.242  -4.726  -0.084  0.00  0.00    +0.148 A 
ATOM      2  C   UNL     1       6.407  -6.093  -0.099  0.00  0.00    +0.051 A 
ATOM      3  C   UNL     1       7.787  -6.334  -0.112  0.00  0.00    +0.050 A 
ATOM      4  C   UNL     1       8.405  -5.119  -0.105  0.00  0.00    +0.136 A 
ATOM      5  O   UNL     1       7.464  -4.156  -0.094  0.00  0.00    -0.454 OA
ENDROOT
BRANCH   4   6
ATOM      6  C   UNL     1       9.865  -4.896  -0.114  0.00  0.00    +0.029 A 
ATOM      7  C   UNL     1      10.683  -5.571   0.795  0.00  0.00    +0.012 A 
ATOM      8  C   UNL     1      12.046  -5.357   0.781  0.00  0.00    +0.001 A 
ATOM      9  C   UNL     1      12.602  -4.478  -0.131  0.00  0.00    +0.001 A 
ATOM     10  C   UNL     1      11.798  -3.806  -1.034  0.00  0.00    +0.013 A 
ATOM     11  C   UNL     1      10.434  -4.014  -1.036  0.00  0.00    +0.065 A 
BRANCH  11  12
ATOM     12  C   UNL     1       9.560  -3.287  -2.025  0.00  0.00    +0.418 C 
ATOM     13  F   UNL     1      10.354  -2.468  -2.835  0.00  0.00    -0.166 F 
ATOM     14  F   UNL     1       8.884  -4.217  -2.822  0.00  0.00    -0.166 F 
ATOM     15  F   UNL     1       8.630  -2.501  -1.336  0.00  0.00    -0.166 F 
ENDBRANCH  11  12
ENDBRANCH   4   6
BRANCH   1  17
ATOM     16  N   UNL     1       4.941  -2.712  -0.060  0.00  0.00    -0.184 NA
ATOM     17  C   UNL     1       4.962  -4.014  -0.068  0.00  0.00    +0.176 C 
BRANCH  16  20
ATOM     18  C   UNL     1       3.695  -0.684  -0.037  0.00  0.00    +0.263 C 
ATOM     19  O   UNL     1       4.738  -0.059  -0.044  0.00  0.00    -0.268 OA
ATOM     20  N   UNL     1       3.717  -2.032  -0.045  0.00  0.00    -0.203 N 
ATOM     21  H   UNL     1       2.885  -2.530  -0.039  0.00  0.00    +0.178 HD
BRANCH  18  25
ATOM     22  C   UNL     1      -0.017   1.379   0.010  0.00  0.00    +0.000 A 
ATOM     23  C   UNL     1       1.168   2.094   0.002  0.00  0.00    +0.001 A 
ATOM     24  C   UNL     1       2.377   1.430  -0.013  0.00  0.00    +0.013 A 
ATOM     25  C   UNL     1       2.404   0.034  -0.021  0.00  0.00    +0.038 A 
ATOM     26  C   UNL     1       1.204  -0.681  -0.013  0.00  0.00    +0.013 A 
ATOM     27  C   UNL     1       0.002  -0.004   0.002  0.00  0.00    +0.001 A 
ENDBRANCH  18  25
ENDBRANCH  16  20
ENDBRANCH   1  17
TORSDOF 5
