REMARK  Name = ZINC19983432
REMARK  8 active torsions:
REMARK  status: ('A' for Active; 'I' for Inactive)
REMARK    1  A    between atoms: C_1  and  C_2
REMARK    2  A    between atoms: N_8  and  C_15
REMARK    3  A    between atoms: C_11  and  C_14
REMARK    4  A    between atoms: C_15  and  C_16
REMARK    5  A    between atoms: N_18  and  C_19
REMARK    6  A    between atoms: C_20  and  C_27
REMARK    7  A    between atoms: C_22  and  C_26
REMARK    8  A    between atoms: C_24  and  C_25
REMARK                            x       y       z     vdW  Elec       q    Type
REMARK                         _______ _______ _______ _____ _____    ______ ____
ROOT
ATOM      1  C   UNL     1      -4.576   3.938   5.991  0.00  0.00    +0.209 C 
ENDROOT
BRANCH   1   9
ATOM      2  C   UNL     1      -8.188   0.355   6.921  0.00  0.00    +0.044 C 
ATOM      3  C   UNL     1      -8.181   1.702   6.247  0.00  0.00    -0.048 A 
ATOM      4  C   UNL     1      -9.322   2.163   5.616  0.00  0.00    +0.007 A 
ATOM      5  C   UNL     1      -9.324   3.398   4.994  0.00  0.00    +0.048 A 
ATOM      6  C   UNL     1      -8.180   4.177   5.004  0.00  0.00    +0.143 A 
ATOM      7  C   UNL     1      -7.030   3.713   5.640  0.00  0.00    +0.079 A 
ATOM      8  C   UNL     1      -7.034   2.474   6.260  0.00  0.00    +0.030 A 
ATOM      9  N   UNL     1      -5.878   4.511   5.642  0.00  0.00    -0.256 N 
ATOM     10  C   UNL     1      -5.987   5.819   5.322  0.00  0.00    +0.261 C 
ATOM     11  O   UNL     1      -5.000   6.524   5.292  0.00  0.00    -0.271 OA
ATOM     12  C   UNL     1      -7.340   6.399   4.996  0.00  0.00    +0.256 C 
ATOM     13  O   UNL     1      -8.165   5.395   4.399  0.00  0.00    -0.478 OA
ATOM     14  C   UNL     1      -7.176   7.568   4.024  0.00  0.00    +0.062 C 
ENDBRANCH   1   9
BRANCH   1  15
ATOM     15  C   UNL     1      -3.904   3.420   4.745  0.00  0.00    +0.235 C 
ATOM     16  O   UNL     1      -4.459   3.520   3.671  0.00  0.00    -0.274 OA
ATOM     17  N   UNL     1      -2.688   2.845   4.825  0.00  0.00    -0.284 N 
ATOM     18  H   UNL     1      -2.220   2.682   5.807  0.00  0.00    +0.155 HD
BRANCH  17  19
ATOM     19  C   UNL     1      -2.020   2.457   3.658  0.00  0.00    +0.039 A 
ATOM     20  C   UNL     1      -0.750   2.949   3.387  0.00  0.00    -0.029 A 
ATOM     21  C   UNL     1      -0.093   2.563   2.235  0.00  0.00    +0.008 A 
ATOM     22  C   UNL     1      -0.699   1.688   1.352  0.00  0.00    -0.050 A 
ATOM     23  C   UNL     1      -1.965   1.201   1.617  0.00  0.00    +0.008 A 
ATOM     24  C   UNL     1      -2.626   1.579   2.769  0.00  0.00    -0.029 A 
ATOM     25  C   UNL     1      -4.004   1.043   3.060  0.00  0.00    +0.045 C 
ATOM     26  C   UNL     1       0.021   1.269   0.096  0.00  0.00    +0.044 C 
ATOM     27  C   UNL     1      -0.088   3.901   4.349  0.00  0.00    +0.045 C 
ENDBRANCH  17  19
ENDBRANCH   1  15
TORSDOF 3
