REMARK  Name = ZINC35156712
REMARK  11 active torsions:
REMARK  status: ('A' for Active; 'I' for Inactive)
REMARK    1  A    between atoms: C_1  and  C_2
REMARK    2  A    between atoms: C_2  and  C_3
REMARK    3  A    between atoms: C_2  and  C_4
REMARK    4  A    between atoms: C_4  and  N_5
REMARK    5  A    between atoms: C_6  and  C_8
REMARK    6  A    between atoms: C_8  and  C_9
REMARK    7  A    between atoms: C_9  and  C_10
REMARK    8  A    between atoms: C_10  and  S_11
REMARK    9  A    between atoms: S_11  and  C_12
REMARK   10  A    between atoms: N_22  and  C_23
REMARK   11  A    between atoms: C_23  and  C_24
REMARK                            x       y       z     vdW  Elec       q    Type
REMARK                         _______ _______ _______ _____ _____    ______ ____
ROOT
ATOM      1  C   UNL     1      -5.489  -8.609  -0.532  0.00  0.00    +0.211 A 
ATOM      2  N   UNL     1      -6.568  -9.380  -0.562  0.00  0.00    -0.201 NA
ATOM      3  C   UNL     1      -6.424 -10.696  -0.683  0.00  0.00    +0.165 A 
ATOM      4  C   UNL     1      -5.119 -11.221  -0.776  0.00  0.00    +0.138 A 
ATOM      5  C   UNL     1      -5.268 -12.681  -0.899  0.00  0.00    +0.029 A 
ATOM      6  C   UNL     1      -4.362 -13.732  -1.023  0.00  0.00    +0.012 A 
ATOM      7  C   UNL     1      -4.825 -15.027  -1.121  0.00  0.00    +0.001 A 
ATOM      8  C   UNL     1      -6.186 -15.286  -1.095  0.00  0.00    +0.002 A 
ATOM      9  C   UNL     1      -7.093 -14.255  -0.973  0.00  0.00    +0.026 A 
ATOM     10  C   UNL     1      -6.646 -12.942  -0.873  0.00  0.00    +0.053 A 
ATOM     11  N   UNL     1      -7.317 -11.736  -0.744  0.00  0.00    -0.319 N 
ATOM     12  N   UNL     1      -4.082 -10.397  -0.740  0.00  0.00    -0.143 NA
ATOM     13  N   UNL     1      -4.269  -9.127  -0.626  0.00  0.00    -0.122 NA
ENDROOT
BRANCH   1  14
ATOM     14  S   UNL     1      -5.677  -6.864  -0.372  0.00  0.00    -0.084 S 
BRANCH  14  15
ATOM     15  C   UNL     1      -3.975  -6.236  -0.385  0.00  0.00    +0.078 C 
BRANCH  15  16
ATOM     16  C   UNL     1      -3.993  -4.712  -0.251  0.00  0.00    +0.020 C 
BRANCH  16  17
ATOM     17  C   UNL     1      -2.558  -4.183  -0.262  0.00  0.00    +0.096 C 
BRANCH  17  19
ATOM     18  N   UNL     1      -1.416  -1.993  -0.116  0.00  0.00    -0.315 N 
ATOM     19  C   UNL     1      -2.575  -2.682  -0.130  0.00  0.00    +0.213 C 
ATOM     20  O   UNL     1      -3.631  -2.093  -0.036  0.00  0.00    -0.276 OA
ATOM     21  H   UNL     1      -0.572  -2.463  -0.190  0.00  0.00    +0.149 HD
BRANCH  18  22
ATOM     22  C   UNL     1      -1.433  -0.534   0.013  0.00  0.00    +0.107 C 
BRANCH  22  24
ATOM     23  C   UNL     1      -0.019   1.526   0.010  0.00  0.00    +0.009 C 
ATOM     24  C   UNL     1       0.002  -0.004   0.002  0.00  0.00    -0.000 C 
ATOM     25  C   UNL     1       0.742  -0.511   1.242  0.00  0.00    +0.009 C 
ENDBRANCH  22  24
ENDBRANCH  18  22
ENDBRANCH  17  19
ENDBRANCH  16  17
ENDBRANCH  15  16
ENDBRANCH  14  15
ENDBRANCH   1  14
BRANCH  11  26
ATOM     26  C   UNL     1      -8.774 -11.593  -0.679  0.00  0.00    +0.159 C 
BRANCH  26  27
ATOM     27  C   UNL     1      -9.324 -11.420  -2.071  0.00  0.00    -0.028 A 
ATOM     28  C   UNL     1      -9.450 -10.154  -2.612  0.00  0.00    +0.006 A 
ATOM     29  C   UNL     1      -9.954  -9.994  -3.889  0.00  0.00    +0.015 A 
ATOM     30  C   UNL     1     -10.332 -11.102  -4.626  0.00  0.00    +0.018 A 
ATOM     31  C   UNL     1     -10.206 -12.368  -4.085  0.00  0.00    +0.015 A 
ATOM     32  C   UNL     1      -9.697 -12.527  -2.809  0.00  0.00    +0.006 A 
ATOM     33 BR   UNL     1     -11.022 -10.884  -6.373  0.00  0.00    -0.050 Br
ENDBRANCH  26  27
ENDBRANCH  11  26
TORSDOF 9
