REMARK  Name = ZINC09364335
REMARK  4 active torsions:
REMARK  status: ('A' for Active; 'I' for Inactive)
REMARK    1  A    between atoms: C_4  and  C_7
REMARK    2  A    between atoms: C_9  and  S_13
REMARK    3  A    between atoms: S_13  and  C_14
REMARK    4  A    between atoms: C_14  and  C_15
REMARK                            x       y       z     vdW  Elec       q    Type
REMARK                         _______ _______ _______ _____ _____    ______ ____
ROOT
ATOM      1  S   UNL     1      -3.216  -2.644   1.669  0.00  0.00    -0.080 S 
ENDROOT
BRANCH   1   4
ATOM      2  C   UNL     1      -6.264  -4.703   0.426  0.00  0.00    +0.182 A 
ATOM      3  N   UNL     1      -5.080  -4.093   0.263  0.00  0.00    -0.201 NA
ATOM      4  C   UNL     1      -4.703  -3.549   1.399  0.00  0.00    +0.185 A 
ATOM      5  N   UNL     1      -5.653  -3.810   2.324  0.00  0.00    -0.253 N 
ATOM      6  H   UNL     1      -5.647  -3.538   3.255  0.00  0.00    +0.191 HD
ATOM      7  N   UNL     1      -6.652  -4.551   1.672  0.00  0.00    -0.152 NA
BRANCH   2  11
ATOM      8  C   UNL     1      -8.411  -6.784  -2.597  0.00  0.00    +0.000 A 
ATOM      9  C   UNL     1      -8.931  -6.697  -1.318  0.00  0.00    +0.001 A 
ATOM     10  C   UNL     1      -8.239  -6.023  -0.333  0.00  0.00    +0.011 A 
ATOM     11  C   UNL     1      -7.013  -5.429  -0.629  0.00  0.00    +0.021 A 
ATOM     12  C   UNL     1      -6.497  -5.515  -1.920  0.00  0.00    +0.011 A 
ATOM     13  C   UNL     1      -7.195  -6.197  -2.896  0.00  0.00    +0.001 A 
ENDBRANCH   2  11
ENDBRANCH   1   4
BRANCH   1  14
ATOM     14  C   UNL     1      -2.490  -2.729   0.013  0.00  0.00    +0.133 C 
BRANCH  14  15
ATOM     15  C   UNL     1      -1.171  -2.000   0.004  0.00  0.00    +0.059 A 
ATOM     16  C   UNL     1       0.011  -2.713  -0.012  0.00  0.00    +0.094 A 
ATOM     17  C   UNL     1       1.224  -2.014  -0.021  0.00  0.00    +0.259 A 
ATOM     18  O   UNL     1       2.286  -2.615  -0.035  0.00  0.00    -0.267 OA
ATOM     19  N   UNL     1       1.199  -0.664  -0.013  0.00  0.00    -0.268 N 
ATOM     20  C   UNL     1       2.370   0.031  -0.022  0.00  0.00    +0.096 A 
ATOM     21  C   UNL     1       2.372   1.383  -0.014  0.00  0.00    +0.018 A 
ATOM     22  C   UNL     1       1.160   2.089   0.002  0.00  0.00    +0.005 A 
ATOM     23  C   UNL     1      -0.017   1.403   0.010  0.00  0.00    +0.047 A 
ATOM     24  C   UNL     1       0.002  -0.004   0.002  0.00  0.00    +0.140 A 
ATOM     25  N   UNL     1      -1.148  -0.676   0.009  0.00  0.00    -0.233 NA
ENDBRANCH  14  15
ENDBRANCH   1  14
TORSDOF 4
