REMARK  Name = ZINC63194202
REMARK  10 active torsions:
REMARK  status: ('A' for Active; 'I' for Inactive)
REMARK    1  A    between atoms: C_1  and  C_2
REMARK    2  A    between atoms: C_2  and  C_4
REMARK    3  A    between atoms: C_8  and  S_10
REMARK    4  A    between atoms: S_10  and  N_13
REMARK    5  A    between atoms: N_13  and  C_14
REMARK    6  A    between atoms: C_14  and  C_15
REMARK    7  A    between atoms: C_15  and  C_17
REMARK    8  A    between atoms: C_15  and  C_25
REMARK    9  A    between atoms: C_20  and  O_23
REMARK   10  A    between atoms: O_23  and  C_24
REMARK                            x       y       z     vdW  Elec       q    Type
REMARK                         _______ _______ _______ _____ _____    ______ ____
ROOT
ATOM      1  C   UNL     1       3.749  -5.598  -1.468  0.00  0.00    +0.063 C 
ENDROOT
BRANCH   1   2
ATOM      2  C   UNL     1       4.542  -5.184  -2.680  0.00  0.00    -0.033 C 
ATOM      3  C   UNL     1       4.884  -5.961  -3.733  0.00  0.00    -0.000 A 
ATOM      4  C   UNL     1       4.629  -7.371  -4.052  0.00  0.00    +0.010 A 
ATOM      5  C   UNL     1       5.111  -7.879  -5.209  0.00  0.00    +0.001 A 
ATOM      6  C   UNL     1       5.846  -7.095  -6.109  0.00  0.00    +0.002 A 
ATOM      7  C   UNL     1       6.120  -5.793  -5.885  0.00  0.00    +0.026 A 
ATOM      8  C   UNL     1       5.662  -5.154  -4.700  0.00  0.00    +0.043 A 
ATOM      9  N   UNL     1       5.796  -3.926  -4.262  0.00  0.00    -0.380 N 
ATOM     10  C   UNL     1       5.112  -3.813  -2.969  0.00  0.00    +0.145 C 
ATOM     11  H   UNL     1       6.266  -3.211  -4.718  0.00  0.00    +0.160 HD
ENDBRANCH   1   2
BRANCH   1  12
ATOM     12  C   UNL     1       4.580  -5.390  -0.228  0.00  0.00    -0.039 A 
ATOM     13  C   UNL     1       5.036  -4.125   0.093  0.00  0.00    +0.008 A 
ATOM     14  C   UNL     1       5.799  -3.932   1.228  0.00  0.00    +0.046 A 
ATOM     15  C   UNL     1       6.106  -5.008   2.047  0.00  0.00    +0.120 A 
ATOM     16  C   UNL     1       5.647  -6.277   1.724  0.00  0.00    +0.046 A 
ATOM     17  C   UNL     1       4.880  -6.464   0.590  0.00  0.00    +0.008 A 
BRANCH  15  18
ATOM     18  O   UNL     1       6.856  -4.821   3.165  0.00  0.00    -0.495 OA
ATOM     19  C   UNL     1       7.134  -5.974   3.961  0.00  0.00    +0.277 C 
ENDBRANCH  15  18
ENDBRANCH   1  12
BRANCH   1  20
ATOM     20  C   UNL     1       2.477  -4.752  -1.377  0.00  0.00    +0.118 C 
BRANCH  20  21
ATOM     21  N   UNL     1       1.613  -5.044  -2.524  0.00  0.00    -0.189 NA
ATOM     22  H   UNL     1       1.971  -5.516  -3.292  0.00  0.00    +0.148 HD
BRANCH  21  23
ATOM     23  S   UNL     1       0.027  -4.569  -2.508  0.00  0.00    +0.058 S 
ATOM     24  O   UNL     1      -0.511  -4.992  -1.263  0.00  0.00    -0.153 OA
ATOM     25  O   UNL     1      -0.529  -4.968  -3.754  0.00  0.00    -0.153 OA
BRANCH  23  30
ATOM     26  C   UNL     1      -0.000  -0.733  -1.276  0.00  0.00    +0.019 A 
ATOM     27  C   UNL     1      -0.015  -0.031  -2.486  0.00  0.00    +0.011 A 
ATOM     28  C   UNL     1      -0.017  -0.721  -3.679  0.00  0.00    +0.003 A 
ATOM     29  C   UNL     1      -0.003  -2.105  -3.683  0.00  0.00    +0.028 A 
ATOM     30  C   UNL     1       0.011  -2.807  -2.490  0.00  0.00    +0.106 A 
ATOM     31  C   UNL     1       0.019  -2.131  -1.288  0.00  0.00    +0.040 A 
BRANCH  26  33
ATOM     32  C   UNL     1      -0.018   1.503   0.010  0.00  0.00    +0.091 C 
ATOM     33  C   UNL     1       0.002  -0.004   0.002  0.00  0.00    +0.160 C 
ATOM     34  O   UNL     1       0.020  -0.616   1.049  0.00  0.00    -0.292 OA
ENDBRANCH  26  33
ENDBRANCH  23  30
ENDBRANCH  21  23
ENDBRANCH  20  21
ENDBRANCH   1  20
TORSDOF 8
