REMARK  Name = ZINC23429939
REMARK  6 active torsions:
REMARK  status: ('A' for Active; 'I' for Inactive)
REMARK    1  A    between atoms: N_4  and  C_6
REMARK    2  A    between atoms: C_9  and  N_12
REMARK    3  A    between atoms: C_15  and  N_18
REMARK    4  A    between atoms: N_18  and  C_19
REMARK    5  A    between atoms: C_19  and  C_20
REMARK    6  A    between atoms: C_20  and  C_21
REMARK                            x       y       z     vdW  Elec       q    Type
REMARK                         _______ _______ _______ _____ _____    ______ ____
ROOT
ATOM      1  N   UNL     1       2.368   3.811   0.030  0.00  0.00    -0.330 N 
ATOM      2  C   UNL     1       3.238   3.419   1.145  0.00  0.00    +0.103 C 
ATOM      3  C   UNL     1       4.586   4.132   1.018  0.00  0.00    +0.003 C 
ATOM      4  C   UNL     1       4.360   5.646   1.031  0.00  0.00    -0.069 C 
ATOM      5  C   UNL     1       3.412   6.023  -0.111  0.00  0.00    +0.003 C 
ATOM      6  C   UNL     1       2.098   5.255   0.049  0.00  0.00    +0.103 C 
ENDROOT
BRANCH   1  10
ATOM      7  C   UNL     1      -1.181   1.628   0.058  0.00  0.00    +0.065 A 
ATOM      8  C   UNL     1       0.040   0.967   0.037  0.00  0.00    +0.029 A 
ATOM      9  C   UNL     1       1.216   1.690   0.026  0.00  0.00    +0.025 A 
ATOM     10  C   UNL     1       1.177   3.079   0.042  0.00  0.00    +0.030 A 
ATOM     11  C   UNL     1      -0.045   3.739   0.068  0.00  0.00    +0.025 A 
ATOM     12  C   UNL     1      -1.220   3.016   0.079  0.00  0.00    +0.029 A 
BRANCH   7  16
ATOM     13  C   UNL     1      -4.498   0.371   0.083  0.00  0.00    +0.041 A 
ATOM     14  C   UNL     1      -3.757  -0.816   0.062  0.00  0.00    +0.135 A 
ATOM     15  N   UNL     1      -2.485  -0.504   0.051  0.00  0.00    -0.175 NA
ATOM     16  N   UNL     1      -2.376   0.893   0.064  0.00  0.00    -0.240 N 
ATOM     17  C   UNL     1      -3.627   1.407   0.089  0.00  0.00    +0.114 A 
ENDBRANCH   7  16
ENDBRANCH   1  10
BRANCH   4  18
ATOM     18  N   UNL     1       5.644   6.336   0.850  0.00  0.00    +0.381 N 
ATOM     19  H   UNL     1       6.284   5.749   0.175  0.00  0.00    -0.086 HD
ATOM     20  H   UNL     1       5.468   7.331   0.415  0.00  0.00    -0.086 HD
BRANCH  18  21
ATOM     21  C   UNL     1       6.339   6.500   2.134  0.00  0.00    -0.076 C 
BRANCH  21  22
ATOM     22  C   UNL     1       7.669   7.221   1.905  0.00  0.00    +0.038 C 
BRANCH  22  23
ATOM     23  C   UNL     1       8.382   7.389   3.222  0.00  0.00    +0.064 A 
ATOM     24  C   UNL     1       9.179   6.481   3.816  0.00  0.00    -0.004 A 
ATOM     25  C   UNL     1       9.646   7.034   5.020  0.00  0.00    +0.039 A 
ATOM     26  N   UNL     1       9.137   8.225   5.146  0.00  0.00    -0.281 N 
ATOM     27  N   UNL     1       8.338   8.479   4.021  0.00  0.00    -0.178 NA
ATOM     28  H   UNL     1       9.370   8.832   6.033  0.00  0.00    +0.189 HD
ATOM     29  C   UNL     1      10.554   6.300   5.977  0.00  0.00    +0.055 C 
ATOM     30  C   UNL     1      10.513   4.807   5.626  0.00  0.00    +0.006 C 
ATOM     31  C   UNL     1      10.767   4.621   4.128  0.00  0.00    +0.005 C 
ATOM     32  C   UNL     1       9.546   5.100   3.333  0.00  0.00    +0.039 C 
ENDBRANCH  22  23
ENDBRANCH  21  22
ENDBRANCH  18  21
ENDBRANCH   4  18
TORSDOF 6
