REMARK  Name = ZINC04745499
REMARK  6 active torsions:
REMARK  status: ('A' for Active; 'I' for Inactive)
REMARK    1  A    between atoms: C_1  and  N_2
REMARK    2  A    between atoms: C_3  and  C_10
REMARK    3  A    between atoms: C_5  and  C_7
REMARK    4  A    between atoms: N_12  and  C_13
REMARK    5  A    between atoms: C_18  and  C_19
REMARK    6  A    between atoms: N_21  and  C_22
REMARK                            x       y       z     vdW  Elec       q    Type
REMARK                         _______ _______ _______ _____ _____    ______ ____
ROOT
ATOM      1  C   UNL     1      -3.289   7.490  -1.558  0.00  0.00    +0.046 A 
ATOM      2  C   UNL     1      -3.324   8.867  -1.380  0.00  0.00    +0.024 A 
ATOM      3  C   UNL     1      -2.999   9.414  -0.155  0.00  0.00    +0.002 A 
ATOM      4  C   UNL     1      -2.637   8.598   0.904  0.00  0.00    +0.001 A 
ATOM      5  C   UNL     1      -2.602   7.229   0.747  0.00  0.00    +0.015 A 
ATOM      6  C   UNL     1      -2.922   6.660  -0.488  0.00  0.00    +0.058 A 
ENDROOT
BRANCH   1   9
ATOM      7  C   UNL     1      -4.481   7.569  -3.608  0.00  0.00    +0.266 C 
ATOM      8  O   UNL     1      -4.923   8.659  -3.297  0.00  0.00    -0.268 OA
ATOM      9  N   UNL     1      -3.615   6.936  -2.793  0.00  0.00    -0.280 N 
ATOM     10  H   UNL     1      -3.219   6.094  -3.066  0.00  0.00    +0.155 HD
BRANCH   7  13
ATOM     11  C   UNL     1      -3.348   4.961  -4.824  0.00  0.00    +0.173 C 
ATOM     12  N   UNL     1      -4.398   5.791  -5.417  0.00  0.00    -0.262 N 
ATOM     13  C   UNL     1      -4.894   6.942  -4.873  0.00  0.00    +0.124 A 
ATOM     14  C   UNL     1      -5.857   7.403  -5.754  0.00  0.00    +0.058 A 
ATOM     15  C   UNL     1      -5.882   6.472  -6.795  0.00  0.00    +0.067 A 
ATOM     16  N   UNL     1      -4.997   5.546  -6.527  0.00  0.00    -0.175 NA
BRANCH  15  17
ATOM     17  C   UNL     1      -6.771   6.525  -8.010  0.00  0.00    +0.040 C 
ATOM     18  C   UNL     1      -7.984   7.457  -7.959  0.00  0.00    +0.010 C 
ATOM     19  C   UNL     1      -8.180   5.941  -7.881  0.00  0.00    +0.010 C 
ENDBRANCH  15  17
ENDBRANCH   7  13
ENDBRANCH   1   9
BRANCH   6  20
ATOM     20  C   UNL     1      -2.881   5.197  -0.664  0.00  0.00    +0.246 C 
ATOM     21  O   UNL     1      -3.263   4.699  -1.705  0.00  0.00    -0.270 OA
ATOM     22  N   UNL     1      -2.421   4.411   0.330  0.00  0.00    -0.306 N 
ATOM     23  H   UNL     1      -2.116   4.808   1.161  0.00  0.00    +0.150 HD
BRANCH  22  24
ATOM     24  C   UNL     1      -2.380   2.957   0.155  0.00  0.00    +0.036 C 
ATOM     25  C   UNL     1      -1.484   2.611  -1.035  0.00  0.00    +0.029 C 
ATOM     26  C   UNL     1      -1.441   1.093  -1.218  0.00  0.00    -0.008 C 
ATOM     27  C   UNL     1      -0.881   0.442   0.049  0.00  0.00    +0.007 C 
ATOM     28  C   UNL     1      -1.778   0.788   1.239  0.00  0.00    -0.008 C 
ATOM     29  C   UNL     1      -1.820   2.307   1.421  0.00  0.00    +0.029 C 
ATOM     30  C   UNL     1      -3.192   0.266   0.981  0.00  0.00    +0.007 C 
ATOM     31  C   UNL     1      -3.753   0.916  -0.286  0.00  0.00    -0.008 C 
ATOM     32  C   UNL     1      -2.856   0.571  -1.476  0.00  0.00    +0.007 C 
ATOM     33  C   UNL     1      -3.795   2.435  -0.103  0.00  0.00    +0.029 C 
ENDBRANCH  22  24
ENDBRANCH   6  20
TORSDOF 5
