REMARK  Name = ZINC65585689
REMARK  7 active torsions:
REMARK  status: ('A' for Active; 'I' for Inactive)
REMARK    1  A    between atoms: C_1  and  C_2
REMARK    2  A    between atoms: C_2  and  C_3
REMARK    3  A    between atoms: C_3  and  C_4
REMARK    4  A    between atoms: C_4  and  C_5
REMARK    5  A    between atoms: C_5  and  C_6
REMARK    6  A    between atoms: C_5  and  N_22
REMARK    7  A    between atoms: N_8  and  C_9
REMARK                            x       y       z     vdW  Elec       q    Type
REMARK                         _______ _______ _______ _____ _____    ______ ____
ROOT
ATOM      1  C   UNL     1       1.369  -4.023  -2.597  0.00  0.00    +0.238 C 
ATOM      2  O   UNL     1       2.316  -4.702  -2.258  0.00  0.00    -0.273 OA
ATOM      3  N   UNL     1       0.243  -4.613  -3.045  0.00  0.00    -0.284 N 
ATOM      4  H   UNL     1      -0.537  -4.075  -3.252  0.00  0.00    +0.155 HD
ENDROOT
BRANCH   3   5
ATOM      5  C   UNL     1       0.199  -6.002  -3.209  0.00  0.00    +0.037 A 
ATOM      6  C   UNL     1       0.885  -6.825  -2.321  0.00  0.00    +0.024 A 
ATOM      7  C   UNL     1       0.846  -8.194  -2.478  0.00  0.00    +0.014 A 
ATOM      8  C   UNL     1       0.118  -8.749  -3.526  0.00  0.00    +0.028 A 
ATOM      9  C   UNL     1      -0.134 -10.132  -3.977  0.00  0.00    +0.028 A 
ATOM     10  C   UNL     1       0.263 -11.384  -3.520  0.00  0.00    +0.012 A 
ATOM     11  C   UNL     1      -0.156 -12.518  -4.183  0.00  0.00    +0.001 A 
ATOM     12  C   UNL     1      -0.969 -12.410  -5.301  0.00  0.00    +0.004 A 
ATOM     13  C   UNL     1      -1.368 -11.173  -5.762  0.00  0.00    +0.047 A 
ATOM     14  C   UNL     1      -0.956 -10.019  -5.106  0.00  0.00    +0.136 A 
ATOM     15  O   UNL     1      -1.192  -8.708  -5.336  0.00  0.00    -0.455 OA
ATOM     16  C   UNL     1      -0.575  -7.925  -4.423  0.00  0.00    +0.138 A 
ATOM     17  C   UNL     1      -0.532  -6.548  -4.252  0.00  0.00    +0.070 A 
ENDBRANCH   3   5
BRANCH   1  18
ATOM     18  C   UNL     1       1.452  -2.521  -2.518  0.00  0.00    +0.161 C 
BRANCH  18  19
ATOM     19  N   UNL     1       2.858  -2.111  -2.475  0.00  0.00    -0.288 N 
ATOM     20  C   UNL     1       3.654  -2.534  -1.473  0.00  0.00    +0.298 C 
ATOM     21  O   UNL     1       3.204  -3.256  -0.604  0.00  0.00    -0.253 OA
ATOM     22  N   UNL     1       4.947  -2.157  -1.434  0.00  0.00    -0.313 N 
ATOM     23  H   UNL     1       3.217  -1.535  -3.168  0.00  0.00    +0.151 HD
ATOM     24  H   UNL     1       5.305  -1.581  -2.127  0.00  0.00    +0.146 HD
ATOM     25  H   UNL     1       5.519  -2.462  -0.712  0.00  0.00    +0.146 HD
ENDBRANCH  18  19
BRANCH  18  26
ATOM     26  C   UNL     1       0.742  -2.037  -1.253  0.00  0.00    +0.032 C 
BRANCH  26  27
ATOM     27  C   UNL     1       0.717  -0.507  -1.235  0.00  0.00    +0.002 C 
BRANCH  27  29
ATOM     28  C   UNL     1      -0.019   1.507   0.048  0.00  0.00    +0.004 C 
ATOM     29  C   UNL     1       0.006  -0.023   0.030  0.00  0.00    -0.003 C 
ENDBRANCH  27  29
ENDBRANCH  26  27
ENDBRANCH  18  26
ENDBRANCH   1  18
TORSDOF 6
