REMARK  Name = ZINC33939955
REMARK  8 active torsions:
REMARK  status: ('A' for Active; 'I' for Inactive)
REMARK    1  A    between atoms: C_1  and  C_2
REMARK    2  A    between atoms: C_8  and  N_10
REMARK    3  A    between atoms: C_11  and  C_13
REMARK    4  A    between atoms: N_19  and  C_37
REMARK    5  A    between atoms: C_20  and  C_28
REMARK    6  A    between atoms: C_25  and  C_27
REMARK    7  A    between atoms: N_30  and  C_31
REMARK    8  A    between atoms: C_37  and  C_38
REMARK                            x       y       z     vdW  Elec       q    Type
REMARK                         _______ _______ _______ _____ _____    ______ ____
ROOT
ATOM      1  C   UNL     1      -0.217   0.657   4.741  0.00  0.00    +0.125 C 
ATOM      2  C   UNL     1       0.689   0.752   5.982  0.00  0.00    +0.128 C 
ATOM      3  C   UNL     1       2.099   0.276   5.774  0.00  0.00    +0.224 C 
ATOM      4  O   UNL     1       2.813   0.583   4.842  0.00  0.00    -0.275 OA
ATOM      5  N   UNL     1       2.448  -0.551   6.792  0.00  0.00    -0.283 N 
ATOM      6  C   UNL     1       1.290  -0.810   7.680  0.00  0.00    +0.199 C 
ATOM      7  C   UNL     1       0.091  -0.406   6.863  0.00  0.00    +0.128 C 
ATOM      8  C   UNL     1      -1.203   0.080   7.410  0.00  0.00    +0.009 C 
ATOM      9  C   UNL     1      -2.020   0.069   6.350  0.00  0.00    +0.007 C 
ATOM     10  C   UNL     1      -1.218  -0.469   5.160  0.00  0.00    +0.098 C 
ATOM     11  O   UNL     1      -0.293  -1.382   5.857  0.00  0.00    -0.355 OA
ATOM     12  C   UNL     1      -2.047  -1.069   4.023  0.00  0.00    +0.047 C 
ENDROOT
BRANCH   1  14
ATOM     13  N   UNL     1       0.934   1.175   2.614  0.00  0.00    -0.312 N 
ATOM     14  C   UNL     1       0.575   0.250   3.526  0.00  0.00    +0.220 C 
ATOM     15  O   UNL     1       0.888  -0.911   3.367  0.00  0.00    -0.275 OA
ATOM     16  H   UNL     1       0.749   2.114   2.777  0.00  0.00    +0.149 HD
BRANCH  13  23
ATOM     17  C   UNL     1       3.505   2.303   1.900  0.00  0.00    +0.009 C 
ATOM     18  C   UNL     1       2.457   1.922   0.852  0.00  0.00    +0.006 C 
ATOM     19  C   UNL     1       1.559   3.128   0.568  0.00  0.00    +0.005 C 
ATOM     20  C   UNL     1       0.511   2.747  -0.480  0.00  0.00    +0.000 C 
ATOM     21  C   UNL     1      -0.340   1.590   0.047  0.00  0.00    +0.002 C 
ATOM     22  C   UNL     1       0.558   0.385   0.331  0.00  0.00    +0.022 C 
ATOM     23  C   UNL     1       1.606   0.765   1.379  0.00  0.00    +0.076 C 
ENDBRANCH  13  23
ENDBRANCH   1  14
BRANCH   6  24
ATOM     24  C   UNL     1       1.223  -2.270   8.048  0.00  0.00    +0.237 C 
ATOM     25  O   UNL     1       1.818  -3.091   7.383  0.00  0.00    -0.274 OA
ATOM     26  N   UNL     1       0.501  -2.664   9.117  0.00  0.00    -0.311 N 
ATOM     27  H   UNL     1       0.025  -2.007   9.649  0.00  0.00    +0.149 HD
BRANCH  26  28
ATOM     28  C   UNL     1       0.436  -4.083   9.474  0.00  0.00    +0.073 C 
ATOM     29  C   UNL     1      -0.668  -4.763   8.662  0.00  0.00    +0.022 C 
ATOM     30  C   UNL     1      -0.736  -6.245   9.036  0.00  0.00    +0.002 C 
ATOM     31  C   UNL     1      -1.042  -6.382  10.529  0.00  0.00    +0.000 C 
ATOM     32  C   UNL     1       0.062  -5.702  11.340  0.00  0.00    +0.002 C 
ATOM     33  C   UNL     1       0.130  -4.219  10.967  0.00  0.00    +0.022 C 
ENDBRANCH  26  28
ENDBRANCH   6  24
BRANCH   5  34
ATOM     34  C   UNL     1       3.787  -1.111   6.986  0.00  0.00    +0.135 C 
BRANCH  34  35
ATOM     35  C   UNL     1       4.602  -0.179   7.845  0.00  0.00    -0.016 C 
ATOM     36  C   UNL     1       5.167  -0.623   8.941  0.00  0.00    +0.005 C 
ENDBRANCH  34  35
ENDBRANCH   5  34
TORSDOF 6
