REMARK  Name = ZINC04786721
REMARK  12 active torsions:
REMARK  status: ('A' for Active; 'I' for Inactive)
REMARK    1  A    between atoms: C_1  and  C_2
REMARK    2  A    between atoms: C_7  and  C_23
REMARK    3  A    between atoms: C_9  and  C_13
REMARK    4  A    between atoms: C_10  and  C_12
REMARK    5  A    between atoms: C_13  and  O_15
REMARK    6  A    between atoms: O_15  and  C_16
REMARK    7  A    between atoms: C_26  and  O_31
REMARK    8  A    between atoms: C_27  and  O_29
REMARK    9  A    between atoms: O_29  and  C_30
REMARK   10  A    between atoms: C_34  and  C_36
REMARK   11  A    between atoms: C_36  and  O_38
REMARK   12  A    between atoms: O_38  and  C_39
REMARK                            x       y       z     vdW  Elec       q    Type
REMARK                         _______ _______ _______ _____ _____    ______ ____
ROOT
ATOM      1  C   UNL     1       4.082   9.081   2.598  0.00  0.00    +0.009 C 
ATOM      2  C   UNL     1       2.985   8.208   1.985  0.00  0.00    +0.013 C 
ATOM      3  C   UNL     1       2.050   9.071   1.134  0.00  0.00    +0.055 C 
ATOM      4  C   UNL     1       1.000   8.199   0.492  0.00  0.00    +0.016 C 
ATOM      5  C   UNL     1       1.263   6.915   0.170  0.00  0.00    +0.025 C 
ATOM      6  C   UNL     1       0.208   6.050  -0.473  0.00  0.00    +0.092 C 
ATOM      7  C   UNL     1      -0.895   6.888  -1.050  0.00  0.00    +0.065 C 
ATOM      8  C   UNL     1      -1.069   8.166  -0.677  0.00  0.00    +0.016 C 
ATOM      9  N   UNL     1      -0.232   8.740   0.239  0.00  0.00    -0.321 N 
ATOM     10  C   UNL     1      -2.194   8.974  -1.272  0.00  0.00    +0.061 C 
ATOM     11  C   UNL     1       2.523   6.346   0.426  0.00  0.00    +0.176 C 
ATOM     12  O   UNL     1       2.733   5.192   0.110  0.00  0.00    -0.291 OA
ATOM     13  C   UNL     1       3.617   7.142   1.084  0.00  0.00    +0.171 C 
ATOM     14  H   UNL     1      -0.556   9.645   0.775  0.00  0.00    +0.152 HD
ENDROOT
BRANCH   6  15
ATOM     15  C   UNL     1      -0.367   5.119   0.562  0.00  0.00    -0.032 A 
ATOM     16  C   UNL     1      -1.003   5.634   1.677  0.00  0.00    +0.008 A 
ATOM     17  C   UNL     1      -1.532   4.784   2.629  0.00  0.00    +0.049 A 
ATOM     18  C   UNL     1      -1.427   3.411   2.468  0.00  0.00    +0.158 A 
ATOM     19  C   UNL     1      -0.787   2.893   1.346  0.00  0.00    +0.162 A 
ATOM     20  C   UNL     1      -0.254   3.751   0.398  0.00  0.00    +0.054 A 
BRANCH  19  21
ATOM     21  O   UNL     1      -0.682   1.547   1.184  0.00  0.00    -0.491 OA
ATOM     22  C   UNL     1      -0.013   1.086   0.008  0.00  0.00    +0.277 C 
ENDBRANCH  19  21
BRANCH  18  23
ATOM     23  O   UNL     1      -1.946   2.574   3.405  0.00  0.00    -0.503 OA
ATOM     24  H   UNL     1      -1.862   1.484   3.276  0.00  0.00    +0.292 HD
ENDBRANCH  18  23
ENDBRANCH   6  15
BRANCH   7  25
ATOM     25  C   UNL     1      -1.770   6.321  -2.006  0.00  0.00    +0.338 C 
ATOM     26  O   UNL     1      -2.668   6.989  -2.481  0.00  0.00    -0.245 OA
BRANCH  25  27
ATOM     27  O   UNL     1      -1.607   5.037  -2.391  0.00  0.00    -0.458 OA
BRANCH  27  28
ATOM     28  C   UNL     1      -2.527   4.530  -3.360  0.00  0.00    +0.177 C 
ATOM     29  C   UNL     1      -3.754   3.950  -2.628  0.00  0.00    +0.044 C 
ATOM     30  C   UNL     1      -4.905   3.894  -3.597  0.00  0.00    +0.004 C 
ATOM     31  C   UNL     1      -5.028   2.522  -4.286  0.00  0.00    +0.000 C 
ATOM     32  C   UNL     1      -3.664   1.939  -4.704  0.00  0.00    +0.000 C 
ATOM     33  C   UNL     1      -2.752   2.979  -5.297  0.00  0.00    +0.004 C 
ATOM     34  C   UNL     1      -1.849   3.534  -4.177  0.00  0.00    +0.044 C 
ENDBRANCH  27  28
ENDBRANCH  25  27
ENDBRANCH   7  25
BRANCH  13  35
ATOM     35  C   UNL     1       4.478   6.226   1.915  0.00  0.00    +0.318 C 
ATOM     36  O   UNL     1       4.584   6.410   3.105  0.00  0.00    -0.250 OA
BRANCH  35  37
ATOM     37  O   UNL     1       5.126   5.204   1.334  0.00  0.00    -0.467 OA
ATOM     38  C   UNL     1       5.937   4.362   2.196  0.00  0.00    +0.280 C 
ENDBRANCH  35  37
ENDBRANCH  13  35
TORSDOF 8
