REMARK  Name = ZINC20577814
REMARK  8 active torsions:
REMARK  status: ('A' for Active; 'I' for Inactive)
REMARK    1  A    between atoms: C_1  and  C_2
REMARK    2  A    between atoms: C_2  and  N_3
REMARK    3  A    between atoms: N_3  and  C_4
REMARK    4  A    between atoms: N_3  and  S_11
REMARK    5  A    between atoms: C_8  and  C_10
REMARK    6  A    between atoms: S_11  and  C_14
REMARK    7  A    between atoms: C_21  and  C_22
REMARK    8  A    between atoms: C_21  and  C_23
REMARK                            x       y       z     vdW  Elec       q    Type
REMARK                         _______ _______ _______ _____ _____    ______ ____
ROOT
ATOM      1  C   UNL     1       2.382   6.531  -0.462  0.00  0.00    +0.109 A 
ATOM      2  C   UNL     1       3.351   5.617  -0.840  0.00  0.00    +0.030 A 
ATOM      3  C   UNL     1       4.228   5.907  -1.865  0.00  0.00    +0.026 A 
ATOM      4  C   UNL     1       4.154   7.130  -2.523  0.00  0.00    +0.042 A 
ATOM      5  C   UNL     1       3.176   8.053  -2.134  0.00  0.00    +0.010 A 
ATOM      6  C   UNL     1       2.293   7.750  -1.105  0.00  0.00    +0.039 A 
ATOM      7  C   UNL     1       3.348   9.240  -3.008  0.00  0.00    +0.045 C 
ATOM      8  C   UNL     1       2.630  10.377  -2.998  0.00  0.00    -0.063 C 
ATOM      9  C   UNL     1       1.410  10.489  -2.120  0.00  0.00    +0.039 C 
ATOM     10  C   UNL     1       3.046  11.538  -3.863  0.00  0.00    +0.039 C 
ATOM     11  C   UNL     1       4.483   8.898  -3.894  0.00  0.00    +0.249 C 
ATOM     12  O   UNL     1       4.950   9.605  -4.766  0.00  0.00    -0.270 OA
ATOM     13  N   UNL     1       4.905   7.665  -3.564  0.00  0.00    -0.281 N 
ATOM     14  H   UNL     1       5.727   7.082  -4.005  0.00  0.00    +0.155 HD
ENDROOT
BRANCH   1  15
ATOM     15  S   UNL     1       1.265   6.141   0.845  0.00  0.00    +0.075 S 
ATOM     16  O   UNL     1       0.937   7.370   1.478  0.00  0.00    -0.150 OA
ATOM     17  O   UNL     1       1.834   5.048   1.552  0.00  0.00    -0.150 OA
BRANCH  15  18
ATOM     18  N   UNL     1      -0.128   5.581   0.147  0.00  0.00    -0.203 N 
BRANCH  18  19
ATOM     19  C   UNL     1      -0.287   4.215  -0.096  0.00  0.00    +0.051 A 
ATOM     20  C   UNL     1       0.828   3.404  -0.270  0.00  0.00    +0.025 A 
ATOM     21  C   UNL     1       0.667   2.054  -0.510  0.00  0.00    +0.002 A 
ATOM     22  C   UNL     1      -0.602   1.508  -0.577  0.00  0.00    +0.003 A 
ATOM     23  C   UNL     1      -1.714   2.313  -0.409  0.00  0.00    -0.049 A 
ATOM     24  C   UNL     1      -1.560   3.663  -0.163  0.00  0.00    +0.028 A 
ATOM     25  C   UNL     1      -3.095   1.715  -0.490  0.00  0.00    +0.044 C 
ENDBRANCH  18  19
BRANCH  18  27
ATOM     26  C   UNL     1      -2.221   6.586   0.917  0.00  0.00    +0.026 C 
ATOM     27  C   UNL     1      -1.194   6.518  -0.216  0.00  0.00    +0.128 C 
ENDBRANCH  18  27
ENDBRANCH  15  18
ENDBRANCH   1  15
TORSDOF 4
