REMARK  Name = ZINC11424156
REMARK  9 active torsions:
REMARK  status: ('A' for Active; 'I' for Inactive)
REMARK    1  A    between atoms: C_1  and  C_2
REMARK    2  A    between atoms: C_2  and  C_3
REMARK    3  A    between atoms: C_3  and  C_5
REMARK    4  A    between atoms: C_3  and  N_6
REMARK    5  A    between atoms: C_15  and  S_16
REMARK    6  A    between atoms: S_16  and  C_17
REMARK    7  A    between atoms: C_17  and  C_18
REMARK    8  A    between atoms: C_21  and  C_23
REMARK    9  A    between atoms: N_27  and  C_28
REMARK                            x       y       z     vdW  Elec       q    Type
REMARK                         _______ _______ _______ _____ _____    ______ ____
ROOT
ATOM      1  N   UNL     1      -0.587   1.692  -1.204  0.00  0.00    -0.284 N 
ATOM      2  C   UNL     1      -1.250   0.905  -2.071  0.00  0.00    +0.263 A 
ATOM      3  O   UNL     1      -1.247  -0.306  -1.934  0.00  0.00    -0.267 OA
ATOM      4  C   UNL     1      -1.964   1.512  -3.153  0.00  0.00    +0.076 A 
ATOM      5  C   UNL     1      -2.752   0.850  -4.200  0.00  0.00    -0.023 A 
ATOM      6  C   UNL     1      -3.322   1.648  -5.125  0.00  0.00    -0.004 A 
ATOM      7  S   UNL     1      -2.861   3.297  -4.662  0.00  0.00    -0.073 S 
ATOM      8  C   UNL     1      -1.896   2.912  -3.224  0.00  0.00    +0.117 A 
ATOM      9  N   UNL     1      -1.219   3.632  -2.337  0.00  0.00    -0.216 NA
ATOM     10  C   UNL     1      -0.576   3.049  -1.346  0.00  0.00    +0.173 A 
ATOM     11  C   UNL     1      -4.154   1.240  -6.301  0.00  0.00    +0.043 C 
ATOM     12  C   UNL     1      -5.237   0.256  -5.841  0.00  0.00    +0.005 C 
ATOM     13  C   UNL     1      -4.673  -1.159  -5.939  0.00  0.00    +0.001 C 
ATOM     14  C   UNL     1      -3.174  -1.145  -5.646  0.00  0.00    +0.005 C 
ATOM     15  C   UNL     1      -2.914  -0.667  -4.222  0.00  0.00    +0.037 C 
ENDROOT
BRANCH   1  16
ATOM     16  C   UNL     1       0.141   1.080  -0.090  0.00  0.00    +0.089 C 
ATOM     17  C   UNL     1       1.225   0.150  -0.639  0.00  0.00    +0.031 C 
BRANCH  16  19
ATOM     18  C   UNL     1      -1.871   1.216   1.385  0.00  0.00    +0.006 C 
ATOM     19  C   UNL     1      -0.832   0.274   0.774  0.00  0.00    +0.021 C 
ENDBRANCH  16  19
ENDBRANCH   1  16
BRANCH  10  20
ATOM     20  S   UNL     1       0.312   4.036  -0.187  0.00  0.00    -0.078 S 
BRANCH  20  21
ATOM     21  C   UNL     1      -0.021   5.684  -0.858  0.00  0.00    +0.173 C 
BRANCH  21  22
ATOM     22  C   UNL     1       0.660   6.722  -0.002  0.00  0.00    +0.230 C 
ATOM     23  O   UNL     1       1.306   6.381   0.965  0.00  0.00    -0.274 OA
ATOM     24  N   UNL     1       0.550   8.029  -0.312  0.00  0.00    -0.250 N 
ATOM     25  C   UNL     1       1.158   8.956   0.453  0.00  0.00    +0.267 C 
ATOM     26  O   UNL     1       1.738   8.622   1.468  0.00  0.00    -0.268 OA
ATOM     27  H   UNL     1       0.033   8.302  -1.086  0.00  0.00    +0.158 HD
BRANCH  25  28
ATOM     28  C   UNL     1       1.122  10.368   0.060  0.00  0.00    +0.105 A 
ATOM     29  C   UNL     1       0.427  10.901  -1.006  0.00  0.00    +0.032 A 
ATOM     30  C   UNL     1       0.675  12.277  -1.007  0.00  0.00    +0.020 A 
ATOM     31  C   UNL     1       1.496  12.552   0.035  0.00  0.00    +0.086 A 
ATOM     32  N   UNL     1       1.770  11.405   0.692  0.00  0.00    -0.346 N 
ATOM     33  C   UNL     1       2.619  11.284   1.880  0.00  0.00    +0.149 C 
ENDBRANCH  25  28
ENDBRANCH  21  22
ENDBRANCH  20  21
ENDBRANCH  10  20
TORSDOF 6
