REMARK  Name = ZINC41019495
REMARK  10 active torsions:
REMARK  status: ('A' for Active; 'I' for Inactive)
REMARK    1  A    between atoms: C_1  and  C_2
REMARK    2  A    between atoms: C_2  and  S_3
REMARK    3  A    between atoms: S_3  and  C_4
REMARK    4  A    between atoms: C_9  and  C_26
REMARK    5  A    between atoms: C_11  and  C_15
REMARK    6  A    between atoms: C_12  and  C_14
REMARK    7  A    between atoms: N_17  and  C_18
REMARK    8  A    between atoms: C_22  and  C_25
REMARK    9  A    between atoms: C_23  and  C_24
REMARK   10  A    between atoms: C_29  and  O_32
REMARK                            x       y       z     vdW  Elec       q    Type
REMARK                         _______ _______ _______ _____ _____    ______ ____
ROOT
ATOM      1  C   UNL     1      -1.456  -2.394   0.235  0.00  0.00    +0.210 A 
ATOM      2  N   UNL     1      -0.297  -3.065   0.169  0.00  0.00    -0.187 NA
ATOM      3  C   UNL     1      -0.538  -4.347   0.120  0.00  0.00    +0.219 A 
ATOM      4  N   UNL     1      -1.882  -4.525   0.150  0.00  0.00    -0.220 N 
ATOM      5  N   UNL     1      -2.451  -3.255   0.233  0.00  0.00    -0.141 NA
ATOM      6  C   UNL     1      -2.525  -5.835   0.101  0.00  0.00    +0.177 C 
ATOM      7  C   UNL     1      -1.492  -6.909   0.316  0.00  0.00    +0.060 C 
ATOM      8  C   UNL     1      -0.172  -6.673   0.279  0.00  0.00    +0.018 C 
ATOM      9  N   UNL     1       0.341  -5.419   0.051  0.00  0.00    -0.287 N 
ATOM     10  C   UNL     1       0.779  -7.821   0.494  0.00  0.00    +0.061 C 
ATOM     11  H   UNL     1       1.280  -5.288  -0.150  0.00  0.00    +0.155 HD
ENDROOT
BRANCH   6  12
ATOM     12  C   UNL     1      -3.176  -6.025  -1.244  0.00  0.00    -0.018 A 
ATOM     13  C   UNL     1      -2.409  -5.992  -2.393  0.00  0.00    +0.009 A 
ATOM     14  C   UNL     1      -3.003  -6.166  -3.628  0.00  0.00    +0.046 A 
ATOM     15  C   UNL     1      -4.372  -6.374  -3.715  0.00  0.00    +0.117 A 
ATOM     16  C   UNL     1      -5.140  -6.408  -2.560  0.00  0.00    +0.046 A 
ATOM     17  C   UNL     1      -4.540  -6.239  -1.327  0.00  0.00    +0.009 A 
BRANCH  15  18
ATOM     18  O   UNL     1      -4.959  -6.545  -4.928  0.00  0.00    -0.507 OA
ATOM     19  H   UNL     1      -5.000  -7.466  -5.219  0.00  0.00    +0.292 HD
ENDBRANCH  15  18
ENDBRANCH   6  12
BRANCH   7  20
ATOM     20  C   UNL     1      -1.934  -8.229   0.568  0.00  0.00    +0.248 C 
ATOM     21  O   UNL     1      -2.307  -8.543   1.684  0.00  0.00    -0.270 OA
ATOM     22  N   UNL     1      -1.943  -9.139  -0.426  0.00  0.00    -0.281 N 
ATOM     23  H   UNL     1      -1.586  -8.907  -1.298  0.00  0.00    +0.155 HD
BRANCH  22  24
ATOM     24  C   UNL     1      -2.466 -10.416  -0.201  0.00  0.00    +0.037 A 
ATOM     25  C   UNL     1      -2.314 -11.021   1.040  0.00  0.00    +0.023 A 
ATOM     26  C   UNL     1      -2.832 -12.282   1.259  0.00  0.00    +0.002 A 
ATOM     27  C   UNL     1      -3.501 -12.943   0.244  0.00  0.00    +0.004 A 
ATOM     28  C   UNL     1      -3.653 -12.343  -0.992  0.00  0.00    -0.046 A 
ATOM     29  C   UNL     1      -3.143 -11.079  -1.216  0.00  0.00    -0.026 A 
ATOM     30  C   UNL     1      -3.315 -10.424  -2.562  0.00  0.00    +0.046 C 
ATOM     31  C   UNL     1      -4.383 -13.066  -2.095  0.00  0.00    +0.044 C 
ENDBRANCH  22  24
ENDBRANCH   7  20
BRANCH   1  32
ATOM     32  S   UNL     1      -1.620  -0.641   0.321  0.00  0.00    -0.085 S 
BRANCH  32  34
ATOM     33  C   UNL     1       0.094   1.490   0.355  0.00  0.00    +0.016 C 
ATOM     34  C   UNL     1       0.090  -0.038   0.286  0.00  0.00    +0.074 C 
ENDBRANCH  32  34
ENDBRANCH   1  32
TORSDOF 6
