REMARK  Name = ZINC39098115
REMARK  2 active torsions:
REMARK  status: ('A' for Active; 'I' for Inactive)
REMARK    1  A    between atoms: C_13  and  O_16
REMARK    2  A    between atoms: C_13  and  O_17
REMARK                            x       y       z     vdW  Elec       q    Type
REMARK                         _______ _______ _______ _____ _____    ______ ____
ROOT
ATOM      1  C   UNL     1      -0.017   1.387   0.010  0.00  0.00    +0.000 A 
ATOM      2  C   UNL     1       1.174   2.094   0.002  0.00  0.00    +0.002 A 
ATOM      3  C   UNL     1       2.388   1.425  -0.016  0.00  0.00    +0.023 A 
ATOM      4  C   UNL     1       2.421   0.067  -0.025  0.00  0.00    +0.037 A 
ATOM      5  C   UNL     1       1.194  -0.645  -0.013  0.00  0.00    -0.023 A 
ATOM      6  C   UNL     1       0.002  -0.004   0.002  0.00  0.00    +0.006 A 
ATOM      7  C   UNL     1       1.428  -2.149  -0.018  0.00  0.00    +0.021 C 
ATOM      8  C   UNL     1       1.928  -2.697   1.290  0.00  0.00    +0.010 C 
ATOM      9  C   UNL     1       3.481  -2.754   1.320  0.00  0.00    +0.020 C 
ATOM     10  C   UNL     1       4.064  -1.342   1.191  0.00  0.00    +0.110 C 
ATOM     11  N   UNL     1       3.490  -0.821  -0.052  0.00  0.00    -0.280 N 
ATOM     12  C   UNL     1       3.925  -1.389  -1.323  0.00  0.00    +0.242 C 
ATOM     13  C   UNL     1       2.665  -1.706  -2.131  0.00  0.00    +0.088 C 
ATOM     14  C   UNL     1       1.765  -2.725  -1.377  0.00  0.00    +0.015 C 
ENDROOT
BRANCH  12  15
ATOM     15  O   UNL     1       4.668  -2.587  -1.091  0.00  0.00    -0.350 OA
ATOM     16  H   UNL     1       4.987  -3.015  -1.898  0.00  0.00    +0.214 HD
ENDBRANCH  12  15
BRANCH  12  17
ATOM     17  O   UNL     1       4.731  -0.444  -2.028  0.00  0.00    -0.350 OA
ATOM     18  H   UNL     1       5.053  -0.761  -2.883  0.00  0.00    +0.214 HD
ENDBRANCH  12  17
TORSDOF 2
