REMARK  Name = ZINC01784057
REMARK  10 active torsions:
REMARK  status: ('A' for Active; 'I' for Inactive)
REMARK    1  A    between atoms: C_1  and  C_2
REMARK    2  A    between atoms: C_3  and  C_29
REMARK    3  A    between atoms: N_9  and  C_12
REMARK    4  A    between atoms: C_12  and  C_13
REMARK    5  A    between atoms: N_15  and  N_16
REMARK    6  A    between atoms: C_17  and  C_18
REMARK    7  A    between atoms: C_20  and  O_27
REMARK    8  A    between atoms: C_21  and  O_25
REMARK    9  A    between atoms: O_25  and  C_26
REMARK   10  A    between atoms: O_27  and  C_28
REMARK                            x       y       z     vdW  Elec       q    Type
REMARK                         _______ _______ _______ _____ _____    ______ ____
ROOT
ATOM      1  C   UNL     1       1.396   1.982  -0.001  0.00  0.00    +0.252 C 
ATOM      2  O   UNL     1       2.329   1.207  -0.014  0.00  0.00    -0.272 OA
ATOM      3  N   UNL     1       1.624   3.311   0.004  0.00  0.00    -0.206 N 
ATOM      4  H   UNL     1       0.879   3.931   0.015  0.00  0.00    +0.177 HD
ENDROOT
BRANCH   3   5
ATOM      5  N   UNL     1       2.939   3.796  -0.006  0.00  0.00    -0.188 NA
ATOM      6  C   UNL     1       3.159   5.075  -0.001  0.00  0.00    +0.138 C 
BRANCH   6   7
ATOM      7  C   UNL     1       4.542   5.585  -0.011  0.00  0.00    -0.001 A 
ATOM      8  C   UNL     1       4.780   6.962  -0.012  0.00  0.00    +0.059 A 
ATOM      9  C   UNL     1       6.079   7.435  -0.016  0.00  0.00    +0.163 A 
ATOM     10  C   UNL     1       7.147   6.541  -0.031  0.00  0.00    +0.175 A 
ATOM     11  C   UNL     1       6.911   5.173  -0.036  0.00  0.00    +0.064 A 
ATOM     12  C   UNL     1       5.617   4.693  -0.026  0.00  0.00    +0.028 A 
ATOM     13 BR   UNL     1       8.365   3.965  -0.056  0.00  0.00    -0.046 Br
BRANCH  10  14
ATOM     14  O   UNL     1       8.423   7.009  -0.040  0.00  0.00    -0.490 OA
ATOM     15  C   UNL     1       9.021   7.239  -1.318  0.00  0.00    +0.277 C 
ENDBRANCH  10  14
BRANCH   9  16
ATOM     16  O   UNL     1       6.314   8.775  -0.011  0.00  0.00    -0.491 OA
ATOM     17  C   UNL     1       5.172   9.634   0.005  0.00  0.00    +0.277 C 
ENDBRANCH   9  16
ENDBRANCH   6   7
ENDBRANCH   3   5
BRANCH   1  18
ATOM     18  C   UNL     1      -0.018   1.461   0.010  0.00  0.00    +0.223 C 
BRANCH  18  27
ATOM     19  C   UNL     1       0.071  -2.532   3.685  0.00  0.00    +0.045 C 
ATOM     20  C   UNL     1       0.064  -3.036   2.265  0.00  0.00    -0.026 A 
ATOM     21  C   UNL     1       0.078  -4.355   2.012  0.00  0.00    -0.008 A 
ATOM     22  S   UNL     1       0.062  -4.434   0.231  0.00  0.00    -0.073 S 
ATOM     23  C   UNL     1       0.037  -2.695  -0.121  0.00  0.00    +0.116 A 
ATOM     24  C   UNL     1       0.041  -2.103   1.154  0.00  0.00    +0.075 A 
ATOM     25  C   UNL     1       0.022  -0.670   1.172  0.00  0.00    +0.263 A 
ATOM     26  O   UNL     1       0.024  -0.063   2.229  0.00  0.00    -0.267 OA
ATOM     27  N   UNL     1       0.002  -0.004   0.002  0.00  0.00    -0.290 N 
ATOM     28  C   UNL     1      -0.006  -0.663  -1.185  0.00  0.00    +0.203 A 
ATOM     29  N   UNL     1       0.016  -1.968  -1.234  0.00  0.00    -0.230 NA
ATOM     30  C   UNL     1       0.102  -5.495   2.997  0.00  0.00    +0.052 C 
ENDBRANCH  18  27
ENDBRANCH   1  18
TORSDOF 6
