REMARK  Name = ZINC09049521
REMARK  6 active torsions:
REMARK  status: ('A' for Active; 'I' for Inactive)
REMARK    1  A    between atoms: C_11  and  C_15
REMARK    2  A    between atoms: N_17  and  C_18
REMARK    3  A    between atoms: C_18  and  C_19
REMARK    4  A    between atoms: C_19  and  C_20
REMARK    5  A    between atoms: C_23  and  S_26
REMARK    6  A    between atoms: S_26  and  N_29
REMARK                            x       y       z     vdW  Elec       q    Type
REMARK                         _______ _______ _______ _____ _____    ______ ____
ROOT
ATOM      1  C   UNL     1       8.475  -0.407  -0.074  0.00  0.00    +0.244 C 
ATOM      2  O   UNL     1       9.183   0.581  -0.076  0.00  0.00    -0.270 OA
ATOM      3  N   UNL     1       9.032  -1.635  -0.084  0.00  0.00    -0.311 N 
ATOM      4  H   UNL     1       8.467  -2.424  -0.083  0.00  0.00    +0.149 HD
ENDROOT
BRANCH   1  15
ATOM      5  C   UNL     1      -0.688   3.196   0.026  0.00  0.00    +0.019 A 
ATOM      6  C   UNL     1      -1.115   1.851   0.017  0.00  0.00    +0.019 A 
ATOM      7  C   UNL     1      -0.013   1.076   0.008  0.00  0.00    +0.093 A 
ATOM      8  N   UNL     1       1.084   1.893   0.002  0.00  0.00    -0.302 N 
ATOM      9  C   UNL     1       0.660   3.193   0.013  0.00  0.00    +0.093 A 
ATOM     10  C   UNL     1       2.408   1.473  -0.012  0.00  0.00    +0.178 A 
ATOM     11  N   UNL     1       2.884   0.249  -0.017  0.00  0.00    -0.222 NA
ATOM     12  C   UNL     1       4.199  -0.018  -0.035  0.00  0.00    +0.081 A 
ATOM     13  C   UNL     1       4.830  -1.288  -0.046  0.00  0.00    +0.030 A 
ATOM     14  C   UNL     1       6.181  -1.397  -0.058  0.00  0.00    +0.015 A 
ATOM     15  C   UNL     1       7.007  -0.264  -0.060  0.00  0.00    +0.038 A 
ATOM     16  C   UNL     1       6.419   1.005  -0.049  0.00  0.00    +0.030 A 
ATOM     17  C   UNL     1       5.055   1.111  -0.037  0.00  0.00    +0.042 A 
ATOM     18  S   UNL     1       3.898   2.459  -0.021  0.00  0.00    -0.049 S 
ENDBRANCH   1  15
BRANCH   3  19
ATOM     19  C   UNL     1      10.490  -1.778  -0.098  0.00  0.00    +0.109 C 
BRANCH  19  20
ATOM     20  C   UNL     1      10.857  -3.263  -0.107  0.00  0.00    +0.054 C 
BRANCH  20  21
ATOM     21  C   UNL     1      12.357  -3.410  -0.121  0.00  0.00    -0.046 A 
ATOM     22  C   UNL     1      13.033  -3.478  -1.324  0.00  0.00    +0.005 A 
ATOM     23  C   UNL     1      14.409  -3.609  -1.337  0.00  0.00    +0.029 A 
ATOM     24  C   UNL     1      15.108  -3.680  -0.146  0.00  0.00    +0.105 A 
ATOM     25  C   UNL     1      14.431  -3.618   1.057  0.00  0.00    +0.029 A 
ATOM     26  C   UNL     1      13.055  -3.483   1.070  0.00  0.00    +0.005 A 
BRANCH  24  27
ATOM     27  S   UNL     1      16.862  -3.851  -0.162  0.00  0.00    +0.056 S 
ATOM     28  O   UNL     1      17.308  -3.338  -1.410  0.00  0.00    -0.153 OA
ATOM     29  O   UNL     1      17.330  -3.346   1.081  0.00  0.00    -0.153 OA
BRANCH  27  30
ATOM     30  N   UNL     1      17.196  -5.473  -0.171  0.00  0.00    -0.204 NA
ATOM     31  H   UNL     1      16.471  -6.117  -0.167  0.00  0.00    +0.144 HD
ATOM     32  H   UNL     1      18.116  -5.778  -0.180  0.00  0.00    +0.144 HD
ENDBRANCH  27  30
ENDBRANCH  24  27
ENDBRANCH  20  21
ENDBRANCH  19  20
ENDBRANCH   3  19
TORSDOF 6
