REMARK  Name = ZINC47999237
REMARK  8 active torsions:
REMARK  status: ('A' for Active; 'I' for Inactive)
REMARK    1  A    between atoms: C_1  and  C_2
REMARK    2  A    between atoms: C_5  and  C_26
REMARK    3  A    between atoms: N_8  and  C_10
REMARK    4  A    between atoms: C_10  and  C_11
REMARK    5  A    between atoms: C_11  and  N_12
REMARK    6  A    between atoms: C_13  and  C_15
REMARK    7  A    between atoms: N_17  and  C_18
REMARK    8  A    between atoms: C_19  and  C_23
REMARK                            x       y       z     vdW  Elec       q    Type
REMARK                         _______ _______ _______ _____ _____    ______ ____
ROOT
ATOM      1  N   UNL     1       3.766  -2.508   3.387  0.00  0.00    -0.309 N 
ATOM      2  C   UNL     1       5.085  -2.243   3.470  0.00  0.00    +0.299 C 
ATOM      3  O   UNL     1       5.632  -1.607   2.593  0.00  0.00    -0.265 OA
ATOM      4  H   UNL     1       3.329  -3.017   4.088  0.00  0.00    +0.149 HD
ENDROOT
BRANCH   2   5
ATOM      5  C   UNL     1       5.873  -2.732   4.640  0.00  0.00    +0.304 C 
ATOM      6  O   UNL     1       5.325  -3.369   5.517  0.00  0.00    -0.265 OA
ATOM      7  N   UNL     1       7.192  -2.468   4.723  0.00  0.00    -0.272 N 
ATOM      8  H   UNL     1       7.629  -1.959   4.022  0.00  0.00    +0.156 HD
BRANCH   7   9
ATOM      9  C   UNL     1       7.922  -2.921   5.808  0.00  0.00    +0.084 A 
ATOM     10  C   UNL     1       9.274  -2.740   6.061  0.00  0.00    +0.065 A 
ATOM     11  C   UNL     1       9.787  -3.324   7.279  0.00  0.00    +0.022 A 
ATOM     12  C   UNL     1       8.889  -3.983   8.037  0.00  0.00    +0.048 A 
ATOM     13  S   UNL     1       7.374  -3.809   7.121  0.00  0.00    -0.081 S 
BRANCH  10  14
ATOM     14  C   UNL     1      10.139  -1.996   5.140  0.00  0.00    +0.244 C 
ATOM     15  O   UNL     1       9.674  -1.517   4.122  0.00  0.00    -0.270 OA
ATOM     16  N   UNL     1      11.448  -1.841   5.421  0.00  0.00    -0.325 N 
ATOM     17  H   UNL     1      11.819  -2.223   6.232  0.00  0.00    +0.145 HD
ATOM     18  H   UNL     1      12.020  -1.348   4.811  0.00  0.00    +0.145 HD
ENDBRANCH  10  14
ENDBRANCH   7   9
ENDBRANCH   2   5
BRANCH   1  19
ATOM     19  C   UNL     1       2.993  -2.028   2.239  0.00  0.00    +0.086 C 
BRANCH  19  20
ATOM     20  C   UNL     1       1.534  -2.461   2.390  0.00  0.00    -0.060 C 
BRANCH  20  26
ATOM     21  C   UNL     1      -0.019   1.526   0.010  0.00  0.00    +0.005 C 
ATOM     22  C   UNL     1       0.002  -0.004   0.002  0.00  0.00    -0.031 C 
ATOM     23  C   UNL     1      -1.434  -0.535   0.015  0.00  0.00    +0.003 C 
ATOM     24  C   UNL     1      -1.402  -2.064   0.086  0.00  0.00    -0.031 C 
ATOM     25  C   UNL     1      -0.613  -2.496   1.324  0.00  0.00    -0.076 C 
ATOM     26  N   UNL     1       0.758  -1.980   1.239  0.00  0.00    +0.381 N 
ATOM     27  C   UNL     1       0.740  -0.512   1.242  0.00  0.00    -0.076 C 
ATOM     28  C   UNL     1      -2.832  -2.602   0.177  0.00  0.00    +0.005 C 
ATOM     29  H   UNL     1       1.188  -2.307   0.386  0.00  0.00    -0.082 HD
ENDBRANCH  20  26
ENDBRANCH  19  20
ENDBRANCH   1  19
TORSDOF 6
