REMARK  Name = ZINC58615098
REMARK  8 active torsions:
REMARK  status: ('A' for Active; 'I' for Inactive)
REMARK    1  A    between atoms: C_4  and  C_7
REMARK    2  A    between atoms: C_7  and  N_8
REMARK    3  A    between atoms: N_11  and  C_12
REMARK    4  A    between atoms: C_12  and  C_17
REMARK    5  A    between atoms: N_19  and  C_20
REMARK    6  A    between atoms: C_23  and  S_26
REMARK    7  A    between atoms: S_26  and  C_27
REMARK    8  A    between atoms: C_27  and  C_28
REMARK                            x       y       z     vdW  Elec       q    Type
REMARK                         _______ _______ _______ _____ _____    ______ ____
ROOT
ATOM      1  C   UNL     1       6.699  -2.355   2.683  0.00  0.00    +0.112 C 
ATOM      2  C   UNL     1       7.862  -1.511   2.121  0.00  0.00    +0.035 C 
ATOM      3  C   UNL     1       8.404  -0.744   3.352  0.00  0.00    +0.003 C 
ATOM      4  C   UNL     1       8.292  -1.793   4.486  0.00  0.00    +0.003 C 
ATOM      5  C   UNL     1       6.973  -2.534   4.186  0.00  0.00    +0.035 C 
ENDROOT
BRANCH   1   9
ATOM      6  N   UNL     1       3.760  -0.869   1.053  0.00  0.00    -0.295 N 
ATOM      7  C   UNL     1       4.979  -1.414   1.237  0.00  0.00    +0.301 C 
ATOM      8  O   UNL     1       5.673  -1.689   0.277  0.00  0.00    -0.253 OA
ATOM      9  N   UNL     1       5.428  -1.654   2.484  0.00  0.00    -0.285 N 
ATOM     10  H   UNL     1       3.206  -0.649   1.818  0.00  0.00    +0.151 HD
ATOM     11  H   UNL     1       4.910  -1.362   3.251  0.00  0.00    +0.151 HD
BRANCH   6  12
ATOM     12  C   UNL     1       3.272  -0.607  -0.303  0.00  0.00    +0.141 C 
BRANCH  12  16
ATOM     13  C   UNL     1      -0.633   1.113  -0.106  0.00  0.00    +0.000 A 
ATOM     14  C   UNL     1       0.482   1.929  -0.101  0.00  0.00    +0.000 A 
ATOM     15  C   UNL     1       1.746   1.372  -0.165  0.00  0.00    +0.005 A 
ATOM     16  C   UNL     1       1.894  -0.001  -0.233  0.00  0.00    -0.030 A 
ATOM     17  C   UNL     1       0.778  -0.816  -0.237  0.00  0.00    +0.005 A 
ATOM     18  C   UNL     1      -0.486  -0.260  -0.175  0.00  0.00    +0.000 A 
ENDBRANCH  12  16
ENDBRANCH   6  12
ENDBRANCH   1   9
BRANCH   1  19
ATOM     19  C   UNL     1       6.659  -3.699   2.002  0.00  0.00    +0.241 C 
ATOM     20  O   UNL     1       7.577  -4.045   1.288  0.00  0.00    -0.273 OA
ATOM     21  N   UNL     1       5.603  -4.516   2.185  0.00  0.00    -0.284 N 
ATOM     22  H   UNL     1       4.918  -4.286   2.833  0.00  0.00    +0.155 HD
BRANCH  21  23
ATOM     23  C   UNL     1       5.494  -5.698   1.441  0.00  0.00    +0.034 A 
ATOM     24  C   UNL     1       6.639  -6.349   1.001  0.00  0.00    +0.024 A 
ATOM     25  C   UNL     1       6.532  -7.514   0.267  0.00  0.00    +0.016 A 
ATOM     26  C   UNL     1       5.279  -8.035  -0.031  0.00  0.00    +0.008 A 
ATOM     27  C   UNL     1       4.134  -7.383   0.410  0.00  0.00    +0.016 A 
ATOM     28  C   UNL     1       4.241  -6.221   1.148  0.00  0.00    +0.024 A 
BRANCH  26  29
ATOM     29  S   UNL     1       5.142  -9.521  -0.967  0.00  0.00    -0.120 S 
BRANCH  29  30
ATOM     30  C   UNL     1       3.353  -9.796  -1.096  0.00  0.00    +0.111 C 
BRANCH  30  31
ATOM     31  C   UNL     1       3.094 -11.053  -1.885  0.00  0.00    -0.019 A 
ATOM     32  C   UNL     1       2.953 -11.000  -3.263  0.00  0.00    +0.007 A 
ATOM     33  C   UNL     1       2.715 -12.182  -3.948  0.00  0.00    +0.020 A 
ATOM     34  C   UNL     1       2.626 -13.365  -3.238  0.00  0.00    +0.111 A 
ATOM     35  N   UNL     1       2.765 -13.377  -1.927  0.00  0.00    -0.263 NA
ATOM     36  C   UNL     1       2.999 -12.274  -1.244  0.00  0.00    +0.115 A 
ENDBRANCH  30  31
ENDBRANCH  29  30
ENDBRANCH  26  29
ENDBRANCH  21  23
ENDBRANCH   1  19
TORSDOF 8
