REMARK  Name = ZINC39549955
REMARK  15 active torsions:
REMARK  status: ('A' for Active; 'I' for Inactive)
REMARK    1  A    between atoms: C_1  and  C_2
REMARK    2  A    between atoms: C_4  and  C_40
REMARK    3  A    between atoms: C_5  and  C_9
REMARK    4  A    between atoms: C_7  and  C_8
REMARK    5  A    between atoms: C_11  and  N_20
REMARK    6  A    between atoms: N_12  and  C_14
REMARK    7  A    between atoms: C_21  and  C_23
REMARK    8  A    between atoms: C_23  and  O_24
REMARK    9  A    between atoms: O_24  and  C_25
REMARK   10  A    between atoms: C_25  and  C_27
REMARK   11  A    between atoms: C_27  and  C_29
REMARK   12  A    between atoms: C_27  and  N_32
REMARK   13  A    between atoms: C_29  and  C_30
REMARK   14  A    between atoms: C_29  and  C_31
REMARK   15  A    between atoms: C_33  and  C_35
REMARK                            x       y       z     vdW  Elec       q    Type
REMARK                         _______ _______ _______ _____ _____    ______ ____
ROOT
ATOM      1  N   UNL     1       0.105  -7.513   1.494  0.00  0.00    -0.267 N 
ATOM      2  C   UNL     1       0.103  -7.385   2.836  0.00  0.00    +0.256 C 
ATOM      3  O   UNL     1       0.087  -6.282   3.340  0.00  0.00    -0.272 OA
ATOM      4  H   UNL     1       0.117  -8.395   1.091  0.00  0.00    +0.156 HD
ENDROOT
BRANCH   1   7
ATOM      5  C   UNL     1       0.061  -4.256  -0.021  0.00  0.00    +0.095 A 
ATOM      6  C   UNL     1       0.072  -5.088   1.114  0.00  0.00    +0.074 A 
ATOM      7  C   UNL     1       0.089  -6.377   0.685  0.00  0.00    +0.129 A 
ATOM      8  N   UNL     1       0.089  -6.359  -0.676  0.00  0.00    -0.218 N 
ATOM      9  N   UNL     1       0.065  -5.022  -1.092  0.00  0.00    -0.165 NA
BRANCH   5  14
ATOM     10  C   UNL     1      -0.018   1.503   0.010  0.00  0.00    +0.044 C 
ATOM     11  C   UNL     1       0.002  -0.004   0.002  0.00  0.00    -0.047 A 
ATOM     12  C   UNL     1       0.006  -0.687  -1.201  0.00  0.00    +0.007 A 
ATOM     13  C   UNL     1       0.025  -2.066  -1.215  0.00  0.00    -0.041 A 
ATOM     14  C   UNL     1       0.041  -2.772  -0.013  0.00  0.00    +0.005 A 
ATOM     15  C   UNL     1       0.037  -2.080   1.196  0.00  0.00    +0.014 A 
ATOM     16  C   UNL     1       0.023  -0.699   1.197  0.00  0.00    -0.047 A 
ATOM     17  C   UNL     1       0.025   0.051   2.504  0.00  0.00    +0.044 C 
ATOM     18  C   UNL     1       0.028  -2.808  -2.526  0.00  0.00    +0.044 C 
ENDBRANCH   5  14
BRANCH   8  19
ATOM     19  C   UNL     1       0.104  -7.482  -1.514  0.00  0.00    +0.067 A 
ATOM     20  C   UNL     1       0.804  -8.621  -1.139  0.00  0.00    +0.028 A 
ATOM     21  C   UNL     1       0.817  -9.726  -1.967  0.00  0.00    +0.002 A 
ATOM     22  C   UNL     1       0.134  -9.700  -3.169  0.00  0.00    +0.000 A 
ATOM     23  C   UNL     1      -0.564  -8.567  -3.546  0.00  0.00    +0.002 A 
ATOM     24  C   UNL     1      -0.586  -7.460  -2.719  0.00  0.00    +0.028 A 
ENDBRANCH   8  19
ENDBRANCH   1   7
BRANCH   2  25
ATOM     25  C   UNL     1       0.120  -8.613   3.709  0.00  0.00    +0.328 C 
BRANCH  25  26
ATOM     26  O   UNL     1       0.114  -8.220   5.083  0.00  0.00    -0.454 OA
BRANCH  26  27
ATOM     27  C   UNL     1       0.127  -9.202   5.998  0.00  0.00    +0.328 C 
ATOM     28  O   UNL     1       0.143 -10.357   5.644  0.00  0.00    -0.249 OA
BRANCH  27  29
ATOM     29  C   UNL     1       0.122  -8.864   7.466  0.00  0.00    +0.185 C 
BRANCH  29  30
ATOM     30  N   UNL     1       0.139 -10.101   8.252  0.00  0.00    -0.296 N 
ATOM     31  C   UNL     1       0.632 -10.095   9.507  0.00  0.00    +0.280 C 
ATOM     32  O   UNL     1       1.063  -9.063   9.987  0.00  0.00    -0.267 OA
ATOM     33  H   UNL     1      -0.204 -10.923   7.870  0.00  0.00    +0.150 HD
BRANCH  31  34
ATOM     34  C   UNL     1       0.649 -11.333  10.293  0.00  0.00    +0.189 A 
ATOM     35  C   UNL     1       1.112 -11.466  11.571  0.00  0.00    +0.054 A 
ATOM     36  C   UNL     1       0.936 -12.812  11.926  0.00  0.00    +0.042 A 
ATOM     37  C   UNL     1       0.380 -13.434  10.864  0.00  0.00    +0.196 A 
ATOM     38  O   UNL     1       0.204 -12.539   9.883  0.00  0.00    -0.458 OA
ENDBRANCH  31  34
ENDBRANCH  29  30
BRANCH  29  39
ATOM     39  C   UNL     1      -1.138  -8.064   7.801  0.00  0.00    +0.014 C 
ATOM     40  C   UNL     1      -1.143  -7.721   9.292  0.00  0.00    +0.009 C 
ATOM     41  C   UNL     1      -1.156  -6.773   6.981  0.00  0.00    +0.009 C 
ENDBRANCH  29  39
ENDBRANCH  27  29
ENDBRANCH  26  27
ENDBRANCH  25  26
ENDBRANCH   2  25
TORSDOF 10
