REMARK  Name = ZINC14075414
REMARK  15 active torsions:
REMARK  status: ('A' for Active; 'I' for Inactive)
REMARK    1  A    between atoms: C_1  and  C_2
REMARK    2  A    between atoms: C_2  and  C_3
REMARK    3  A    between atoms: C_3  and  C_4
REMARK    4  A    between atoms: C_4  and  N_5
REMARK    5  A    between atoms: N_5  and  C_6
REMARK    6  A    between atoms: C_7  and  N_18
REMARK    7  A    between atoms: N_8  and  C_15
REMARK    8  A    between atoms: C_15  and  C_16
REMARK    9  A    between atoms: C_16  and  C_17
REMARK   10  A    between atoms: C_19  and  C_21
REMARK   11  A    between atoms: C_22  and  C_23
REMARK   12  A    between atoms: C_28  and  O_29
REMARK   13  A    between atoms: O_29  and  C_30
REMARK   14  A    between atoms: C_30  and  C_31
REMARK   15  A    between atoms: C_34  and  C_36
REMARK                            x       y       z     vdW  Elec       q    Type
REMARK                         _______ _______ _______ _____ _____    ______ ____
ROOT
ATOM      1  N   UNL     1       2.388   3.739   0.046  0.00  0.00    -0.261 N 
ATOM      2  C   UNL     1       2.466   5.082  -0.045  0.00  0.00    +0.244 C 
ATOM      3  O   UNL     1       1.458   5.739  -0.234  0.00  0.00    -0.270 OA
ENDROOT
BRANCH   1   4
ATOM      4  C   UNL     1       1.129   3.103   0.028  0.00  0.00    +0.140 A 
ATOM      5  C   UNL     1       0.666   2.432   1.141  0.00  0.00    +0.127 A 
ATOM      6  N   UNL     1      -0.566   1.821   1.093  0.00  0.00    -0.280 N 
ATOM      7  C   UNL     1      -1.312   1.882  -0.025  0.00  0.00    +0.331 A 
ATOM      8  O   UNL     1      -2.400   1.339  -0.046  0.00  0.00    -0.246 OA
ATOM      9  N   UNL     1      -0.875   2.527  -1.121  0.00  0.00    -0.273 N 
ATOM     10  H   UNL     1      -1.446   2.551  -1.941  0.00  0.00    +0.173 HD
ATOM     11  C   UNL     1       0.324   3.142  -1.126  0.00  0.00    +0.277 A 
ATOM     12  O   UNL     1       0.709   3.728  -2.123  0.00  0.00    -0.266 OA
BRANCH   5  13
ATOM     13  N   UNL     1       1.426   2.373   2.285  0.00  0.00    -0.343 N 
ATOM     14  H   UNL     1       2.252   2.879   2.344  0.00  0.00    +0.144 HD
ATOM     15  H   UNL     1       1.137   1.827   3.032  0.00  0.00    +0.144 HD
ENDBRANCH   5  13
BRANCH   6  16
ATOM     16  C   UNL     1      -1.070   1.105   2.267  0.00  0.00    +0.128 C 
BRANCH  16  17
ATOM     17  C   UNL     1      -1.866   2.068   3.149  0.00  0.00    +0.018 C 
ATOM     18  C   UNL     1      -2.393   1.321   4.375  0.00  0.00    +0.005 C 
ENDBRANCH  16  17
ENDBRANCH   6  16
ENDBRANCH   1   4
BRANCH   2  19
ATOM     19  C   UNL     1       3.761   5.749   0.081  0.00  0.00    +0.068 C 
ATOM     20  C   UNL     1       3.839   7.094  -0.011  0.00  0.00    +0.016 C 
BRANCH  20  21
ATOM     21  C   UNL     1       5.140   7.765   0.117  0.00  0.00    +0.017 A 
ATOM     22  C   UNL     1       6.300   7.014   0.339  0.00  0.00    +0.011 A 
ATOM     23  C   UNL     1       7.517   7.650   0.451  0.00  0.00    +0.001 A 
ATOM     24  C   UNL     1       7.597   9.030   0.357  0.00  0.00    +0.004 A 
ATOM     25  C   UNL     1       6.460   9.784   0.143  0.00  0.00    +0.046 A 
ATOM     26  C   UNL     1       5.227   9.162   0.022  0.00  0.00    +0.128 A 
BRANCH  26  27
ATOM     27  O   UNL     1       4.108   9.902  -0.189  0.00  0.00    -0.485 OA
BRANCH  27  28
ATOM     28  C   UNL     1       4.274  11.319  -0.274  0.00  0.00    +0.285 C 
BRANCH  28  29
ATOM     29  C   UNL     1       2.934  11.968  -0.508  0.00  0.00    +0.086 A 
ATOM     30  C   UNL     1       1.807  11.219  -0.611  0.00  0.00    +0.073 A 
ATOM     31  S   UNL     1       0.586  12.497  -0.871  0.00  0.00    -0.080 S 
ATOM     32  C   UNL     1       1.669  13.854  -0.827  0.00  0.00    +0.076 A 
ATOM     33  N   UNL     1       2.829  13.275  -0.623  0.00  0.00    -0.246 NA
ATOM     34  C   UNL     1       1.356  15.320  -0.982  0.00  0.00    +0.073 C 
ENDBRANCH  28  29
ENDBRANCH  27  28
ENDBRANCH  26  27
ENDBRANCH  20  21
ENDBRANCH   2  19
BRANCH   1  35
ATOM     35  C   UNL     1       3.610   2.941   0.165  0.00  0.00    +0.114 C 
BRANCH  35  36
ATOM     36  C   UNL     1       4.184   2.676  -1.228  0.00  0.00    +0.019 C 
BRANCH  36  38
ATOM     37  C   UNL     1       6.034   1.577  -2.498  0.00  0.00    +0.004 C 
ATOM     38  C   UNL     1       5.460   1.842  -1.104  0.00  0.00    -0.002 C 
ENDBRANCH  36  38
ENDBRANCH  35  36
ENDBRANCH   1  35
TORSDOF 12
