REMARK  Name = ZINC03647357
REMARK  9 active torsions:
REMARK  status: ('A' for Active; 'I' for Inactive)
REMARK    1  A    between atoms: C_1  and  C_2
REMARK    2  A    between atoms: C_2  and  C_3
REMARK    3  A    between atoms: C_2  and  C_4
REMARK    4  A    between atoms: C_2  and  C_5
REMARK    5  A    between atoms: C_14  and  O_29
REMARK    6  A    between atoms: C_16  and  C_19
REMARK    7  A    between atoms: C_22  and  C_25
REMARK    8  A    between atoms: C_25  and  O_27
REMARK    9  A    between atoms: O_27  and  C_28
REMARK                            x       y       z     vdW  Elec       q    Type
REMARK                         _______ _______ _______ _____ _____    ______ ____
ROOT
ATOM      1  C   UNL     1       0.718  -0.497  -1.257  0.00  0.00    -0.000 C 
ATOM      2  C   UNL     1       0.746  -2.029  -1.264  0.00  0.00    +0.009 C 
ATOM      3  C   UNL     1       1.234  -2.534  -2.624  0.00  0.00    +0.037 C 
ATOM      4  C   UNL     1       2.549  -1.844  -2.958  0.00  0.00    -0.023 A 
ATOM      5  C   UNL     1       2.922  -0.707  -2.327  0.00  0.00    -0.004 A 
ATOM      6  S   UNL     1       4.491  -0.289  -3.038  0.00  0.00    -0.078 S 
ATOM      7  C   UNL     1       4.651  -1.547  -4.106  0.00  0.00    +0.080 A 
ATOM      8  C   UNL     1       3.496  -2.321  -3.949  0.00  0.00    +0.068 A 
ATOM      9  C   UNL     1       3.358  -3.527  -4.806  0.00  0.00    +0.220 C 
ATOM     10  N   UNL     1       4.413  -3.930  -5.460  0.00  0.00    -0.223 NA
ATOM     11  C   UNL     1       5.731  -3.316  -5.360  0.00  0.00    +0.224 C 
ATOM     12  N   UNL     1       5.640  -1.889  -5.001  0.00  0.00    -0.313 N 
ATOM     13  C   UNL     1       2.161   0.028  -1.267  0.00  0.00    +0.046 C 
ATOM     14  H   UNL     1       6.244  -1.228  -5.374  0.00  0.00    +0.149 HD
ENDROOT
BRANCH  11  15
ATOM     15  C   UNL     1       6.530  -4.037  -4.305  0.00  0.00    -0.005 A 
ATOM     16  C   UNL     1       7.488  -3.352  -3.578  0.00  0.00    +0.008 A 
ATOM     17  C   UNL     1       8.223  -4.005  -2.611  0.00  0.00    +0.015 A 
ATOM     18  C   UNL     1       7.999  -5.362  -2.367  0.00  0.00    +0.059 A 
ATOM     19  C   UNL     1       7.032  -6.047  -3.104  0.00  0.00    +0.015 A 
ATOM     20  C   UNL     1       6.300  -5.380  -4.064  0.00  0.00    +0.008 A 
BRANCH  18  21
ATOM     21  C   UNL     1       8.783  -6.069  -1.333  0.00  0.00    +0.339 C 
ATOM     22  O   UNL     1       9.624  -5.470  -0.694  0.00  0.00    -0.245 OA
BRANCH  21  23
ATOM     23  O   UNL     1       8.565  -7.378  -1.100  0.00  0.00    -0.464 OA
ATOM     24  C   UNL     1       9.359  -7.997  -0.087  0.00  0.00    +0.280 C 
ENDBRANCH  21  23
ENDBRANCH  18  21
ENDBRANCH  11  15
BRANCH   1  26
ATOM     25  C   UNL     1      -0.019   1.526   0.010  0.00  0.00    +0.011 C 
ATOM     26  C   UNL     1       0.002  -0.004   0.002  0.00  0.00    -0.035 C 
ATOM     27  C   UNL     1       0.742  -0.511   1.242  0.00  0.00    +0.011 C 
ATOM     28  C   UNL     1      -1.433  -0.534   0.013  0.00  0.00    +0.011 C 
ENDBRANCH   1  26
BRANCH   9  29
ATOM     29  O   UNL     1       2.180  -4.186  -4.903  0.00  0.00    -0.492 OA
ATOM     30  H   UNL     1       2.207  -4.956  -5.488  0.00  0.00    +0.294 HD
ENDBRANCH   9  29
TORSDOF 5
