REMARK  Name = ZINC16662227
REMARK  6 active torsions:
REMARK  status: ('A' for Active; 'I' for Inactive)
REMARK    1  A    between atoms: C_1  and  O_2
REMARK    2  A    between atoms: O_2  and  C_3
REMARK    3  A    between atoms: C_6  and  N_7
REMARK    4  A    between atoms: N_7  and  N_8
REMARK    5  A    between atoms: C_11  and  C_22
REMARK    6  A    between atoms: C_13  and  C_15
REMARK                            x       y       z     vdW  Elec       q    Type
REMARK                         _______ _______ _______ _____ _____    ______ ____
ROOT
ATOM      1  N   UNL     1       2.891   2.400  -5.108  0.00  0.00    -0.235 N 
ATOM      2  C   UNL     1       2.844   3.782  -5.038  0.00  0.00    +0.233 A 
ATOM      3  N   UNL     1       2.256   4.354  -3.998  0.00  0.00    -0.213 NA
ATOM      4  C   UNL     1       2.191   5.680  -3.895  0.00  0.00    +0.077 A 
ATOM      5  C   UNL     1       2.752   6.466  -4.901  0.00  0.00    +0.057 A 
ATOM      6  C   UNL     1       3.362   5.826  -5.980  0.00  0.00    +0.077 A 
ATOM      7  N   UNL     1       3.392   4.494  -6.010  0.00  0.00    -0.213 NA
ATOM      8  H   UNL     1       3.322   1.967  -5.862  0.00  0.00    +0.173 HD
ENDROOT
BRANCH   6   9
ATOM      9  C   UNL     1       3.974   6.616  -7.076  0.00  0.00    +0.001 A 
ATOM     10  C   UNL     1       3.948   8.009  -7.032  0.00  0.00    +0.011 A 
ATOM     11  C   UNL     1       4.519   8.739  -8.054  0.00  0.00    +0.016 A 
ATOM     12  C   UNL     1       5.115   8.091  -9.122  0.00  0.00    +0.018 A 
ATOM     13  C   UNL     1       5.144   6.708  -9.170  0.00  0.00    +0.016 A 
ATOM     14  C   UNL     1       4.581   5.968  -8.150  0.00  0.00    +0.011 A 
ATOM     15 BR   UNL     1       5.894   9.099 -10.520  0.00  0.00    -0.050 Br
ENDBRANCH   6   9
BRANCH   4  16
ATOM     16  C   UNL     1       1.530   6.311  -2.727  0.00  0.00    +0.001 A 
ATOM     17  C   UNL     1       1.461   7.700  -2.629  0.00  0.00    +0.010 A 
ATOM     18  C   UNL     1       0.845   8.283  -1.540  0.00  0.00    +0.001 A 
ATOM     19  C   UNL     1       0.298   7.491  -0.546  0.00  0.00    +0.000 A 
ATOM     20  C   UNL     1       0.364   6.112  -0.638  0.00  0.00    +0.001 A 
ATOM     21  C   UNL     1       0.972   5.519  -1.726  0.00  0.00    +0.010 A 
ENDBRANCH   4  16
BRANCH   1  22
ATOM     22  N   UNL     1       2.317   1.627  -4.090  0.00  0.00    -0.271 N 
ATOM     23  H   UNL     1       1.887   2.060  -3.337  0.00  0.00    +0.169 HD
BRANCH  22  27
ATOM     24  C   UNL     1       0.606  -0.608  -1.057  0.00  0.00    +0.167 C 
ATOM     25  C   UNL     1       1.162   0.146  -2.043  0.00  0.00    +0.058 C 
ATOM     26  C   UNL     1       1.790  -0.484  -3.142  0.00  0.00    -0.006 C 
ATOM     27  C   UNL     1       2.363   0.288  -4.158  0.00  0.00    +0.095 C 
ATOM     28  C   UNL     1       1.838  -1.893  -3.212  0.00  0.00    +0.013 C 
ATOM     29  C   UNL     1       1.282  -2.642  -2.225  0.00  0.00    +0.055 C 
ATOM     30  C   UNL     1       0.662  -2.017  -1.129  0.00  0.00    +0.220 C 
ATOM     31  O   UNL     1       0.166  -2.695  -0.238  0.00  0.00    -0.284 OA
BRANCH  24  33
ATOM     32  C   UNL     1      -0.017   1.425   0.010  0.00  0.00    +0.277 C 
ATOM     33  O   UNL     1       0.002  -0.004   0.002  0.00  0.00    -0.491 OA
ENDBRANCH  24  33
ENDBRANCH  22  27
ENDBRANCH   1  22
TORSDOF 5
