REMARK  Name = ZINC09094406
REMARK  10 active torsions:
REMARK  status: ('A' for Active; 'I' for Inactive)
REMARK    1  A    between atoms: C_4  and  C_7
REMARK    2  A    between atoms: C_10  and  S_18
REMARK    3  A    between atoms: N_11  and  C_12
REMARK    4  A    between atoms: S_18  and  C_19
REMARK    5  A    between atoms: C_19  and  C_20
REMARK    6  A    between atoms: C_20  and  O_22
REMARK    7  A    between atoms: O_22  and  C_23
REMARK    8  A    between atoms: C_23  and  C_24
REMARK    9  A    between atoms: N_26  and  C_27
REMARK   10  A    between atoms: C_28  and  C_32
REMARK                            x       y       z     vdW  Elec       q    Type
REMARK                         _______ _______ _______ _____ _____    ______ ____
ROOT
ATOM      1  C   UNL     1       4.025   6.009  -0.004  0.00  0.00    +0.197 C 
ENDROOT
BRANCH   1   2
ATOM      2  C   UNL     1       2.641   5.415   0.006  0.00  0.00    +0.318 C 
ATOM      3  O   UNL     1       1.673   6.137   0.019  0.00  0.00    -0.250 OA
BRANCH   2   4
ATOM      4  O   UNL     1       2.483   4.082   0.000  0.00  0.00    -0.455 OA
BRANCH   4   5
ATOM      5  C   UNL     1       1.121   3.579   0.011  0.00  0.00    +0.328 C 
BRANCH   5   6
ATOM      6  C   UNL     1       1.141   2.072   0.002  0.00  0.00    +0.255 C 
ATOM      7  O   UNL     1       2.200   1.480  -0.011  0.00  0.00    -0.272 OA
ATOM      8  N   UNL     1      -0.017   1.382   0.010  0.00  0.00    -0.277 N 
ATOM      9  H   UNL     1      -0.863   1.856   0.016  0.00  0.00    +0.155 HD
BRANCH   8  10
ATOM     10  C   UNL     1       0.002  -0.004   0.002  0.00  0.00    +0.084 A 
ATOM     11  C   UNL     1      -1.075  -0.882   0.013  0.00  0.00    +0.065 A 
ATOM     12  C   UNL     1      -0.764  -2.292  -0.003  0.00  0.00    +0.022 A 
ATOM     13  C   UNL     1       0.537  -2.633  -0.017  0.00  0.00    +0.048 A 
ATOM     14  S   UNL     1       1.373  -1.061  -0.016  0.00  0.00    -0.081 S 
BRANCH  11  15
ATOM     15  C   UNL     1      -2.460  -0.401   0.037  0.00  0.00    +0.244 C 
ATOM     16  O   UNL     1      -2.688   0.795   0.047  0.00  0.00    -0.270 OA
ATOM     17  N   UNL     1      -3.480  -1.282   0.047  0.00  0.00    -0.325 N 
ATOM     18  H   UNL     1      -3.298  -2.234   0.039  0.00  0.00    +0.145 HD
ATOM     19  H   UNL     1      -4.396  -0.963   0.062  0.00  0.00    +0.145 HD
ENDBRANCH  11  15
ENDBRANCH   8  10
ENDBRANCH   5   6
ENDBRANCH   4   5
ENDBRANCH   2   4
ENDBRANCH   1   2
BRANCH   1  20
ATOM     20  S   UNL     1       3.906   7.815   0.007  0.00  0.00    -0.074 S 
BRANCH  20  24
ATOM     21  C   UNL     1       7.511   9.329  -0.019  0.00  0.00    +0.169 A 
ATOM     22  N   UNL     1       7.739   8.037  -0.029  0.00  0.00    -0.128 NA
ATOM     23  N   UNL     1       6.627   7.393  -0.022  0.00  0.00    -0.122 NA
ATOM     24  C   UNL     1       5.617   8.235  -0.007  0.00  0.00    +0.197 A 
ATOM     25  N   UNL     1       6.143   9.498  -0.011  0.00  0.00    -0.270 N 
BRANCH  21  29
ATOM     26  C   UNL     1      10.435  12.410  -0.030  0.00  0.00    +0.000 A 
ATOM     27  C   UNL     1      10.799  11.114  -0.351  0.00  0.00    +0.001 A 
ATOM     28  C   UNL     1       9.854  10.109  -0.349  0.00  0.00    +0.011 A 
ATOM     29  C   UNL     1       8.528  10.401  -0.023  0.00  0.00    +0.020 A 
ATOM     30  C   UNL     1       8.167  11.712   0.294  0.00  0.00    +0.011 A 
ATOM     31  C   UNL     1       9.123  12.707   0.294  0.00  0.00    +0.001 A 
ENDBRANCH  21  29
BRANCH  25  32
ATOM     32  C   UNL     1       5.439  10.710  -0.005  0.00  0.00    +0.051 A 
ATOM     33  C   UNL     1       5.524  11.569  -1.093  0.00  0.00    +0.026 A 
ATOM     34  C   UNL     1       4.825  12.760  -1.086  0.00  0.00    +0.002 A 
ATOM     35  C   UNL     1       4.049  13.102   0.007  0.00  0.00    +0.000 A 
ATOM     36  C   UNL     1       3.966  12.251   1.093  0.00  0.00    +0.002 A 
ATOM     37  C   UNL     1       4.659  11.056   1.090  0.00  0.00    +0.026 A 
ENDBRANCH  25  32
ENDBRANCH  20  24
ENDBRANCH   1  20
TORSDOF 10
