REMARK  Name = ZINC02254486
REMARK  11 active torsions:
REMARK  status: ('A' for Active; 'I' for Inactive)
REMARK    1  A    between atoms: C_1  and  C_2
REMARK    2  A    between atoms: C_2  and  C_3
REMARK    3  A    between atoms: C_2  and  C_4
REMARK    4  A    between atoms: C_2  and  C_5
REMARK    5  A    between atoms: C_11  and  C_25
REMARK    6  A    between atoms: C_13  and  N_24
REMARK    7  A    between atoms: C_14  and  C_18
REMARK    8  A    between atoms: C_18  and  C_20
REMARK    9  A    between atoms: C_20  and  C_21
REMARK   10  A    between atoms: C_20  and  C_22
REMARK   11  A    between atoms: C_20  and  C_23
REMARK                            x       y       z     vdW  Elec       q    Type
REMARK                         _______ _______ _______ _____ _____    ______ ____
ROOT
ATOM      1  C   UNL     1       0.235   1.385   5.207  0.00  0.00    -0.001 C 
ATOM      2  C   UNL     1       1.536   0.970   5.904  0.00  0.00    +0.010 C 
ATOM      3  C   UNL     1       2.667   1.015   4.878  0.00  0.00    +0.056 C 
ATOM      4  C   UNL     1       2.679   2.340   4.160  0.00  0.00    +0.046 A 
ATOM      5  C   UNL     1       1.598   3.192   4.160  0.00  0.00    -0.017 A 
ATOM      6  C   UNL     1       1.667   4.406   3.469  0.00  0.00    +0.005 A 
ATOM      7  C   UNL     1       2.866   4.747   2.771  0.00  0.00    +0.037 A 
ATOM      8  C   UNL     1       3.143   5.905   2.021  0.00  0.00    +0.052 A 
ATOM      9  C   UNL     1       4.386   6.038   1.420  0.00  0.00    +0.078 A 
ATOM     10  S   UNL     1       5.216   4.531   1.891  0.00  0.00    -0.064 S 
ATOM     11  C   UNL     1       3.909   3.797   2.846  0.00  0.00    +0.112 A 
ATOM     12  N   UNL     1       3.789   2.672   3.509  0.00  0.00    -0.244 NA
ATOM     13  C   UNL     1       0.316   2.875   4.885  0.00  0.00    +0.041 C 
ENDROOT
BRANCH   6  14
ATOM     14  C   UNL     1       0.515   5.324   3.461  0.00  0.00    +0.020 A 
ATOM     15  C   UNL     1      -0.703   5.178   2.845  0.00  0.00    +0.016 A 
ATOM     16  C   UNL     1      -1.636   6.179   2.980  0.00  0.00    +0.008 A 
ATOM     17  C   UNL     1      -1.325   7.280   3.716  0.00  0.00    +0.046 A 
ATOM     18  S   UNL     1       0.336   6.913   4.255  0.00  0.00    -0.097 S 
ENDBRANCH   6  14
BRANCH   1  20
ATOM     19  C   UNL     1      -2.246   1.562   5.446  0.00  0.00    +0.011 C 
ATOM     20  C   UNL     1      -0.953   1.121   6.135  0.00  0.00    -0.035 C 
ATOM     21  C   UNL     1      -1.029  -0.373   6.455  0.00  0.00    +0.011 C 
ATOM     22  C   UNL     1      -0.771   1.912   7.433  0.00  0.00    +0.011 C 
ENDBRANCH   1  20
BRANCH   8  23
ATOM     23  N   UNL     1       2.188   6.898   1.885  0.00  0.00    -0.356 N 
ATOM     24  H   UNL     1       1.248   6.687   2.001  0.00  0.00    +0.142 HD
ATOM     25  H   UNL     1       2.458   7.806   1.673  0.00  0.00    +0.142 HD
ENDBRANCH   8  23
BRANCH   9  26
ATOM     26  C   UNL     1       4.871   7.096   0.636  0.00  0.00    +0.177 C 
ATOM     27  O   UNL     1       4.164   8.059   0.410  0.00  0.00    -0.291 OA
BRANCH  26  28
ATOM     28  C   UNL     1       6.268   7.039   0.074  0.00  0.00    +0.026 C 
ATOM     29  C   UNL     1       6.544   8.307  -0.737  0.00  0.00    +0.019 C 
ATOM     30  C   UNL     1       7.275   6.937   1.221  0.00  0.00    +0.019 C 
ATOM     31  C   UNL     1       6.403   5.814  -0.834  0.00  0.00    +0.019 C 
ENDBRANCH  26  28
ENDBRANCH   9  26
TORSDOF 5
