REMARK  Name = ZINC64368091
REMARK  7 active torsions:
REMARK  status: ('A' for Active; 'I' for Inactive)
REMARK    1  A    between atoms: C_1  and  C_2
REMARK    2  A    between atoms: C_2  and  C_3
REMARK    3  A    between atoms: C_3  and  C_4
REMARK    4  A    between atoms: C_3  and  S_10
REMARK    5  A    between atoms: S_10  and  C_11
REMARK    6  A    between atoms: C_14  and  C_19
REMARK    7  A    between atoms: N_15  and  C_16
REMARK                            x       y       z     vdW  Elec       q    Type
REMARK                         _______ _______ _______ _____ _____    ______ ____
ROOT
ATOM      1  C   UNL     1      -2.009   1.824  -1.312  0.00  0.00    +0.192 A 
ATOM      2  N   UNL     1      -1.468   2.510  -0.332  0.00  0.00    -0.122 NA
ATOM      3  N   UNL     1      -1.588   3.768  -0.562  0.00  0.00    -0.133 NA
ATOM      4  C   UNL     1      -2.207   3.960  -1.692  0.00  0.00    +0.137 A 
ATOM      5  N   UNL     1      -2.492   2.728  -2.214  0.00  0.00    -0.303 N 
ENDROOT
BRANCH   5   6
ATOM      6  C   UNL     1      -3.177   2.439  -3.476  0.00  0.00    +0.091 C 
ATOM      7  C   UNL     1      -3.740   1.030  -3.667  0.00  0.00    +0.027 C 
ATOM      8  C   UNL     1      -2.496   1.468  -4.443  0.00  0.00    +0.027 C 
ENDBRANCH   5   6
BRANCH   4   9
ATOM      9  C   UNL     1      -2.540   5.292  -2.313  0.00  0.00    +0.057 C 
ATOM     10  C   UNL     1      -1.945   6.543  -1.664  0.00  0.00    +0.012 C 
ATOM     11  C   UNL     1      -3.437   6.239  -1.514  0.00  0.00    +0.012 C 
ENDBRANCH   4   9
BRANCH   1  12
ATOM     12  S   UNL     1      -2.090   0.069  -1.442  0.00  0.00    -0.078 S 
BRANCH  12  13
ATOM     13  C   UNL     1      -1.147  -0.522  -0.010  0.00  0.00    +0.084 C 
BRANCH  13  14
ATOM     14  C   UNL     1      -1.906  -0.211   1.254  0.00  0.00    -0.034 A 
ATOM     15  C   UNL     1      -3.168  -0.740   1.450  0.00  0.00    +0.005 A 
ATOM     16  C   UNL     1      -3.865  -0.454   2.610  0.00  0.00    +0.000 A 
ATOM     17  C   UNL     1      -3.299   0.359   3.574  0.00  0.00    +0.000 A 
ATOM     18  C   UNL     1      -2.036   0.887   3.378  0.00  0.00    +0.000 A 
ATOM     19  C   UNL     1      -1.338   0.599   2.220  0.00  0.00    +0.005 A 
ENDBRANCH  13  14
BRANCH  13  21
ATOM     20  C   UNL     1      -0.059  -2.340  -1.335  0.00  0.00    +0.005 C 
ATOM     21  C   UNL     1      -0.941  -2.034  -0.122  0.00  0.00    +0.016 C 
ENDBRANCH  13  21
ENDBRANCH  12  13
ENDBRANCH   1  12
TORSDOF 6
