REMARK  Name = ZINC13501720
REMARK  10 active torsions:
REMARK  status: ('A' for Active; 'I' for Inactive)
REMARK    1  A    between atoms: C_1  and  C_2
REMARK    2  A    between atoms: C_5  and  C_8
REMARK    3  A    between atoms: C_8  and  C_10
REMARK    4  A    between atoms: C_8  and  N_19
REMARK    5  A    between atoms: N_12  and  C_13
REMARK    6  A    between atoms: N_19  and  C_20
REMARK    7  A    between atoms: C_20  and  C_21
REMARK    8  A    between atoms: C_27  and  C_29
REMARK    9  A    between atoms: C_29  and  C_30
REMARK   10  A    between atoms: C_30  and  C_31
REMARK                            x       y       z     vdW  Elec       q    Type
REMARK                         _______ _______ _______ _____ _____    ______ ____
ROOT
ATOM      1  N   UNL     1      -0.187  -3.265  -2.016  0.00  0.00    -0.283 N 
ATOM      2  C   UNL     1      -1.282  -2.788  -1.390  0.00  0.00    +0.217 C 
ATOM      3  O   UNL     1      -1.325  -2.765  -0.178  0.00  0.00    -0.276 OA
ENDROOT
BRANCH   1   4
ATOM      4  C   UNL     1       0.949  -3.756  -1.233  0.00  0.00    +0.192 C 
BRANCH   4   9
ATOM      5  C   UNL     1       3.152   0.580   1.888  0.00  0.00    +0.044 C 
ATOM      6  C   UNL     1       2.578  -0.551   1.074  0.00  0.00    -0.050 A 
ATOM      7  C   UNL     1       2.630  -1.845   1.556  0.00  0.00    +0.004 A 
ATOM      8  C   UNL     1       2.103  -2.882   0.810  0.00  0.00    +0.006 A 
ATOM      9  C   UNL     1       1.524  -2.625  -0.419  0.00  0.00    -0.018 A 
ATOM     10  C   UNL     1       1.476  -1.331  -0.903  0.00  0.00    +0.006 A 
ATOM     11  C   UNL     1       1.999  -0.293  -0.154  0.00  0.00    +0.004 A 
ENDBRANCH   4   9
BRANCH   4  12
ATOM     12  C   UNL     1       2.006  -4.292  -2.163  0.00  0.00    +0.238 C 
ATOM     13  O   UNL     1       2.382  -3.625  -3.103  0.00  0.00    -0.273 OA
ATOM     14  N   UNL     1       2.534  -5.514  -1.950  0.00  0.00    -0.311 N 
ATOM     15  H   UNL     1       2.233  -6.048  -1.199  0.00  0.00    +0.149 HD
BRANCH  14  16
ATOM     16  C   UNL     1       3.562  -6.036  -2.855  0.00  0.00    +0.073 C 
ATOM     17  C   UNL     1       2.892  -6.696  -4.061  0.00  0.00    +0.022 C 
ATOM     18  C   UNL     1       3.965  -7.241  -5.006  0.00  0.00    +0.002 C 
ATOM     19  C   UNL     1       4.817  -8.275  -4.267  0.00  0.00    +0.000 C 
ATOM     20  C   UNL     1       5.487  -7.614  -3.061  0.00  0.00    +0.002 C 
ATOM     21  C   UNL     1       4.414  -7.069  -2.116  0.00  0.00    +0.022 C 
ENDBRANCH  14  16
ENDBRANCH   4  12
ENDBRANCH   1   4
BRANCH   1  22
ATOM     22  C   UNL     1      -0.135  -3.293  -3.480  0.00  0.00    +0.140 C 
BRANCH  22  23
ATOM     23  C   UNL     1       0.388  -1.952  -3.997  0.00  0.00    +0.136 C 
ATOM     24  C   UNL     1       0.449  -1.971  -5.540  0.00  0.00    +0.035 C 
ATOM     25  C   UNL     1      -0.022  -0.537  -5.906  0.00  0.00    +0.031 C 
ATOM     26  C   UNL     1      -1.054  -0.271  -4.781  0.00  0.00    +0.160 C 
ATOM     27  O   UNL     1      -0.506  -0.901  -3.612  0.00  0.00    -0.375 OA
ENDBRANCH  22  23
ENDBRANCH   1  22
BRANCH   2  28
ATOM     28  C   UNL     1      -2.451  -2.284  -2.196  0.00  0.00    +0.105 C 
BRANCH  28  29
ATOM     29  C   UNL     1      -3.553  -1.803  -1.250  0.00  0.00    +0.105 C 
BRANCH  29  30
ATOM     30  C   UNL     1      -4.722  -1.298  -2.055  0.00  0.00    +0.219 C 
ATOM     31  O   UNL     1      -4.678  -1.321  -3.267  0.00  0.00    -0.275 OA
ATOM     32  N   UNL     1      -5.816  -0.821  -1.430  0.00  0.00    -0.265 N 
ATOM     33  C   UNL     1      -6.894  -0.356  -2.173  0.00  0.00    +0.164 A 
ATOM     34  N   UNL     1      -7.033  -0.294  -3.483  0.00  0.00    -0.233 NA
ATOM     35  C   UNL     1      -8.136   0.176  -4.032  0.00  0.00    +0.120 A 
ATOM     36  C   UNL     1      -9.129   0.610  -3.218  0.00  0.00    +0.068 A 
ATOM     37  S   UNL     1      -8.402   0.300  -1.615  0.00  0.00    -0.061 S 
ATOM     38  H   UNL     1      -5.851  -0.803  -0.460  0.00  0.00    +0.157 HD
ENDBRANCH  29  30
ENDBRANCH  28  29
ENDBRANCH   2  28
TORSDOF 9
