REMARK  Name = ZINC38931461
REMARK  10 active torsions:
REMARK  status: ('A' for Active; 'I' for Inactive)
REMARK    1  A    between atoms: C_1  and  C_2
REMARK    2  A    between atoms: C_2  and  O_3
REMARK    3  A    between atoms: O_3  and  C_4
REMARK    4  A    between atoms: C_4  and  C_6
REMARK    5  A    between atoms: C_6  and  N_7
REMARK    6  A    between atoms: C_11  and  C_34
REMARK    7  A    between atoms: N_16  and  C_17
REMARK    8  A    between atoms: C_17  and  C_19
REMARK    9  A    between atoms: C_22  and  N_28
REMARK   10  A    between atoms: C_23  and  N_25
REMARK                            x       y       z     vdW  Elec       q    Type
REMARK                         _______ _______ _______ _____ _____    ______ ____
ROOT
ATOM      1  N   UNL     1      -2.784  -3.888   0.008  0.00  0.00    -0.310 N 
ATOM      2  C   UNL     1      -2.745  -4.574  -1.192  0.00  0.00    +0.058 A 
ATOM      3  C   UNL     1      -2.785  -4.071  -2.500  0.00  0.00    +0.027 A 
ATOM      4  C   UNL     1      -2.735  -4.922  -3.579  0.00  0.00    +0.005 A 
ATOM      5  C   UNL     1      -2.644  -6.293  -3.408  0.00  0.00    -0.049 A 
ATOM      6  C   UNL     1      -2.602  -6.815  -2.126  0.00  0.00    +0.020 A 
ATOM      7  C   UNL     1      -2.652  -5.965  -1.047  0.00  0.00    +0.039 A 
ATOM      8  S   UNL     1      -2.629  -6.186   0.713  0.00  0.00    -0.052 S 
ATOM      9  C   UNL     1      -2.728  -4.575   1.179  0.00  0.00    +0.167 A 
ATOM     10  N   UNL     1      -2.748  -4.083   2.413  0.00  0.00    -0.152 NA
ATOM     11  C   UNL     1      -2.591  -7.208  -4.604  0.00  0.00    +0.044 C 
ENDROOT
BRANCH  10  12
ATOM     12  C   UNL     1      -2.683  -4.910   3.463  0.00  0.00    +0.270 C 
ATOM     13  O   UNL     1      -2.606  -6.113   3.287  0.00  0.00    -0.268 OA
BRANCH  12  14
ATOM     14  C   UNL     1      -2.705  -4.362   4.836  0.00  0.00    +0.041 A 
ATOM     15  C   UNL     1      -2.800  -2.984   5.039  0.00  0.00    +0.015 A 
ATOM     16  C   UNL     1      -2.820  -2.477   6.319  0.00  0.00    +0.026 A 
ATOM     17  C   UNL     1      -2.747  -3.337   7.410  0.00  0.00    +0.060 A 
ATOM     18  C   UNL     1      -2.652  -4.712   7.212  0.00  0.00    +0.148 A 
ATOM     19  C   UNL     1      -2.638  -5.224   5.934  0.00  0.00    +0.047 A 
BRANCH  17  20
ATOM     20  N   UNL     1      -2.768  -2.823   8.703  0.00  0.00    -0.328 N 
ATOM     21  C   UNL     1      -1.518  -2.452   9.381  0.00  0.00    +0.105 C 
ATOM     22  C   UNL     1      -1.634  -1.005   9.871  0.00  0.00    +0.019 C 
ATOM     23  C   UNL     1      -2.886  -0.862  10.739  0.00  0.00    +0.003 C 
ATOM     24  C   UNL     1      -4.127  -1.190   9.905  0.00  0.00    +0.019 C 
ATOM     25  C   UNL     1      -4.040  -2.634   9.413  0.00  0.00    +0.105 C 
ENDBRANCH  17  20
BRANCH  18  26
ATOM     26  N   UNL     1      -2.574  -5.623   8.375  0.00  0.00    +0.058 N 
ATOM     27  O   UNL     1      -2.492  -6.817   8.203  0.00  0.00    -0.126 OA
ATOM     28  O   UNL     1      -2.592  -5.174   9.497  0.00  0.00    -0.126 OA
ENDBRANCH  18  26
ENDBRANCH  12  14
ENDBRANCH  10  12
BRANCH   1  29
ATOM     29  C   UNL     1      -2.881  -2.427   0.017  0.00  0.00    +0.244 C 
BRANCH  29  30
ATOM     30  C   UNL     1      -1.496  -1.832   0.006  0.00  0.00    +0.327 C 
ATOM     31  O   UNL     1      -0.528  -2.555  -0.007  0.00  0.00    -0.249 OA
BRANCH  30  32
ATOM     32  O   UNL     1      -1.339  -0.499   0.012  0.00  0.00    -0.464 OA
BRANCH  32  34
ATOM     33  C   UNL     1      -0.019   1.526   0.010  0.00  0.00    +0.048 C 
ATOM     34  C   UNL     1       0.002  -0.004   0.002  0.00  0.00    +0.229 C 
ENDBRANCH  32  34
ENDBRANCH  30  32
ENDBRANCH  29  30
ENDBRANCH   1  29
TORSDOF 8
