REMARK  Name = ZINC16118790
REMARK  6 active torsions:
REMARK  status: ('A' for Active; 'I' for Inactive)
REMARK    1  A    between atoms: C_6  and  C_7
REMARK    2  A    between atoms: C_7  and  O_9
REMARK    3  A    between atoms: O_9  and  C_10
REMARK    4  A    between atoms: C_10  and  C_11
REMARK    5  A    between atoms: C_20  and  S_22
REMARK    6  A    between atoms: S_22  and  N_25
REMARK                            x       y       z     vdW  Elec       q    Type
REMARK                         _______ _______ _______ _____ _____    ______ ____
ROOT
ATOM      1  C   UNL     1       2.773   5.000   0.003  0.00  0.00    +0.258 C 
ATOM      2  O   UNL     1       1.888   5.829   0.016  0.00  0.00    -0.272 OA
ATOM      3  N   UNL     1       2.467   3.688  -0.001  0.00  0.00    -0.268 N 
ATOM      4  C   UNL     1       3.446   2.597  -0.016  0.00  0.00    +0.118 C 
ATOM      5  C   UNL     1       2.611   1.306  -0.015  0.00  0.00    +0.056 C 
ATOM      6  C   UNL     1       1.175   1.781   0.000  0.00  0.00    -0.023 A 
ATOM      7  C   UNL     1       1.169   3.167   0.008  0.00  0.00    +0.040 A 
ATOM      8  C   UNL     1      -0.053   3.840   0.023  0.00  0.00    +0.026 A 
ATOM      9  C   UNL     1      -1.236   3.132   0.031  0.00  0.00    +0.030 A 
ATOM     10  C   UNL     1      -1.220   1.749   0.017  0.00  0.00    +0.105 A 
ATOM     11  C   UNL     1      -0.013   1.076   0.008  0.00  0.00    +0.034 A 
ENDROOT
BRANCH  10  12
ATOM     12  S   UNL     1      -2.734   0.848   0.019  0.00  0.00    +0.056 S 
ATOM     13  O   UNL     1      -3.723   1.713  -0.522  0.00  0.00    -0.153 OA
ATOM     14  O   UNL     1      -2.449  -0.427  -0.540  0.00  0.00    -0.153 OA
BRANCH  12  15
ATOM     15  N   UNL     1      -3.148   0.588   1.601  0.00  0.00    -0.204 NA
ATOM     16  H   UNL     1      -2.578   0.921   2.312  0.00  0.00    +0.144 HD
ATOM     17  H   UNL     1      -3.959   0.103   1.817  0.00  0.00    +0.144 HD
ENDBRANCH  12  15
ENDBRANCH  10  12
BRANCH   1  18
ATOM     18  C   UNL     1       4.216   5.437  -0.008  0.00  0.00    +0.328 C 
BRANCH  18  19
ATOM     19  O   UNL     1       4.282   6.888   0.000  0.00  0.00    -0.452 OA
BRANCH  19  20
ATOM     20  C   UNL     1       5.508   7.444  -0.008  0.00  0.00    +0.340 C 
ATOM     21  O   UNL     1       6.496   6.737  -0.021  0.00  0.00    -0.245 OA
BRANCH  20  27
ATOM     22  C   UNL     1       4.519   9.729   0.008  0.00  0.00    +0.016 A 
ATOM     23  C   UNL     1       4.660  11.101   0.020  0.00  0.00    +0.022 A 
ATOM     24  C   UNL     1       5.921  11.671   0.011  0.00  0.00    +0.059 A 
ATOM     25  C   UNL     1       7.051  10.868  -0.004  0.00  0.00    +0.060 A 
ATOM     26  C   UNL     1       6.923   9.494  -0.010  0.00  0.00    +0.036 A 
ATOM     27  C   UNL     1       5.653   8.914  -0.001  0.00  0.00    +0.060 A 
ATOM     28 CL   UNL     1       8.629  11.591  -0.014  0.00  0.00    -0.082 Cl
ATOM     29 CL   UNL     1       6.090  13.399   0.019  0.00  0.00    -0.082 Cl
ENDBRANCH  20  27
ENDBRANCH  19  20
ENDBRANCH  18  19
ENDBRANCH   1  18
TORSDOF 6
