REMARK  Name = ZINC67388613
REMARK  9 active torsions:
REMARK  status: ('A' for Active; 'I' for Inactive)
REMARK    1  A    between atoms: C_1  and  C_2
REMARK    2  A    between atoms: C_6  and  C_7
REMARK    3  A    between atoms: N_9  and  N_10
REMARK    4  A    between atoms: N_13  and  C_14
REMARK    5  A    between atoms: C_14  and  C_15
REMARK    6  A    between atoms: C_15  and  C_17
REMARK    7  A    between atoms: C_15  and  N_20
REMARK    8  A    between atoms: C_17  and  C_18
REMARK    9  A    between atoms: C_17  and  C_19
REMARK                            x       y       z     vdW  Elec       q    Type
REMARK                         _______ _______ _______ _____ _____    ______ ____
ROOT
ATOM      1  N   UNL     1       0.168  -0.637   5.264  0.00  0.00    -0.218 N 
ATOM      2  C   UNL     1      -0.034  -1.605   6.180  0.00  0.00    +0.316 C 
ATOM      3  O   UNL     1      -0.397  -1.313   7.303  0.00  0.00    -0.251 OA
ATOM      4  N   UNL     1       0.166  -2.897   5.850  0.00  0.00    -0.300 N 
ATOM      5  H   UNL     1       0.025   0.292   5.501  0.00  0.00    +0.174 HD
ATOM      6  H   UNL     1       0.456  -3.129   4.954  0.00  0.00    +0.150 HD
ENDROOT
BRANCH   1   9
ATOM      7  C   UNL     1       0.789  -0.005   3.054  0.00  0.00    +0.267 C 
ATOM      8  O   UNL     1       0.608   1.161   3.352  0.00  0.00    -0.268 OA
ATOM      9  N   UNL     1       0.587  -0.973   3.970  0.00  0.00    -0.229 N 
ATOM     10  H   UNL     1       0.731  -1.903   3.733  0.00  0.00    +0.173 HD
BRANCH   7  16
ATOM     11  C   UNL     1       1.345   1.973   0.713  0.00  0.00    +0.045 C 
ATOM     12  C   UNL     1       1.488   0.475   0.623  0.00  0.00    -0.031 A 
ATOM     13  C   UNL     1       1.893  -0.152  -0.531  0.00  0.00    +0.011 A 
ATOM     14  C   UNL     1       2.001  -1.503  -0.544  0.00  0.00    +0.046 A 
ATOM     15  S   UNL     1       1.558  -1.966   1.009  0.00  0.00    -0.092 S 
ATOM     16  C   UNL     1       1.226  -0.357   1.700  0.00  0.00    +0.078 A 
ENDBRANCH   7  16
ENDBRANCH   1   9
BRANCH   4  17
ATOM     17  C   UNL     1      -0.054  -3.949   6.846  0.00  0.00    +0.091 C 
BRANCH  17  18
ATOM     18  C   UNL     1       0.054  -5.319   6.172  0.00  0.00    -0.048 C 
BRANCH  18  19
ATOM     19  N   UNL     1      -1.030  -5.469   5.192  0.00  0.00    +0.383 N 
ATOM     20  C   UNL     1      -0.757  -4.583   4.045  0.00  0.00    -0.078 C 
ATOM     21  C   UNL     1      -1.464  -5.142   2.836  0.00  0.00    -0.019 C 
ATOM     22  C   UNL     1      -2.833  -4.468   2.622  0.00  0.00    -0.002 C 
ATOM     23  C   UNL     1      -3.577  -4.249   3.955  0.00  0.00    -0.002 C 
ATOM     24  C   UNL     1      -3.448  -5.428   4.885  0.00  0.00    -0.019 C 
ATOM     25  C   UNL     1      -2.245  -5.199   5.824  0.00  0.00    -0.078 C 
ATOM     26  H   UNL     1      -1.040  -6.424   4.866  0.00  0.00    -0.081 HD
ENDBRANCH  18  19
BRANCH  18  27
ATOM     27  C   UNL     1      -0.058  -6.418   7.231  0.00  0.00    -0.029 C 
ATOM     28  C   UNL     1       0.060  -7.787   6.558  0.00  0.00    +0.005 C 
ATOM     29  C   UNL     1       1.065  -6.255   8.257  0.00  0.00    +0.005 C 
ENDBRANCH  18  27
ENDBRANCH  17  18
ENDBRANCH   4  17
TORSDOF 6
