REMARK  Name = ZINC04682531
REMARK  8 active torsions:
REMARK  status: ('A' for Active; 'I' for Inactive)
REMARK    1  A    between atoms: C_1  and  C_2
REMARK    2  A    between atoms: C_5  and  N_9
REMARK    3  A    between atoms: C_6  and  C_8
REMARK    4  A    between atoms: N_9  and  C_10
REMARK    5  A    between atoms: C_10  and  N_12
REMARK    6  A    between atoms: N_12  and  C_13
REMARK    7  A    between atoms: C_13  and  C_14
REMARK    8  A    between atoms: C_14  and  C_15
REMARK                            x       y       z     vdW  Elec       q    Type
REMARK                         _______ _______ _______ _____ _____    ______ ____
ROOT
ATOM      1  C   UNL     1      -0.041  -4.838  -1.187  0.00  0.00    +0.135 C 
ATOM      2  S   UNL     1      -0.059  -3.979  -2.668  0.00  0.00    -0.019 S 
ENDROOT
BRANCH   1   3
ATOM      3  N   UNL     1       0.058  -4.169  -0.021  0.00  0.00    -0.297 N 
ATOM      4  H   UNL     1       0.132  -4.658   0.814  0.00  0.00    +0.154 HD
BRANCH   3   9
ATOM      5  C   UNL     1       0.041   1.503   0.004  0.00  0.00    +0.044 C 
ATOM      6  C   UNL     1       0.045  -0.004  -0.003  0.00  0.00    -0.050 A 
ATOM      7  C   UNL     1       0.857  -0.687  -0.890  0.00  0.00    +0.005 A 
ATOM      8  C   UNL     1       0.863  -2.068  -0.898  0.00  0.00    +0.024 A 
ATOM      9  C   UNL     1       0.054  -2.771  -0.015  0.00  0.00    +0.036 A 
ATOM     10  C   UNL     1      -0.759  -2.081   0.875  0.00  0.00    -0.029 A 
ATOM     11  C   UNL     1      -0.757  -0.700   0.883  0.00  0.00    +0.008 A 
ATOM     12  C   UNL     1      -1.639  -2.839   1.836  0.00  0.00    +0.045 C 
ENDBRANCH   3   9
ENDBRANCH   1   3
BRANCH   1  13
ATOM     13  N   UNL     1      -0.124  -6.183  -1.187  0.00  0.00    -0.326 N 
ATOM     14  H   UNL     1      -0.114  -6.670  -0.348  0.00  0.00    +0.148 HD
BRANCH  13  15
ATOM     15  C   UNL     1      -0.231  -6.910  -2.454  0.00  0.00    +0.108 C 
BRANCH  15  16
ATOM     16  C   UNL     1      -0.311  -8.413  -2.175  0.00  0.00    +0.054 C 
BRANCH  16  17
ATOM     17  C   UNL     1      -0.421  -9.161  -3.479  0.00  0.00    -0.046 A 
ATOM     18  C   UNL     1      -1.665  -9.424  -4.021  0.00  0.00    +0.005 A 
ATOM     19  C   UNL     1      -1.767 -10.110  -5.217  0.00  0.00    +0.020 A 
ATOM     20  C   UNL     1      -0.624 -10.533  -5.871  0.00  0.00    +0.041 A 
ATOM     21  C   UNL     1       0.621 -10.269  -5.328  0.00  0.00    +0.020 A 
ATOM     22  C   UNL     1       0.722  -9.578  -4.135  0.00  0.00    +0.005 A 
ATOM     23 CL   UNL     1      -0.751 -11.395  -7.373  0.00  0.00    -0.084 Cl
ENDBRANCH  16  17
ENDBRANCH  15  16
ENDBRANCH  13  15
ENDBRANCH   1  13
TORSDOF 6
