REMARK  Name = ZINC16025803
REMARK  13 active torsions:
REMARK  status: ('A' for Active; 'I' for Inactive)
REMARK    1  A    between atoms: C_1  and  C_2
REMARK    2  A    between atoms: C_2  and  C_3
REMARK    3  A    between atoms: C_2  and  C_4
REMARK    4  A    between atoms: C_4  and  C_5
REMARK    5  A    between atoms: C_5  and  C_7
REMARK    6  A    between atoms: C_5  and  N_19
REMARK    7  A    between atoms: N_9  and  C_10
REMARK    8  A    between atoms: C_10  and  C_11
REMARK    9  A    between atoms: C_15  and  O_17
REMARK   10  A    between atoms: O_17  and  C_18
REMARK   11  A    between atoms: C_20  and  C_22
REMARK   12  A    between atoms: C_24  and  C_37
REMARK   13  A    between atoms: C_24  and  C_38
REMARK                            x       y       z     vdW  Elec       q    Type
REMARK                         _______ _______ _______ _____ _____    ______ ____
ROOT
ATOM      1  N   UNL     1       1.003   8.673  -0.548  0.00  0.00    -0.302 N 
ATOM      2  C   UNL     1       2.034   8.890   0.292  0.00  0.00    +0.236 C 
ATOM      3  O   UNL     1       2.724   7.962   0.658  0.00  0.00    -0.274 OA
ATOM      4  H   UNL     1       0.478   9.420  -0.875  0.00  0.00    +0.150 HD
ENDROOT
BRANCH   2   5
ATOM      5  C   UNL     1       2.329  10.286   0.778  0.00  0.00    +0.179 C 
ATOM      6  C   UNL     1       1.350  10.629   1.926  0.00  0.00    +0.040 C 
ATOM      7  S   UNL     1       2.504  11.218   3.237  0.00  0.00    -0.125 S 
ATOM      8  C   UNL     1       3.968  11.467   2.146  0.00  0.00    +0.167 C 
ATOM      9  N   UNL     1       3.736  10.357   1.175  0.00  0.00    -0.269 N 
ATOM     10  C   UNL     1       4.932   9.755   1.004  0.00  0.00    +0.249 C 
ATOM     11  O   UNL     1       5.229   9.048   0.060  0.00  0.00    -0.270 OA
ATOM     12  C   UNL     1       5.824  10.081   2.133  0.00  0.00    +0.043 A 
ATOM     13  C   UNL     1       5.231  11.109   2.873  0.00  0.00    -0.005 A 
ATOM     14  C   UNL     1       5.846  11.589   4.006  0.00  0.00    +0.007 A 
ATOM     15  C   UNL     1       7.064  11.067   4.408  0.00  0.00    +0.000 A 
ATOM     16  C   UNL     1       7.668  10.063   3.672  0.00  0.00    +0.001 A 
ATOM     17  C   UNL     1       7.056   9.567   2.538  0.00  0.00    +0.013 A 
ATOM     18  C   UNL     1       0.384  11.740   1.510  0.00  0.00    +0.025 C 
ATOM     19  C   UNL     1       0.587   9.385   2.386  0.00  0.00    +0.025 C 
ENDBRANCH   2   5
BRANCH   1  20
ATOM     20  C   UNL     1       0.676   7.308  -0.969  0.00  0.00    +0.159 C 
BRANCH  20  21
ATOM     21  C   UNL     1       0.440   6.451   0.248  0.00  0.00    +0.234 C 
ATOM     22  O   UNL     1       0.536   6.932   1.357  0.00  0.00    -0.274 OA
ATOM     23  N   UNL     1       0.123   5.149   0.104  0.00  0.00    -0.310 N 
ATOM     24  H   UNL     1       0.046   4.764  -0.783  0.00  0.00    +0.149 HD
BRANCH  23  25
ATOM     25  C   UNL     1      -0.106   4.315   1.286  0.00  0.00    +0.139 C 
BRANCH  25  26
ATOM     26  C   UNL     1      -0.443   2.911   0.854  0.00  0.00    -0.027 A 
ATOM     27  C   UNL     1       0.566   1.982   0.679  0.00  0.00    +0.005 A 
ATOM     28  C   UNL     1       0.260   0.693   0.283  0.00  0.00    +0.004 A 
ATOM     29  C   UNL     1      -1.054   0.331   0.060  0.00  0.00    +0.045 A 
ATOM     30  C   UNL     1      -2.067   1.263   0.229  0.00  0.00    +0.120 A 
ATOM     31  C   UNL     1      -1.759   2.554   0.632  0.00  0.00    +0.050 A 
BRANCH  30  32
ATOM     32  O   UNL     1      -3.361   0.910   0.006  0.00  0.00    -0.495 OA
ATOM     33  C   UNL     1      -3.605  -0.437  -0.402  0.00  0.00    +0.277 C 
ENDBRANCH  30  32
ENDBRANCH  25  26
ENDBRANCH  23  25
ENDBRANCH  20  21
BRANCH  20  34
ATOM     34  C   UNL     1       1.837   6.732  -1.781  0.00  0.00    +0.034 C 
BRANCH  34  36
ATOM     35  C   UNL     1       2.347   8.947  -2.820  0.00  0.00    +0.007 C 
ATOM     36  C   UNL     1       1.962   7.494  -3.103  0.00  0.00    -0.015 C 
ATOM     37  C   UNL     1       3.041   6.839  -3.968  0.00  0.00    +0.007 C 
ENDBRANCH  34  36
ENDBRANCH  20  34
ENDBRANCH   1  20
TORSDOF 8
