REMARK  Name = ZINC39666258
REMARK  12 active torsions:
REMARK  status: ('A' for Active; 'I' for Inactive)
REMARK    1  A    between atoms: C_1  and  C_2
REMARK    2  A    between atoms: C_5  and  O_8
REMARK    3  A    between atoms: O_8  and  C_9
REMARK    4  A    between atoms: C_9  and  C_11
REMARK    5  A    between atoms: C_9  and  C_12
REMARK    6  A    between atoms: C_12  and  N_13
REMARK    7  A    between atoms: C_14  and  C_16
REMARK    8  A    between atoms: C_27  and  C_29
REMARK    9  A    between atoms: C_29  and  C_30
REMARK   10  A    between atoms: C_30  and  C_31
REMARK   11  A    between atoms: C_34  and  O_37
REMARK   12  A    between atoms: O_37  and  C_38
REMARK                            x       y       z     vdW  Elec       q    Type
REMARK                         _______ _______ _______ _____ _____    ______ ____
ROOT
ATOM      1  C   UNL     1      -4.028  -6.702   0.465  0.00  0.00    +0.100 C 
ATOM      2  C   UNL     1      -4.659  -5.803   1.552  0.00  0.00    +0.121 C 
ATOM      3  N   UNL     1      -6.045  -6.307   1.696  0.00  0.00    -0.300 N 
ATOM      4  C   UNL     1      -5.914  -7.780   1.595  0.00  0.00    +0.115 C 
ATOM      5  C   UNL     1      -4.854  -7.999   0.497  0.00  0.00    -0.004 C 
ATOM      6  C   UNL     1      -5.530  -8.228  -0.852  0.00  0.00    -0.010 C 
ATOM      7  C   UNL     1      -6.299  -9.551  -0.813  0.00  0.00    -0.082 C 
ATOM      8  N   UNL     1      -5.372 -10.650  -0.516  0.00  0.00    +0.379 N 
ATOM      9  C   UNL     1      -4.795 -10.470   0.822  0.00  0.00    -0.082 C 
ATOM     10  C   UNL     1      -3.963  -9.185   0.853  0.00  0.00    -0.010 C 
ATOM     11  C   UNL     1      -7.170  -5.588   1.879  0.00  0.00    +0.216 C 
ATOM     12  O   UNL     1      -8.239  -6.152   1.981  0.00  0.00    -0.276 OA
ATOM     13  H   UNL     1      -5.869 -11.527  -0.551  0.00  0.00    -0.086 HD
ATOM     14  H   UNL     1      -4.631 -10.658  -1.201  0.00  0.00    -0.086 HD
ENDROOT
BRANCH   1  16
ATOM     15  N   UNL     1      -1.708  -7.251  -0.194  0.00  0.00    -0.312 N 
ATOM     16  C   UNL     1      -2.586  -6.990   0.794  0.00  0.00    +0.218 C 
ATOM     17  O   UNL     1      -2.216  -6.988   1.950  0.00  0.00    -0.275 OA
ATOM     18  H   UNL     1      -2.004  -7.253  -1.118  0.00  0.00    +0.149 HD
BRANCH  15  19
ATOM     19  C   UNL     1      -0.306  -7.531   0.126  0.00  0.00    +0.148 C 
BRANCH  19  20
ATOM     20  C   UNL     1       0.471  -7.791  -1.166  0.00  0.00    +0.187 C 
ATOM     21  C   UNL     1       1.935  -8.084  -0.832  0.00  0.00    +0.053 C 
BRANCH  20  22
ATOM     22  O   UNL     1      -0.096  -8.913  -1.845  0.00  0.00    -0.488 OA
BRANCH  22  27
ATOM     23  C   UNL     1       0.719  -9.215  -7.410  0.00  0.00    +0.044 C 
ATOM     24  C   UNL     1       0.501  -9.134  -5.921  0.00  0.00    -0.050 A 
ATOM     25  C   UNL     1       1.119  -8.139  -5.186  0.00  0.00    +0.007 A 
ATOM     26  C   UNL     1       0.920  -8.063  -3.821  0.00  0.00    +0.046 A 
ATOM     27  C   UNL     1       0.100  -8.986  -3.188  0.00  0.00    +0.121 A 
ATOM     28  C   UNL     1      -0.519  -9.983  -3.928  0.00  0.00    +0.046 A 
ATOM     29  C   UNL     1      -0.322 -10.051  -5.293  0.00  0.00    +0.007 A 
ENDBRANCH  22  27
ENDBRANCH  20  22
ENDBRANCH  19  20
ENDBRANCH  15  19
ENDBRANCH   1  16
BRANCH  11  30
ATOM     30  C   UNL     1      -7.100  -4.085   1.957  0.00  0.00    +0.100 C 
BRANCH  30  31
ATOM     31  C   UNL     1      -8.506  -3.519   2.166  0.00  0.00    +0.044 C 
BRANCH  31  32
ATOM     32  C   UNL     1      -8.436  -2.016   2.244  0.00  0.00    -0.047 A 
ATOM     33  C   UNL     1      -8.249  -1.396   3.466  0.00  0.00    +0.007 A 
ATOM     34  C   UNL     1      -8.184  -0.018   3.539  0.00  0.00    +0.046 A 
ATOM     35  C   UNL     1      -8.307   0.744   2.386  0.00  0.00    +0.120 A 
ATOM     36  C   UNL     1      -8.494   0.119   1.162  0.00  0.00    +0.046 A 
ATOM     37  C   UNL     1      -8.553  -1.259   1.093  0.00  0.00    +0.007 A 
BRANCH  35  38
ATOM     38  O   UNL     1      -8.245   2.100   2.457  0.00  0.00    -0.495 OA
ATOM     39  C   UNL     1      -8.379   2.820   1.230  0.00  0.00    +0.277 C 
ENDBRANCH  35  38
ENDBRANCH  31  32
ENDBRANCH  30  31
ENDBRANCH  11  30
TORSDOF 9
