REMARK  Name = ZINC09349042
REMARK  7 active torsions:
REMARK  status: ('A' for Active; 'I' for Inactive)
REMARK    1  A    between atoms: C_1  and  N_56
REMARK    2  A    between atoms: C_2  and  C_3
REMARK    3  A    between atoms: C_2  and  N_56
REMARK    4  A    between atoms: N_5  and  C_6
REMARK    5  A    between atoms: C_7  and  C_15
REMARK    6  A    between atoms: C_15  and  C_17
REMARK    7  A    between atoms: C_23  and  N_56
REMARK                            x       y       z     vdW  Elec       q    Type
REMARK                         _______ _______ _______ _____ _____    ______ ____
ROOT
ATOM      1  C   UNL     1      -0.599   0.521   7.204  0.00  0.00    +0.083 A 
ATOM      2  C   UNL     1      -0.868   0.834   8.532  0.00  0.00    +0.054 A 
ATOM      3  C   UNL     1      -0.200   0.046   9.555  0.00  0.00    -0.024 A 
ATOM      4  C   UNL     1       0.630  -0.913   9.091  0.00  0.00    -0.005 A 
ATOM      5  S   UNL     1       0.530  -0.787   7.328  0.00  0.00    -0.077 S 
ATOM      6  C   UNL     1       1.451  -1.866   9.904  0.00  0.00    +0.043 C 
ATOM      7  C   UNL     1       1.501  -1.351  11.350  0.00  0.00    +0.005 C 
ATOM      8  C   UNL     1       0.080  -0.989  11.793  0.00  0.00    +0.005 C 
ATOM      9  C   UNL     1      -0.394   0.261  11.051  0.00  0.00    +0.037 C 
ENDROOT
BRANCH   1  12
ATOM     10  C   UNL     1      -0.641   0.750   4.849  0.00  0.00    +0.201 C 
ATOM     11  O   UNL     1       0.221  -0.099   4.761  0.00  0.00    -0.278 OA
ATOM     12  N   UNL     1      -1.106   1.115   6.060  0.00  0.00    -0.281 N 
ATOM     13  H   UNL     1      -1.795   1.794   6.131  0.00  0.00    +0.155 HD
BRANCH  10  14
ATOM     14  C   UNL     1      -1.193   1.396   3.604  0.00  0.00    +0.019 C 
BRANCH  14  16
ATOM     15  C   UNL     1      -0.866  -0.590   2.258  0.00  0.00    -0.095 C 
ATOM     16  N   UNL     1      -0.499   0.832   2.427  0.00  0.00    +0.387 N 
ATOM     17  H   UNL     1       0.515   0.900   2.573  0.00  0.00    -0.081 HD
BRANCH  16  18
ATOM     18  C   UNL     1      -0.862   1.594   1.214  0.00  0.00    -0.046 C 
ATOM     19  C   UNL     1      -2.358   1.432   0.892  0.00  0.00    +0.009 C 
ATOM     20  C   UNL     1      -2.652   1.957  -0.534  0.00  0.00    +0.164 C 
ATOM     21  S   UNL     1      -1.049   1.697  -1.398  0.00  0.00    -0.033 S 
ATOM     22  O   UNL     1      -0.528   2.958  -1.796  0.00  0.00    -0.174 OA
ATOM     23  O   UNL     1      -1.207   0.669  -2.366  0.00  0.00    -0.174 OA
ATOM     24  C   UNL     1      -0.047   1.050   0.006  0.00  0.00    +0.151 C 
ENDBRANCH  16  18
ENDBRANCH  14  16
ENDBRANCH  10  14
ENDBRANCH   1  12
BRANCH   2  25
ATOM     25  C   UNL     1      -1.792   1.913   8.887  0.00  0.00    +0.196 C 
ATOM     26  O   UNL     1      -2.962   1.663   9.113  0.00  0.00    -0.287 OA
BRANCH  25  27
ATOM     27  C   UNL     1      -1.304   3.307   8.971  0.00  0.00    +0.022 A 
ATOM     28  C   UNL     1       0.011   3.612   8.616  0.00  0.00    +0.012 A 
ATOM     29  C   UNL     1       0.458   4.915   8.690  0.00  0.00    +0.001 A 
ATOM     30  C   UNL     1      -0.390   5.916   9.128  0.00  0.00    +0.000 A 
ATOM     31  C   UNL     1      -1.693   5.620   9.486  0.00  0.00    +0.001 A 
ATOM     32  C   UNL     1      -2.155   4.322   9.411  0.00  0.00    +0.012 A 
ENDBRANCH  25  27
ENDBRANCH   2  25
TORSDOF 6
