REMARK  Name = ZINC12434194
REMARK  12 active torsions:
REMARK  status: ('A' for Active; 'I' for Inactive)
REMARK    1  A    between atoms: C_1  and  C_2
REMARK    2  A    between atoms: C_2  and  S_3
REMARK    3  A    between atoms: S_3  and  C_6
REMARK    4  A    between atoms: C_9  and  C_19
REMARK    5  A    between atoms: N_10  and  C_11
REMARK    6  A    between atoms: C_11  and  C_12
REMARK    7  A    between atoms: C_12  and  C_13
REMARK    8  A    between atoms: C_19  and  N_55
REMARK    9  A    between atoms: C_20  and  N_55
REMARK   10  A    between atoms: C_21  and  C_23
REMARK   11  A    between atoms: C_21  and  C_24
REMARK   12  A    between atoms: C_21  and  N_55
REMARK                            x       y       z     vdW  Elec       q    Type
REMARK                         _______ _______ _______ _____ _____    ______ ____
ROOT
ATOM      1  C   UNL     1       5.870  -3.175  -1.789  0.00  0.00    +0.251 A 
ATOM      2  N   UNL     1       7.143  -3.380  -1.990  0.00  0.00    -0.220 NA
ATOM      3  C   UNL     1       7.793  -2.208  -1.940  0.00  0.00    +0.133 A 
ATOM      4  C   UNL     1       6.888  -1.239  -1.706  0.00  0.00    +0.023 A 
ATOM      5  N   UNL     1       5.669  -1.853  -1.604  0.00  0.00    -0.315 N 
ENDROOT
BRANCH   1   6
ATOM      6  S   UNL     1       4.621  -4.417  -1.766  0.00  0.00    +0.030 S 
ATOM      7  O   UNL     1       5.300  -5.607  -1.388  0.00  0.00    -0.166 OA
ATOM      8  O   UNL     1       3.591  -3.880  -0.947  0.00  0.00    -0.166 OA
BRANCH   6  10
ATOM      9  C   UNL     1       2.956  -5.602  -3.584  0.00  0.00    +0.028 C 
ATOM     10  C   UNL     1       4.054  -4.541  -3.484  0.00  0.00    +0.172 C 
ENDBRANCH   6  10
ENDBRANCH   1   6
BRANCH   5  11
ATOM     11  C   UNL     1       4.384  -1.196  -1.349  0.00  0.00    +0.129 C 
BRANCH  11  12
ATOM     12  C   UNL     1       4.133  -1.136   0.160  0.00  0.00    +0.057 C 
BRANCH  12  13
ATOM     13  C   UNL     1       2.811  -0.462   0.422  0.00  0.00    -0.046 A 
ATOM     14  C   UNL     1       1.653  -1.213   0.493  0.00  0.00    +0.004 A 
ATOM     15  C   UNL     1       0.441  -0.594   0.734  0.00  0.00    +0.000 A 
ATOM     16  C   UNL     1       0.387   0.777   0.904  0.00  0.00    +0.000 A 
ATOM     17  C   UNL     1       1.545   1.528   0.833  0.00  0.00    +0.000 A 
ATOM     18  C   UNL     1       2.757   0.909   0.592  0.00  0.00    +0.004 A 
ENDBRANCH  12  13
ENDBRANCH  11  12
ENDBRANCH   5  11
BRANCH   4  19
ATOM     19  C   UNL     1       7.164   0.237  -1.577  0.00  0.00    -0.022 C 
BRANCH  19  21
ATOM     20  C   UNL     1       5.530   0.834  -3.260  0.00  0.00    -0.095 C 
ATOM     21  N   UNL     1       6.961   0.877  -2.893  0.00  0.00    +0.386 N 
ATOM     22  H   UNL     1       7.503   0.365  -3.600  0.00  0.00    -0.081 HD
BRANCH  21  23
ATOM     23  C   UNL     1       7.430   2.278  -2.851  0.00  0.00    -0.034 C 
ATOM     24  C   UNL     1       7.249   2.904  -4.236  0.00  0.00    -0.008 C 
BRANCH  23  25
ATOM     25  C   UNL     1       8.890   2.295  -2.479  0.00  0.00    -0.024 A 
ATOM     26  C   UNL     1       9.534   3.085  -1.586  0.00  0.00    +0.009 A 
ATOM     27  C   UNL     1      10.895   2.922  -1.406  0.00  0.00    +0.008 A 
ATOM     28  C   UNL     1      11.545   1.976  -2.127  0.00  0.00    +0.045 A 
ATOM     29  S   UNL     1      10.219   1.275  -3.095  0.00  0.00    -0.103 S 
ENDBRANCH  23  25
ENDBRANCH  21  23
ENDBRANCH  19  21
ENDBRANCH   4  19
TORSDOF 9
