REMARK  Name = ZINC67287029
REMARK  9 active torsions:
REMARK  status: ('A' for Active; 'I' for Inactive)
REMARK    1  A    between atoms: C_1  and  C_2
REMARK    2  A    between atoms: C_2  and  O_3
REMARK    3  A    between atoms: O_3  and  C_4
REMARK    4  A    between atoms: C_4  and  C_6
REMARK    5  A    between atoms: C_7  and  C_22
REMARK    6  A    between atoms: C_12  and  C_14
REMARK    7  A    between atoms: C_17  and  S_20
REMARK    8  A    between atoms: S_20  and  C_21
REMARK    9  A    between atoms: C_22  and  N_23
REMARK                            x       y       z     vdW  Elec       q    Type
REMARK                         _______ _______ _______ _____ _____    ______ ____
ROOT
ATOM      1  C   UNL     1      -2.736  -2.420   0.043  0.00  0.00    +0.079 C 
ATOM      2  C   UNL     1      -2.951  -3.744  -0.120  0.00  0.00    +0.038 C 
ATOM      3  N   UNL     1      -4.218  -4.250  -0.178  0.00  0.00    -0.271 N 
ATOM      4  C   UNL     1      -5.323  -3.500  -0.081  0.00  0.00    +0.304 C 
ATOM      5  O   UNL     1      -6.409  -4.042  -0.144  0.00  0.00    -0.252 OA
ATOM      6  N   UNL     1      -5.270  -2.163   0.084  0.00  0.00    -0.288 N 
ATOM      7  C   UNL     1      -3.948  -1.519   0.165  0.00  0.00    +0.144 C 
ATOM      8  H   UNL     1      -4.323  -5.207  -0.295  0.00  0.00    +0.156 HD
ATOM      9  H   UNL     1      -6.083  -1.639   0.151  0.00  0.00    +0.151 HD
ENDROOT
BRANCH   7  10
ATOM     10  C   UNL     1      -3.872  -0.487  -0.931  0.00  0.00    -0.022 A 
ATOM     11  C   UNL     1      -4.269  -0.814  -2.215  0.00  0.00    +0.007 A 
ATOM     12  C   UNL     1      -4.200   0.129  -3.222  0.00  0.00    +0.015 A 
ATOM     13  C   UNL     1      -3.731   1.407  -2.944  0.00  0.00    +0.008 A 
ATOM     14  C   UNL     1      -3.334   1.732  -1.652  0.00  0.00    +0.015 A 
ATOM     15  C   UNL     1      -3.410   0.786  -0.649  0.00  0.00    +0.007 A 
BRANCH  13  16
ATOM     16  S   UNL     1      -3.641   2.613  -4.225  0.00  0.00    -0.129 S 
ATOM     17  C   UNL     1      -2.985   4.087  -3.396  0.00  0.00    +0.090 C 
ENDBRANCH  13  16
ENDBRANCH   7  10
BRANCH   1  18
ATOM     18  C   UNL     1      -1.425  -1.894   0.103  0.00  0.00    +0.339 C 
ATOM     19  O   UNL     1      -0.949  -1.568   1.175  0.00  0.00    -0.245 OA
BRANCH  18  20
ATOM     20  O   UNL     1      -0.701  -1.755  -1.027  0.00  0.00    -0.462 OA
BRANCH  20  22
ATOM     21  C   UNL     1       1.277  -1.134  -2.269  0.00  0.00    +0.048 C 
ATOM     22  C   UNL     1       0.616  -1.217  -0.892  0.00  0.00    +0.229 C 
ENDBRANCH  20  22
ENDBRANCH  18  20
ENDBRANCH   1  18
BRANCH   2  23
ATOM     23  C   UNL     1      -1.774  -4.676  -0.240  0.00  0.00    +0.136 C 
BRANCH  23  24
ATOM     24  N   UNL     1      -1.762  -5.601   0.902  0.00  0.00    -0.294 NA
ATOM     25  C   UNL     1      -1.520  -4.881   2.159  0.00  0.00    +0.103 C 
ATOM     26  C   UNL     1      -1.696  -5.845   3.338  0.00  0.00    +0.122 C 
ATOM     27  N   UNL     1      -0.834  -7.016   3.116  0.00  0.00    -0.314 N 
ATOM     28  C   UNL     1      -0.922  -7.709   1.821  0.00  0.00    +0.122 C 
ATOM     29  C   UNL     1      -0.777  -6.672   0.703  0.00  0.00    +0.103 C 
ATOM     30  C   UNL     1       0.040  -7.456   4.103  0.00  0.00    +0.099 A 
ATOM     31  C   UNL     1       0.004  -6.872   5.365  0.00  0.00    +0.042 A 
ATOM     32  C   UNL     1       0.879  -7.320   6.338  0.00  0.00    +0.005 A 
ATOM     33  C   UNL     1       1.765  -8.340   6.015  0.00  0.00    +0.018 A 
ATOM     34  C   UNL     1       1.746  -8.873   4.742  0.00  0.00    +0.084 A 
ATOM     35  N   UNL     1       0.895  -8.430   3.835  0.00  0.00    -0.350 N 
ATOM     36  H   UNL     1       0.900  -8.825   2.949  0.00  0.00    +0.166 HD
ENDBRANCH  23  24
ENDBRANCH   2  23
TORSDOF 7
