REMARK  Name = ZINC63784130
REMARK  9 active torsions:
REMARK  status: ('A' for Active; 'I' for Inactive)
REMARK    1  A    between atoms: C_1  and  C_2
REMARK    2  A    between atoms: C_6  and  C_8
REMARK    3  A    between atoms: C_8  and  N_10
REMARK    4  A    between atoms: C_11  and  N_12
REMARK    5  A    between atoms: N_12  and  C_13
REMARK    6  A    between atoms: C_13  and  C_14
REMARK    7  A    between atoms: C_14  and  C_15
REMARK    8  A    between atoms: C_28  and  C_33
REMARK    9  A    between atoms: C_30  and  C_32
REMARK                            x       y       z     vdW  Elec       q    Type
REMARK                         _______ _______ _______ _____ _____    ______ ____
ROOT
ATOM      1  N   UNL     1       0.147  -4.011   2.570  0.00  0.00    -0.141 NA
ATOM      2  C   UNL     1       0.100  -4.669   3.718  0.00  0.00    +0.218 C 
ATOM      3  N   UNL     1       0.233  -6.030   3.732  0.00  0.00    -0.295 N 
ATOM      4  C   UNL     1       0.534  -6.710   2.560  0.00  0.00    +0.231 A 
ATOM      5  N   UNL     1       0.801  -6.019   1.462  0.00  0.00    -0.217 NA
ATOM      6  C   UNL     1       1.091  -6.636   0.328  0.00  0.00    +0.044 A 
ATOM      7  C   UNL     1       1.113  -8.022   0.299  0.00  0.00    +0.046 A 
ATOM      8  C   UNL     1       0.829  -8.713   1.466  0.00  0.00    +0.044 A 
ATOM      9  N   UNL     1       0.552  -8.034   2.567  0.00  0.00    -0.217 NA
ATOM     10  C   UNL     1       0.842 -10.220   1.482  0.00  0.00    +0.066 C 
ATOM     11  C   UNL     1       1.393  -5.842  -0.916  0.00  0.00    +0.066 C 
ATOM     12  H   UNL     1       0.117  -6.520   4.561  0.00  0.00    +0.172 HD
ENDROOT
BRANCH   1  13
ATOM     13  C   UNL     1       0.144  -2.671   2.565  0.00  0.00    +0.270 C 
ATOM     14  O   UNL     1       0.198  -2.058   3.617  0.00  0.00    -0.268 OA
BRANCH  13  20
ATOM     15  C   UNL     1      -0.134   1.643   0.069  0.00  0.00    +0.044 C 
ATOM     16  C   UNL     1      -0.059   0.137   0.077  0.00  0.00    -0.050 A 
ATOM     17  C   UNL     1      -0.056  -0.560  -1.118  0.00  0.00    +0.003 A 
ATOM     18  C   UNL     1       0.012  -1.942  -1.119  0.00  0.00    +0.001 A 
ATOM     19  C   UNL     1       0.077  -2.633   0.074  0.00  0.00    +0.013 A 
ATOM     20  C   UNL     1       0.075  -1.936   1.282  0.00  0.00    +0.039 A 
ATOM     21  C   UNL     1       0.011  -0.542   1.276  0.00  0.00    +0.016 A 
ENDBRANCH  13  20
ENDBRANCH   1  13
BRANCH   2  22
ATOM     22  N   UNL     1      -0.082  -3.990   4.886  0.00  0.00    -0.252 NA
BRANCH  22  23
ATOM     23  C   UNL     1      -0.246  -4.724   6.143  0.00  0.00    +0.149 C 
BRANCH  23  24
ATOM     24  C   UNL     1      -0.554  -3.740   7.273  0.00  0.00    +0.056 C 
BRANCH  24  25
ATOM     25  C   UNL     1      -0.602  -4.480   8.585  0.00  0.00    -0.040 C 
ATOM     26  C   UNL     1       0.406  -4.622   9.476  0.00  0.00    +0.000 A 
ATOM     27  C   UNL     1       1.795  -4.148   9.489  0.00  0.00    +0.030 A 
ATOM     28  C   UNL     1       2.584  -4.457  10.544  0.00  0.00    +0.042 A 
ATOM     29  C   UNL     1       2.108  -5.218  11.622  0.00  0.00    +0.022 A 
ATOM     30  C   UNL     1       0.844  -5.688  11.681  0.00  0.00    +0.027 A 
ATOM     31  C   UNL     1      -0.072  -5.422  10.626  0.00  0.00    +0.043 A 
ATOM     32  N   UNL     1      -1.327  -5.761  10.453  0.00  0.00    -0.380 N 
ATOM     33  C   UNL     1      -1.789  -5.209   9.175  0.00  0.00    +0.144 C 
ATOM     34 CL   UNL     1       4.227  -3.899  10.563  0.00  0.00    -0.084 Cl
ATOM     35  H   UNL     1      -1.861  -6.286  11.069  0.00  0.00    +0.160 HD
ENDBRANCH  24  25
ENDBRANCH  23  24
ENDBRANCH  22  23
ENDBRANCH   2  22
TORSDOF 6
