REMARK  Name = ZINC66250760
REMARK  8 active torsions:
REMARK  status: ('A' for Active; 'I' for Inactive)
REMARK    1  A    between atoms: C_1  and  C_2
REMARK    2  A    between atoms: C_2  and  C_3
REMARK    3  A    between atoms: C_6  and  S_9
REMARK    4  A    between atoms: S_9  and  N_12
REMARK    5  A    between atoms: C_15  and  C_18
REMARK    6  A    between atoms: C_18  and  N_19
REMARK    7  A    between atoms: C_21  and  C_28
REMARK    8  A    between atoms: C_24  and  C_27
REMARK                            x       y       z     vdW  Elec       q    Type
REMARK                         _______ _______ _______ _____ _____    ______ ____
ROOT
ATOM      1  N   UNL     1       3.400  -0.674   5.753  0.00  0.00    -0.103 NA
ATOM      2  C   UNL     1       4.062  -0.824   6.873  0.00  0.00    +0.192 A 
ATOM      3  N   UNL     1       4.544   0.134   7.739  0.00  0.00    -0.335 N 
ATOM      4  C   UNL     1       5.212  -0.275   8.856  0.00  0.00    +0.039 A 
ATOM      5  C   UNL     1       5.388  -1.574   9.094  0.00  0.00    +0.071 A 
ATOM      6  S   UNL     1       4.575  -2.326   7.693  0.00  0.00    -0.056 S 
ATOM      7  H   UNL     1       4.412   1.078   7.557  0.00  0.00    +0.168 HD
ENDROOT
BRANCH   1   8
ATOM      8  S   UNL     1       2.920  -2.003   4.890  0.00  0.00    +0.101 S 
ATOM      9  O   UNL     1       1.959  -2.680   5.688  0.00  0.00    -0.146 OA
ATOM     10  O   UNL     1       4.105  -2.635   4.425  0.00  0.00    -0.146 OA
BRANCH   8  14
ATOM     11  C   UNL     1       0.731  -0.503   1.223  0.00  0.00    -0.048 A 
ATOM     12  C   UNL     1       2.097  -0.710   1.176  0.00  0.00    +0.005 A 
ATOM     13  C   UNL     1       2.766  -1.167   2.296  0.00  0.00    +0.029 A 
ATOM     14  C   UNL     1       2.068  -1.419   3.463  0.00  0.00    +0.113 A 
ATOM     15  C   UNL     1       0.702  -1.212   3.510  0.00  0.00    +0.029 A 
ATOM     16  C   UNL     1       0.034  -0.750   2.391  0.00  0.00    +0.005 A 
BRANCH  11  18
ATOM     17  C   UNL     1      -0.019   1.526   0.010  0.00  0.00    +0.009 C 
ATOM     18  C   UNL     1       0.002  -0.004   0.002  0.00  0.00    +0.032 C 
ENDBRANCH  11  18
ENDBRANCH   8  14
ENDBRANCH   1   8
BRANCH   4  19
ATOM     19  C   UNL     1       5.753   0.746   9.823  0.00  0.00    +0.138 C 
BRANCH  19  20
ATOM     20  N   UNL     1       6.801   1.538   9.165  0.00  0.00    -0.292 NA
ATOM     21  C   UNL     1       7.972   0.706   8.854  0.00  0.00    +0.116 C 
ATOM     22  C   UNL     1       9.012   1.554   8.118  0.00  0.00    +0.130 C 
ATOM     23  O   UNL     1       9.351   2.688   8.921  0.00  0.00    -0.371 OA
ATOM     24  C   UNL     1       8.234   3.520   9.243  0.00  0.00    +0.130 C 
ATOM     25  C   UNL     1       7.186   2.692   9.991  0.00  0.00    +0.116 C 
ATOM     26  C   UNL     1       8.698   4.678  10.128  0.00  0.00    +0.039 C 
ATOM     27  C   UNL     1       8.433   2.028   6.783  0.00  0.00    +0.039 C 
ENDBRANCH  19  20
ENDBRANCH   4  19
TORSDOF 5
