REMARK  Name = ZINC54862783
REMARK  5 active torsions:
REMARK  status: ('A' for Active; 'I' for Inactive)
REMARK    1  A    between atoms: C_1  and  C_2
REMARK    2  A    between atoms: C_2  and  C_4
REMARK    3  A    between atoms: N_9  and  C_10
REMARK    4  A    between atoms: N_9  and  C_11
REMARK    5  A    between atoms: C_11  and  C_12
REMARK                            x       y       z     vdW  Elec       q    Type
REMARK                         _______ _______ _______ _____ _____    ______ ____
ROOT
ATOM      1  C   UNL     1       0.000  -0.701  -1.221  0.00  0.00    +0.075 A 
ATOM      2  C   UNL     1      -0.013  -0.211  -2.525  0.00  0.00    +0.132 A 
ATOM      3  N   UNL     1      -0.011  -1.104  -3.479  0.00  0.00    -0.232 NA
ATOM      4  C   UNL     1       0.003  -2.400  -3.213  0.00  0.00    +0.161 A 
ATOM      5  S   UNL     1       0.021  -2.460  -1.532  0.00  0.00    -0.049 S 
ATOM      6  N   UNL     1       0.006  -3.451  -4.102  0.00  0.00    -0.310 N 
ATOM      7  C   UNL     1       0.021  -4.830  -3.607  0.00  0.00    +0.131 C 
ENDROOT
BRANCH   1   9
ATOM      8  C   UNL     1      -0.018   1.503   0.010  0.00  0.00    +0.092 C 
ATOM      9  C   UNL     1       0.002  -0.004   0.002  0.00  0.00    +0.168 C 
ATOM     10  O   UNL     1       0.020  -0.617   1.051  0.00  0.00    -0.292 OA
ENDBRANCH   1   9
BRANCH   6  11
ATOM     11  C   UNL     1      -0.006  -3.191  -5.544  0.00  0.00    +0.138 C 
BRANCH  11  12
ATOM     12  C   UNL     1       1.433  -3.088  -6.055  0.00  0.00    +0.135 C 
ATOM     13  C   UNL     1       1.421  -2.694  -7.535  0.00  0.00    +0.033 C 
ATOM     14  C   UNL     1       2.861  -2.651  -8.055  0.00  0.00    +0.005 C 
ATOM     15  C   UNL     1       3.517  -4.016  -7.821  0.00  0.00    +0.028 C 
ATOM     16  C   UNL     1       3.448  -4.359  -6.331  0.00  0.00    +0.160 C 
ATOM     17  O   UNL     1       2.084  -4.351  -5.905  0.00  0.00    -0.375 OA
ENDBRANCH  11  12
ENDBRANCH   6  11
TORSDOF 3
