REMARK  Name = ZINC13500082
REMARK  11 active torsions:
REMARK  status: ('A' for Active; 'I' for Inactive)
REMARK    1  A    between atoms: C_1  and  C_2
REMARK    2  A    between atoms: C_2  and  C_3
REMARK    3  A    between atoms: C_3  and  C_4
REMARK    4  A    between atoms: C_4  and  C_6
REMARK    5  A    between atoms: C_4  and  N_78
REMARK    6  A    between atoms: N_10  and  C_11
REMARK    7  A    between atoms: C_17  and  C_18
REMARK    8  A    between atoms: C_17  and  N_78
REMARK    9  A    between atoms: C_22  and  C_31
REMARK   10  A    between atoms: C_24  and  C_30
REMARK   11  A    between atoms: C_32  and  N_78
REMARK                            x       y       z     vdW  Elec       q    Type
REMARK                         _______ _______ _______ _____ _____    ______ ____
ROOT
ATOM      1  N   UNL     1      -1.557   7.735  -1.286  0.00  0.00    +0.391 N 
ATOM      2  H   UNL     1      -0.856   7.333  -1.920  0.00  0.00    -0.080 HD
ENDROOT
BRANCH   1   3
ATOM      3  C   UNL     1      -2.906   7.447  -1.818  0.00  0.00    -0.067 C 
ATOM      4  C   UNL     1      -3.954   8.316  -1.121  0.00  0.00    -0.015 C 
ATOM      5  C   UNL     1      -5.338   8.004  -1.693  0.00  0.00    -0.002 C 
ATOM      6  C   UNL     1      -5.664   6.527  -1.461  0.00  0.00    -0.000 C 
ATOM      7  C   UNL     1      -4.616   5.657  -2.159  0.00  0.00    -0.002 C 
ATOM      8  C   UNL     1      -3.232   5.970  -1.586  0.00  0.00    -0.015 C 
ENDBRANCH   1   3
BRANCH   1   9
ATOM      9  C   UNL     1      -1.349   9.196  -1.205  0.00  0.00    +0.003 C 
BRANCH   9  10
ATOM     10  C   UNL     1      -2.139   9.878  -2.292  0.00  0.00    +0.138 A 
ATOM     11  N   UNL     1      -2.294   9.461  -3.525  0.00  0.00    -0.115 NA
ATOM     12  N   UNL     1      -3.035  10.315  -4.143  0.00  0.00    -0.023 NA
ATOM     13  N   UNL     1      -3.357  11.265  -3.336  0.00  0.00    -0.044 NA
ATOM     14  N   UNL     1      -2.828  11.029  -2.183  0.00  0.00    -0.228 N 
BRANCH  14  15
ATOM     15  C   UNL     1      -2.951  11.860  -0.983  0.00  0.00    +0.111 C 
ATOM     16  C   UNL     1      -4.425  11.973  -0.590  0.00  0.00    +0.027 C 
ATOM     17  C   UNL     1      -4.554  12.841   0.664  0.00  0.00    +0.002 C 
ATOM     18  C   UNL     1      -3.993  14.235   0.379  0.00  0.00    +0.000 C 
ATOM     19  C   UNL     1      -2.519  14.122  -0.014  0.00  0.00    +0.002 C 
ATOM     20  C   UNL     1      -2.390  13.254  -1.268  0.00  0.00    +0.027 C 
ENDBRANCH  14  15
ENDBRANCH   9  10
BRANCH   9  21
ATOM     21  C   UNL     1       0.141   9.487  -1.399  0.00  0.00    -0.008 C 
BRANCH  21  23
ATOM     22  C   UNL     1       2.422   9.143  -0.439  0.00  0.00    +0.004 C 
ATOM     23  C   UNL     1       0.948   8.747  -0.330  0.00  0.00    -0.005 C 
ENDBRANCH  21  23
ENDBRANCH   9  21
ENDBRANCH   1   9
BRANCH   1  24
ATOM     24  C   UNL     1      -1.401   7.127   0.051  0.00  0.00    -0.036 C 
BRANCH  24  25
ATOM     25  C   UNL     1      -2.391   7.720   1.021  0.00  0.00    +0.001 A 
ATOM     26  C   UNL     1      -3.563   7.082   1.264  0.00  0.00    +0.017 A 
ATOM     27  C   UNL     1      -4.503   7.685   2.211  0.00  0.00    -0.001 A 
ATOM     28  C   UNL     1      -5.728   7.074   2.501  0.00  0.00    +0.013 A 
ATOM     29  C   UNL     1      -6.583   7.662   3.389  0.00  0.00    -0.050 A 
ATOM     30  C   UNL     1      -6.248   8.860   4.006  0.00  0.00    +0.008 A 
ATOM     31  C   UNL     1      -5.050   9.482   3.730  0.00  0.00    -0.026 A 
ATOM     32  C   UNL     1      -4.160   8.899   2.834  0.00  0.00    +0.052 A 
ATOM     33  N   UNL     1      -2.952   9.497   2.543  0.00  0.00    -0.322 N 
ATOM     34  H   UNL     1      -2.717  10.334   2.974  0.00  0.00    +0.169 HD
ATOM     35  C   UNL     1      -2.095   8.936   1.672  0.00  0.00    +0.251 A 
ATOM     36  O   UNL     1      -1.036   9.492   1.440  0.00  0.00    -0.268 OA
ATOM     37  C   UNL     1      -4.702  10.785   4.402  0.00  0.00    +0.046 C 
ATOM     38  C   UNL     1      -7.903   7.005   3.702  0.00  0.00    +0.044 C 
ENDBRANCH  24  25
ENDBRANCH   1  24
TORSDOF 8
