REMARK  Name = ZINC63681113
REMARK  6 active torsions:
REMARK  status: ('A' for Active; 'I' for Inactive)
REMARK    1  A    between atoms: C_1  and  C_2
REMARK    2  A    between atoms: C_5  and  N_8
REMARK    3  A    between atoms: C_10  and  N_15
REMARK    4  A    between atoms: N_18  and  C_19
REMARK    5  A    between atoms: C_19  and  C_20
REMARK    6  A    between atoms: C_20  and  C_21
REMARK                            x       y       z     vdW  Elec       q    Type
REMARK                         _______ _______ _______ _____ _____    ______ ____
ROOT
ATOM      1  N   UNL     1      -1.710  -6.604   1.006  0.00  0.00    -0.295 N 
ATOM      2  C   UNL     1      -2.203  -7.846   1.188  0.00  0.00    +0.300 C 
ATOM      3  O   UNL     1      -1.461  -8.808   1.140  0.00  0.00    -0.253 OA
ATOM      4  N   UNL     1      -3.519  -8.020   1.423  0.00  0.00    -0.299 N 
ATOM      5  H   UNL     1      -2.302  -5.837   1.044  0.00  0.00    +0.151 HD
ATOM      6  H   UNL     1      -4.111  -7.253   1.461  0.00  0.00    +0.150 HD
ENDROOT
BRANCH   1   9
ATOM      7  N   UNL     1       0.059  -4.170  -0.021  0.00  0.00    -0.270 N 
ATOM      8  C   UNL     1       0.176  -5.003   1.182  0.00  0.00    +0.136 C 
ATOM      9  C   UNL     1      -0.280  -6.415   0.751  0.00  0.00    +0.101 C 
ATOM     10  C   UNL     1       0.013  -6.391  -0.767  0.00  0.00    +0.120 C 
ATOM     11  C   UNL     1      -0.034  -4.923  -1.130  0.00  0.00    +0.222 C 
ATOM     12  O   UNL     1      -0.139  -4.490  -2.258  0.00  0.00    -0.275 OA
BRANCH   7  17
ATOM     13  C   UNL     1      -0.018   1.503   0.010  0.00  0.00    +0.044 C 
ATOM     14  C   UNL     1       0.002  -0.004   0.002  0.00  0.00    -0.050 A 
ATOM     15  C   UNL     1       0.020  -0.687  -1.200  0.00  0.00    +0.005 A 
ATOM     16  C   UNL     1       0.039  -2.068  -1.211  0.00  0.00    +0.024 A 
ATOM     17  C   UNL     1       0.040  -2.771  -0.013  0.00  0.00    +0.036 A 
ATOM     18  C   UNL     1       0.022  -2.082   1.192  0.00  0.00    +0.024 A 
ATOM     19  C   UNL     1       0.009  -0.701   1.197  0.00  0.00    +0.005 A 
ENDBRANCH   7  17
ENDBRANCH   1   9
BRANCH   4  20
ATOM     20  C   UNL     1      -4.055  -9.369   1.621  0.00  0.00    +0.110 C 
BRANCH  20  21
ATOM     21  C   UNL     1      -5.563  -9.288   1.868  0.00  0.00    +0.052 C 
BRANCH  21  22
ATOM     22  C   UNL     1      -6.114 -10.675   2.071  0.00  0.00    -0.040 C 
ATOM     23  C   UNL     1      -6.325 -11.302   3.251  0.00  0.00    -0.001 A 
ATOM     24  C   UNL     1      -6.112 -10.895   4.645  0.00  0.00    +0.010 A 
ATOM     25  C   UNL     1      -6.425 -11.759   5.637  0.00  0.00    +0.001 A 
ATOM     26  C   UNL     1      -6.946 -13.032   5.367  0.00  0.00    +0.002 A 
ATOM     27  C   UNL     1      -7.170 -13.478   4.112  0.00  0.00    +0.026 A 
ATOM     28  C   UNL     1      -6.878 -12.651   2.993  0.00  0.00    +0.043 A 
ATOM     29  N   UNL     1      -7.003 -12.851   1.704  0.00  0.00    -0.380 N 
ATOM     30  C   UNL     1      -6.550 -11.647   0.997  0.00  0.00    +0.144 C 
ATOM     31  H   UNL     1      -7.343 -13.658   1.286  0.00  0.00    +0.160 HD
ENDBRANCH  21  22
ENDBRANCH  20  21
ENDBRANCH   4  20
TORSDOF 5
