REMARK  Name = ZINC20909959
REMARK  13 active torsions:
REMARK  status: ('A' for Active; 'I' for Inactive)
REMARK    1  A    between atoms: C_1  and  O_2
REMARK    2  A    between atoms: O_2  and  C_3
REMARK    3  A    between atoms: C_5  and  C_13
REMARK    4  A    between atoms: C_7  and  O_11
REMARK    5  A    between atoms: C_8  and  O_9
REMARK    6  A    between atoms: O_9  and  C_10
REMARK    7  A    between atoms: O_11  and  C_12
REMARK    8  A    between atoms: N_14  and  N_15
REMARK    9  A    between atoms: C_20  and  S_22
REMARK   10  A    between atoms: S_22  and  C_23
REMARK   11  A    between atoms: C_23  and  C_24
REMARK   12  A    between atoms: N_26  and  C_27
REMARK   13  A    between atoms: N_26  and  C_33
REMARK                            x       y       z     vdW  Elec       q    Type
REMARK                         _______ _______ _______ _____ _____    ______ ____
ROOT
ATOM      1  N   UNL     1       4.021   0.501   6.027  0.00  0.00    -0.205 N 
ATOM      2  C   UNL     1       4.497  -0.150   7.151  0.00  0.00    +0.232 A 
ATOM      3  N   UNL     1       4.647   0.392   8.378  0.00  0.00    -0.245 N 
ATOM      4  H   UNL     1       4.443   1.304   8.639  0.00  0.00    +0.192 HD
ATOM      5  N   UNL     1       5.156  -0.624   9.202  0.00  0.00    -0.144 NA
ATOM      6  C   UNL     1       5.284  -1.695   8.454  0.00  0.00    +0.211 A 
ATOM      7  N   UNL     1       4.879  -1.408   7.212  0.00  0.00    -0.186 NA
ATOM      8  H   UNL     1       3.762   1.434   6.081  0.00  0.00    +0.177 HD
ENDROOT
BRANCH   1  10
ATOM      9  C   UNL     1       3.464   0.423   3.758  0.00  0.00    +0.138 C 
ATOM     10  N   UNL     1       3.911  -0.188   4.812  0.00  0.00    -0.188 NA
BRANCH   9  13
ATOM     11  C   UNL     1       2.760  -0.329   0.145  0.00  0.00    +0.166 A 
ATOM     12  C   UNL     1       2.867   0.354   1.344  0.00  0.00    +0.059 A 
ATOM     13  C   UNL     1       3.348  -0.302   2.479  0.00  0.00    +0.002 A 
ATOM     14  C   UNL     1       3.721  -1.646   2.401  0.00  0.00    +0.059 A 
ATOM     15  C   UNL     1       3.612  -2.324   1.200  0.00  0.00    +0.166 A 
ATOM     16  C   UNL     1       3.127  -1.669   0.072  0.00  0.00    +0.204 A 
BRANCH  11  18
ATOM     17  C   UNL     1       1.935   1.685  -0.814  0.00  0.00    +0.277 C 
ATOM     18  O   UNL     1       2.292   0.309  -0.961  0.00  0.00    -0.491 OA
ENDBRANCH  11  18
BRANCH  16  19
ATOM     19  O   UNL     1       3.015  -2.340  -1.107  0.00  0.00    -0.488 OA
ATOM     20  C   UNL     1       4.149  -2.318  -1.975  0.00  0.00    +0.277 C 
ENDBRANCH  16  19
BRANCH  15  21
ATOM     21  O   UNL     1       3.974  -3.632   1.122  0.00  0.00    -0.491 OA
ATOM     22  C   UNL     1       4.459  -4.243   2.320  0.00  0.00    +0.277 C 
ENDBRANCH  15  21
ENDBRANCH   9  13
ENDBRANCH   1  10
BRANCH   6  23
ATOM     23  S   UNL     1       5.886  -3.258   8.999  0.00  0.00    -0.075 S 
BRANCH  23  24
ATOM     24  C   UNL     1       6.254  -2.999  10.757  0.00  0.00    +0.173 C 
BRANCH  24  25
ATOM     25  C   UNL     1       6.784  -4.277  11.353  0.00  0.00    +0.226 C 
ATOM     26  O   UNL     1       6.529  -5.341  10.831  0.00  0.00    -0.275 OA
ATOM     27  N   UNL     1       7.540  -4.237  12.468  0.00  0.00    -0.295 N 
BRANCH  27  28
ATOM     28  C   UNL     1       8.235  -5.444  12.925  0.00  0.00    +0.076 C 
ATOM     29  C   UNL     1       9.097  -5.998  11.789  0.00  0.00    +0.022 C 
ATOM     30  C   UNL     1       9.822  -7.258  12.267  0.00  0.00    +0.002 C 
ATOM     31  C   UNL     1       8.793  -8.310  12.686  0.00  0.00    +0.000 C 
ATOM     32  C   UNL     1       7.931  -7.756  13.822  0.00  0.00    +0.002 C 
ATOM     33  C   UNL     1       7.206  -6.496  13.345  0.00  0.00    +0.022 C 
ENDBRANCH  27  28
BRANCH  27  34
ATOM     34  C   UNL     1       7.669  -2.988  13.222  0.00  0.00    +0.076 C 
ATOM     35  C   UNL     1       6.293  -2.333  13.363  0.00  0.00    +0.022 C 
ATOM     36  C   UNL     1       6.428  -1.029  14.151  0.00  0.00    +0.002 C 
ATOM     37  C   UNL     1       7.370  -0.079  13.408  0.00  0.00    +0.000 C 
ATOM     38  C   UNL     1       8.746  -0.734  13.267  0.00  0.00    +0.002 C 
ATOM     39  C   UNL     1       8.612  -2.039  12.479  0.00  0.00    +0.022 C 
ENDBRANCH  27  34
ENDBRANCH  24  25
ENDBRANCH  23  24
ENDBRANCH   6  23
TORSDOF 10
