REMARK  Name = ZINC04236200
REMARK  3 active torsions:
REMARK  status: ('A' for Active; 'I' for Inactive)
REMARK    1  A    between atoms: C_3  and  C_6
REMARK    2  A    between atoms: N_8  and  C_9
REMARK    3  A    between atoms: N_27  and  C_28
REMARK                            x       y       z     vdW  Elec       q    Type
REMARK                         _______ _______ _______ _____ _____    ______ ____
ROOT
ATOM      1  C   UNL     1      -1.306   2.004  -0.092  0.00  0.00    +0.099 A 
ATOM      2  C   UNL     1      -1.265   3.369  -0.179  0.00  0.00    +0.030 A 
ATOM      3  C   UNL     1      -0.027   4.015  -0.091  0.00  0.00    +0.024 A 
ATOM      4  C   UNL     1       1.118   3.301   0.074  0.00  0.00    +0.027 A 
ATOM      5  N   UNL     1       1.089   1.946   0.087  0.00  0.00    -0.310 N 
ATOM      6  C   UNL     1      -0.100   1.294   0.069  0.00  0.00    +0.273 A 
ATOM      7  O   UNL     1      -0.125   0.080   0.189  0.00  0.00    -0.266 OA
ATOM      8  C   UNL     1       2.297   1.120   0.080  0.00  0.00    +0.130 C 
ATOM      9  C   UNL     1       3.525   1.885   0.539  0.00  0.00    +0.027 C 
ATOM     10  C   UNL     1       3.592   3.236  -0.173  0.00  0.00    +0.018 C 
ATOM     11  C   UNL     1       2.397   4.080   0.278  0.00  0.00    +0.054 C 
ATOM     12  C   UNL     1       2.541   4.357   1.784  0.00  0.00    +0.119 C 
ATOM     13  N   UNL     1       2.563   3.055   2.469  0.00  0.00    -0.285 N 
ATOM     14  C   UNL     1       3.558   2.060   2.051  0.00  0.00    +0.114 C 
ATOM     15  C   UNL     1       1.690   2.782   3.459  0.00  0.00    +0.302 C 
ATOM     16  O   UNL     1       0.932   3.646   3.856  0.00  0.00    -0.253 OA
ATOM     17  N   UNL     1       1.656   1.552   4.008  0.00  0.00    -0.296 N 
ATOM     18  H   UNL     1       2.309   0.884   3.743  0.00  0.00    +0.151 HD
ENDROOT
BRANCH  17  19
ATOM     19  C   UNL     1       0.635   1.222   5.005  0.00  0.00    +0.074 C 
ATOM     20  C   UNL     1       1.110   1.667   6.389  0.00  0.00    +0.022 C 
ATOM     21  C   UNL     1       0.043   1.322   7.430  0.00  0.00    +0.002 C 
ATOM     22  C   UNL     1      -0.196  -0.189   7.434  0.00  0.00    +0.000 C 
ATOM     23  C   UNL     1      -0.672  -0.634   6.050  0.00  0.00    +0.002 C 
ATOM     24  C   UNL     1       0.395  -0.289   5.009  0.00  0.00    +0.022 C 
ENDBRANCH  17  19
BRANCH   1  27
ATOM     25  C   UNL     1      -2.729   0.388  -1.106  0.00  0.00    +0.284 C 
ATOM     26  O   UNL     1      -1.885   0.198  -1.962  0.00  0.00    -0.266 OA
ATOM     27  N   UNL     1      -2.528   1.323  -0.156  0.00  0.00    -0.275 N 
ATOM     28  H   UNL     1      -3.229   1.524   0.482  0.00  0.00    +0.155 HD
BRANCH  25  31
ATOM     29  C   UNL     1      -5.558  -1.858  -1.633  0.00  0.00    +0.042 A 
ATOM     30  C   UNL     1      -4.298  -1.370  -2.010  0.00  0.00    +0.054 A 
ATOM     31  C   UNL     1      -3.966  -0.400  -1.108  0.00  0.00    +0.189 A 
ATOM     32  O   UNL     1      -4.977  -0.290  -0.222  0.00  0.00    -0.458 OA
ATOM     33  C   UNL     1      -5.940  -1.168  -0.535  0.00  0.00    +0.196 A 
ENDBRANCH  25  31
ENDBRANCH   1  27
TORSDOF 3
