REMARK  Name = ZINC12477367
REMARK  14 active torsions:
REMARK  status: ('A' for Active; 'I' for Inactive)
REMARK    1  A    between atoms: C_1  and  C_2
REMARK    2  A    between atoms: C_5  and  N_9
REMARK    3  A    between atoms: C_6  and  C_8
REMARK    4  A    between atoms: N_9  and  C_10
REMARK    5  A    between atoms: C_10  and  C_12
REMARK    6  A    between atoms: C_10  and  C_19
REMARK    7  A    between atoms: N_21  and  C_22
REMARK    8  A    between atoms: C_22  and  C_23
REMARK    9  A    between atoms: C_22  and  C_24
REMARK   10  A    between atoms: C_22  and  C_25
REMARK   11  A    between atoms: C_26  and  C_28
REMARK   12  A    between atoms: C_28  and  N_29
REMARK   13  A    between atoms: C_31  and  C_34
REMARK   14  A    between atoms: C_37  and  C_39
REMARK                            x       y       z     vdW  Elec       q    Type
REMARK                         _______ _______ _______ _____ _____    ______ ____
ROOT
ATOM      1  N   UNL     1      -3.467   1.824   0.114  0.00  0.00    -0.254 N 
ATOM      2  C   UNL     1      -4.454   1.555   0.991  0.00  0.00    +0.244 C 
ATOM      3  O   UNL     1      -4.277   0.739   1.871  0.00  0.00    -0.273 OA
ENDROOT
BRANCH   1   8
ATOM      4  C   UNL     1      -4.296   5.638  -4.004  0.00  0.00    +0.044 C 
ATOM      5  C   UNL     1      -4.076   4.625  -2.910  0.00  0.00    -0.050 A 
ATOM      6  C   UNL     1      -4.638   3.366  -3.013  0.00  0.00    +0.005 A 
ATOM      7  C   UNL     1      -4.433   2.433  -2.015  0.00  0.00    +0.024 A 
ATOM      8  C   UNL     1      -3.672   2.765  -0.902  0.00  0.00    +0.040 A 
ATOM      9  C   UNL     1      -3.109   4.031  -0.801  0.00  0.00    -0.029 A 
ATOM     10  C   UNL     1      -3.313   4.957  -1.806  0.00  0.00    +0.008 A 
ATOM     11  C   UNL     1      -2.277   4.393   0.402  0.00  0.00    +0.045 C 
ENDBRANCH   1   8
BRANCH   1  12
ATOM     12  C   UNL     1      -2.180   1.133   0.223  0.00  0.00    +0.197 C 
BRANCH  12  13
ATOM     13  C   UNL     1      -2.370  -0.332  -0.077  0.00  0.00    -0.018 A 
ATOM     14  C   UNL     1      -3.135  -0.721  -1.161  0.00  0.00    +0.009 A 
ATOM     15  C   UNL     1      -3.305  -2.064  -1.440  0.00  0.00    +0.038 A 
ATOM     16  C   UNL     1      -2.719  -3.019  -0.628  0.00  0.00    +0.123 A 
ATOM     17  C   UNL     1      -1.957  -2.628   0.460  0.00  0.00    +0.038 A 
ATOM     18  C   UNL     1      -1.784  -1.285   0.734  0.00  0.00    +0.009 A 
ATOM     19  F   UNL     1      -2.890  -4.332  -0.897  0.00  0.00    -0.205 F 
ENDBRANCH  12  13
BRANCH  12  20
ATOM     20  C   UNL     1      -1.206   1.726  -0.762  0.00  0.00    +0.239 C 
ATOM     21  O   UNL     1      -1.598   2.118  -1.841  0.00  0.00    -0.273 OA
ATOM     22  N   UNL     1       0.100   1.819  -0.445  0.00  0.00    -0.309 N 
ATOM     23  H   UNL     1       0.413   1.506   0.418  0.00  0.00    +0.149 HD
BRANCH  22  24
ATOM     24  C   UNL     1       1.048   2.390  -1.405  0.00  0.00    +0.026 C 
ATOM     25  C   UNL     1       0.646   3.832  -1.724  0.00  0.00    +0.031 C 
ATOM     26  C   UNL     1       2.455   2.374  -0.803  0.00  0.00    +0.031 C 
ATOM     27  C   UNL     1       1.034   1.560  -2.690  0.00  0.00    +0.031 C 
ENDBRANCH  22  24
ENDBRANCH  12  20
ENDBRANCH   1  12
BRANCH   2  28
ATOM     28  C   UNL     1      -5.778   2.266   0.879  0.00  0.00    +0.264 C 
BRANCH  28  29
ATOM     29  N   UNL     1      -6.674   1.801   1.940  0.00  0.00    -0.154 N 
ATOM     30  N   UNL     1      -7.488   0.807   1.845  0.00  0.00    -0.127 NA
ATOM     31  C   UNL     1      -8.121   0.692   2.998  0.00  0.00    +0.239 A 
ATOM     32  N   UNL     1      -7.655   1.670   3.790  0.00  0.00    -0.105 NA
ATOM     33  N   UNL     1      -6.775   2.325   3.112  0.00  0.00    -0.045 NA
BRANCH  31  34
ATOM     34  C   UNL     1      -9.147  -0.314   3.347  0.00  0.00    +0.175 A 
ATOM     35  C   UNL     1      -9.789  -0.418   4.540  0.00  0.00    +0.053 A 
ATOM     36  C   UNL     1     -10.677  -1.507   4.430  0.00  0.00    +0.045 A 
ATOM     37  C   UNL     1     -10.528  -2.014   3.191  0.00  0.00    +0.103 A 
ATOM     38  O   UNL     1      -9.603  -1.290   2.539  0.00  0.00    -0.457 OA
ATOM     39  C   UNL     1     -11.275  -3.196   2.629  0.00  0.00    +0.086 C 
ENDBRANCH  31  34
ENDBRANCH  28  29
ENDBRANCH   2  28
TORSDOF 8
