REMARK  Name = ZINC00865027
REMARK  5 active torsions:
REMARK  status: ('A' for Active; 'I' for Inactive)
REMARK    1  A    between atoms: C_4  and  C_7
REMARK    2  A    between atoms: C_7  and  N_8
REMARK    3  A    between atoms: C_14  and  S_15
REMARK    4  A    between atoms: S_15  and  C_16
REMARK    5  A    between atoms: C_16  and  C_17
REMARK                            x       y       z     vdW  Elec       q    Type
REMARK                         _______ _______ _______ _____ _____    ______ ____
ROOT
ATOM      1  N   UNL     1      -2.927   0.722   1.401  0.00  0.00    -0.283 N 
ATOM      2  C   UNL     1      -3.716   1.610   2.045  0.00  0.00    +0.259 A 
ATOM      3  O   UNL     1      -4.071   2.640   1.495  0.00  0.00    -0.267 OA
ATOM      4  C   UNL     1      -4.117   1.323   3.356  0.00  0.00    +0.050 A 
ATOM      5  C   UNL     1      -3.689   0.143   3.944  0.00  0.00    +0.083 A 
ATOM      6  N   UNL     1      -2.885  -0.686   3.268  0.00  0.00    -0.223 NA
ATOM      7  C   UNL     1      -2.518  -0.414   2.031  0.00  0.00    +0.173 A 
ATOM      8  C   UNL     1      -4.141  -0.185   5.314  0.00  0.00    +0.004 A 
ATOM      9  C   UNL     1      -3.485  -1.153   6.069  0.00  0.00    +0.010 A 
ATOM     10  C   UNL     1      -3.895  -1.407   7.363  0.00  0.00    +0.001 A 
ATOM     11  C   UNL     1      -4.954  -0.701   7.905  0.00  0.00    +0.000 A 
ATOM     12  C   UNL     1      -5.616   0.254   7.155  0.00  0.00    +0.004 A 
ATOM     13  C   UNL     1      -5.220   0.511   5.858  0.00  0.00    -0.037 A 
ATOM     14  C   UNL     1      -5.950   1.535   5.030  0.00  0.00    +0.047 C 
ATOM     15  C   UNL     1      -4.980   2.288   4.122  0.00  0.00    +0.007 C 
ATOM     16  C   UNL     1      -5.776   3.147   3.133  0.00  0.00    +0.012 C 
ATOM     17  C   UNL     1      -6.652   4.134   3.907  0.00  0.00    +0.001 C 
ATOM     18  C   UNL     1      -5.765   5.040   4.763  0.00  0.00    +0.000 C 
ATOM     19  C   UNL     1      -4.964   4.186   5.748  0.00  0.00    +0.001 C 
ATOM     20  C   UNL     1      -4.090   3.198   4.974  0.00  0.00    +0.012 C 
ENDROOT
BRANCH   1  21
ATOM     21  C   UNL     1      -2.514   0.980   0.019  0.00  0.00    +0.162 C 
BRANCH  21  25
ATOM     22  C   UNL     1       1.156   3.165   0.008  0.00  0.00    +0.000 A 
ATOM     23  C   UNL     1       1.175   1.783   0.000  0.00  0.00    +0.000 A 
ATOM     24  C   UNL     1      -0.013   1.076   0.008  0.00  0.00    +0.005 A 
ATOM     25  C   UNL     1      -1.219   1.751   0.017  0.00  0.00    -0.028 A 
ATOM     26  C   UNL     1      -1.238   3.133   0.030  0.00  0.00    +0.005 A 
ATOM     27  C   UNL     1      -0.050   3.840   0.022  0.00  0.00    +0.000 A 
ENDBRANCH  21  25
ENDBRANCH   1  21
BRANCH   7  28
ATOM     28  S   UNL     1      -1.471  -1.544   1.177  0.00  0.00    -0.078 S 
BRANCH  28  29
ATOM     29  C   UNL     1      -1.265  -2.810   2.454  0.00  0.00    +0.172 C 
BRANCH  29  30
ATOM     30  C   UNL     1      -0.379  -3.911   1.931  0.00  0.00    +0.221 C 
ATOM     31  O   UNL     1       0.070  -3.846   0.806  0.00  0.00    -0.275 OA
ATOM     32  N   UNL     1      -0.084  -4.968   2.714  0.00  0.00    -0.329 N 
ATOM     33  H   UNL     1      -0.443  -5.020   3.614  0.00  0.00    +0.145 HD
ATOM     34  H   UNL     1       0.486  -5.677   2.378  0.00  0.00    +0.145 HD
ENDBRANCH  29  30
ENDBRANCH  28  29
ENDBRANCH   7  28
TORSDOF 5
