REMARK  Name = ZINC03035471
REMARK  4 active torsions:
REMARK  status: ('A' for Active; 'I' for Inactive)
REMARK    1  A    between atoms: C_1  and  C_2
REMARK    2  A    between atoms: C_10  and  C_11
REMARK    3  A    between atoms: N_13  and  C_14
REMARK    4  A    between atoms: C_20  and  C_22
REMARK                            x       y       z     vdW  Elec       q    Type
REMARK                         _______ _______ _______ _____ _____    ______ ____
ROOT
ATOM      1  C   UNL     1      -0.018   1.503   0.010  0.00  0.00    +0.066 C 
ATOM      2  C   UNL     1       0.002  -0.004   0.002  0.00  0.00    +0.047 A 
ATOM      3  C   UNL     1      -1.166  -0.706   0.004  0.00  0.00    -0.005 A 
ATOM      4  C   UNL     1      -1.123  -2.099  -0.005  0.00  0.00    +0.049 A 
ATOM      5  N   UNL     1       0.044  -2.719  -0.009  0.00  0.00    -0.232 NA
ATOM      6  C   UNL     1       1.189  -2.039  -0.011  0.00  0.00    +0.168 A 
ATOM      7  N   UNL     1       1.187  -0.673  -0.013  0.00  0.00    -0.218 N 
ATOM      8  N   UNL     1       2.516  -0.237  -0.026  0.00  0.00    -0.172 NA
ATOM      9  C   UNL     1       3.316  -1.271  -0.035  0.00  0.00    +0.150 A 
ATOM     10  C   UNL     1       2.538  -2.443  -0.018  0.00  0.00    +0.100 A 
ATOM     11  C   UNL     1      -2.371  -2.942  -0.019  0.00  0.00    +0.056 C 
ATOM     12  C   UNL     1      -3.579  -2.116   0.419  0.00  0.00    +0.006 C 
ATOM     13  C   UNL     1      -3.619  -0.830  -0.414  0.00  0.00    +0.005 C 
ATOM     14  C   UNL     1      -2.459   0.064   0.020  0.00  0.00    +0.039 C 
ENDROOT
BRANCH  10  15
ATOM     15  C   UNL     1       3.037  -3.821  -0.020  0.00  0.00    +0.249 C 
ATOM     16  O   UNL     1       2.252  -4.752  -0.016  0.00  0.00    -0.270 OA
ATOM     17  N   UNL     1       4.363  -4.058  -0.026  0.00  0.00    -0.308 N 
ATOM     18  H   UNL     1       4.988  -3.316  -0.029  0.00  0.00    +0.149 HD
BRANCH  17  19
ATOM     19  C   UNL     1       4.862  -5.435  -0.028  0.00  0.00    +0.076 C 
ATOM     20  C   UNL     1       4.924  -5.958   1.408  0.00  0.00    +0.022 C 
ATOM     21  C   UNL     1       5.444  -7.396   1.406  0.00  0.00    +0.002 C 
ATOM     22  C   UNL     1       6.844  -7.431   0.790  0.00  0.00    +0.000 C 
ATOM     23  C   UNL     1       6.782  -6.909  -0.647  0.00  0.00    +0.005 C 
ATOM     24  C   UNL     1       6.262  -5.470  -0.645  0.00  0.00    +0.006 C 
ATOM     25  C   UNL     1       6.199  -4.948  -2.081  0.00  0.00    +0.009 C 
ENDBRANCH  17  19
ENDBRANCH  10  15
TORSDOF 2
