REMARK  Name = ZINC04544520
REMARK  8 active torsions:
REMARK  status: ('A' for Active; 'I' for Inactive)
REMARK    1  A    between atoms: C_1  and  C_2
REMARK    2  A    between atoms: C_2  and  O_3
REMARK    3  A    between atoms: O_3  and  C_4
REMARK    4  A    between atoms: C_7  and  N_10
REMARK    5  A    between atoms: C_16  and  C_17
REMARK    6  A    between atoms: C_20  and  O_23
REMARK    7  A    between atoms: O_23  and  C_24
REMARK    8  A    between atoms: C_24  and  C_25
REMARK                            x       y       z     vdW  Elec       q    Type
REMARK                         _______ _______ _______ _____ _____    ______ ____
ROOT
ATOM      1  N   UNL     1       2.059   4.155  -0.143  0.00  0.00    -0.226 NA
ATOM      2  C   UNL     1       1.051   3.313  -0.167  0.00  0.00    +0.166 C 
ATOM      3  N   UNL     1       1.061   1.972  -0.487  0.00  0.00    -0.260 N 
ATOM      4  C   UNL     1      -0.055   1.264  -0.460  0.00  0.00    +0.256 C 
ATOM      5  O   UNL     1      -0.064   0.079  -0.740  0.00  0.00    -0.269 OA
ATOM      6  C   UNL     1      -1.290   1.976  -0.081  0.00  0.00    +0.078 C 
ATOM      7  C   UNL     1      -2.559   1.505   0.022  0.00  0.00    +0.028 C 
ATOM      8  S   UNL     1      -0.667   3.626   0.207  0.00  0.00    -0.049 S 
ATOM      9  H   UNL     1       1.896   1.544  -0.735  0.00  0.00    +0.157 HD
ENDROOT
BRANCH   1  13
ATOM     10  C   UNL     1       1.428   8.111   0.906  0.00  0.00    +0.121 A 
ATOM     11  C   UNL     1       2.505   7.416   1.440  0.00  0.00    +0.048 A 
ATOM     12  C   UNL     1       2.719   6.099   1.094  0.00  0.00    +0.031 A 
ATOM     13  C   UNL     1       1.850   5.463   0.204  0.00  0.00    +0.067 A 
ATOM     14  C   UNL     1       0.771   6.167  -0.335  0.00  0.00    +0.031 A 
ATOM     15  C   UNL     1       0.562   7.483   0.021  0.00  0.00    +0.048 A 
BRANCH  10  16
ATOM     16  O   UNL     1       1.222   9.410   1.250  0.00  0.00    -0.492 OA
BRANCH  16  18
ATOM     17  C   UNL     1       0.026  11.509   1.166  0.00  0.00    +0.048 C 
ATOM     18  C   UNL     1       0.095  10.065   0.663  0.00  0.00    +0.225 C 
ENDBRANCH  16  18
ENDBRANCH  10  16
ENDBRANCH   1  13
BRANCH   7  19
ATOM     19  C   UNL     1      -2.819   0.065  -0.095  0.00  0.00    -0.024 A 
ATOM     20  C   UNL     1      -3.946  -0.392  -0.789  0.00  0.00    +0.011 A 
ATOM     21  C   UNL     1      -4.182  -1.744  -0.900  0.00  0.00    +0.046 A 
ATOM     22  C   UNL     1      -3.309  -2.655  -0.316  0.00  0.00    +0.121 A 
ATOM     23  C   UNL     1      -2.192  -2.207   0.379  0.00  0.00    +0.046 A 
ATOM     24  C   UNL     1      -1.944  -0.858   0.492  0.00  0.00    +0.011 A 
BRANCH  22  25
ATOM     25  O   UNL     1      -3.549  -3.987  -0.425  0.00  0.00    -0.483 OA
BRANCH  25  26
ATOM     26  C   UNL     1      -4.715  -4.379  -1.153  0.00  0.00    +0.324 C 
BRANCH  26  27
ATOM     27  C   UNL     1      -4.816  -5.882  -1.167  0.00  0.00    +0.248 C 
ATOM     28  O   UNL     1      -3.973  -6.552  -0.609  0.00  0.00    -0.272 OA
ATOM     29  N   UNL     1      -5.843  -6.482  -1.801  0.00  0.00    -0.327 N 
ATOM     30  H   UNL     1      -6.518  -5.946  -2.247  0.00  0.00    +0.145 HD
ATOM     31  H   UNL     1      -5.909  -7.450  -1.810  0.00  0.00    +0.145 HD
ENDBRANCH  26  27
ENDBRANCH  25  26
ENDBRANCH  22  25
ENDBRANCH   7  19
TORSDOF 7
