REMARK  Name = ZINC56946618
REMARK  7 active torsions:
REMARK  status: ('A' for Active; 'I' for Inactive)
REMARK    1  A    between atoms: C_1  and  C_2
REMARK    2  A    between atoms: C_5  and  C_33
REMARK    3  A    between atoms: N_8  and  C_10
REMARK    4  A    between atoms: C_10  and  C_11
REMARK    5  A    between atoms: C_11  and  C_13
REMARK    6  A    between atoms: C_11  and  N_14
REMARK    7  A    between atoms: C_20  and  C_23
REMARK                            x       y       z     vdW  Elec       q    Type
REMARK                         _______ _______ _______ _____ _____    ______ ____
ROOT
ATOM      1  N   UNL     1       3.509  -2.494   0.950  0.00  0.00    -0.298 N 
ATOM      2  C   UNL     1       4.540  -1.852   0.365  0.00  0.00    +0.303 C 
ATOM      3  O   UNL     1       4.981  -0.833   0.860  0.00  0.00    -0.253 OA
ATOM      4  N   UNL     1       5.082  -2.339  -0.769  0.00  0.00    -0.282 N 
ATOM      5  C   UNL     1       6.279  -1.727  -1.371  0.00  0.00    +0.114 C 
ATOM      6  C   UNL     1       7.397  -2.772  -1.366  0.00  0.00    +0.054 C 
ATOM      7  C   UNL     1       6.879  -4.095  -1.849  0.00  0.00    -0.039 C 
ATOM      8  C   UNL     1       5.609  -4.425  -1.884  0.00  0.00    -0.004 C 
ATOM      9  C   UNL     1       4.505  -3.506  -1.451  0.00  0.00    +0.137 C 
ATOM     10  H   UNL     1       3.109  -3.264   0.517  0.00  0.00    +0.150 HD
ENDROOT
BRANCH   7  11
ATOM     11  C   UNL     1       7.863  -5.090  -2.317  0.00  0.00    +0.005 A 
ATOM     12  C   UNL     1       8.543  -5.069  -3.492  0.00  0.00    +0.093 A 
ATOM     13  N   UNL     1       9.363  -6.159  -3.568  0.00  0.00    -0.345 N 
ATOM     14  H   UNL     1       9.948  -6.360  -4.315  0.00  0.00    +0.167 HD
ATOM     15  C   UNL     1       9.241  -6.930  -2.436  0.00  0.00    +0.139 A 
ATOM     16  C   UNL     1       8.303  -6.297  -1.600  0.00  0.00    +0.026 A 
ATOM     17  C   UNL     1       7.987  -6.867  -0.367  0.00  0.00    +0.013 A 
ATOM     18  C   UNL     1       8.619  -8.045  -0.013  0.00  0.00    +0.020 A 
ATOM     19  C   UNL     1       9.535  -8.613  -0.884  0.00  0.00    +0.113 A 
ATOM     20  N   UNL     1       9.813  -8.062  -2.046  0.00  0.00    -0.237 NA
ENDBRANCH   7  11
BRANCH   1  21
ATOM     21  C   UNL     1       2.993  -2.029   2.240  0.00  0.00    +0.055 C 
ATOM     22  C   UNL     1       3.824  -2.638   3.371  0.00  0.00    +0.026 C 
BRANCH  21  23
ATOM     23  C   UNL     1       1.533  -2.459   2.390  0.00  0.00    -0.057 C 
BRANCH  23  29
ATOM     24  C   UNL     1      -0.012   1.535   0.018  0.00  0.00    +0.005 C 
ATOM     25  C   UNL     1       0.005   0.005   0.007  0.00  0.00    -0.031 C 
ATOM     26  C   UNL     1      -1.432  -0.523   0.020  0.00  0.00    +0.003 C 
ATOM     27  C   UNL     1      -1.403  -2.053   0.087  0.00  0.00    -0.031 C 
ATOM     28  C   UNL     1      -0.614  -2.488   1.324  0.00  0.00    -0.076 C 
ATOM     29  N   UNL     1       0.758  -1.974   1.240  0.00  0.00    +0.381 N 
ATOM     30  C   UNL     1       0.743  -0.506   1.246  0.00  0.00    -0.076 C 
ATOM     31  C   UNL     1      -0.730  -2.607  -1.170  0.00  0.00    +0.005 C 
ATOM     32  H   UNL     1       1.187  -2.301   0.387  0.00  0.00    -0.082 HD
ENDBRANCH  23  29
ENDBRANCH  21  23
ENDBRANCH   1  21
TORSDOF 4
