REMARK  Name = ZINC02111977
REMARK  13 active torsions:
REMARK  status: ('A' for Active; 'I' for Inactive)
REMARK    1  A    between atoms: C_1  and  C_2
REMARK    2  A    between atoms: C_5  and  S_8
REMARK    3  A    between atoms: S_8  and  N_11
REMARK    4  A    between atoms: N_11  and  C_12
REMARK    5  A    between atoms: C_12  and  C_14
REMARK    6  A    between atoms: C_12  and  C_17
REMARK    7  A    between atoms: C_14  and  C_15
REMARK    8  A    between atoms: C_14  and  C_16
REMARK    9  A    between atoms: C_17  and  O_19
REMARK   10  A    between atoms: O_19  and  C_20
REMARK   11  A    between atoms: C_24  and  C_38
REMARK   12  A    between atoms: C_25  and  C_31
REMARK   13  A    between atoms: C_31  and  C_32
REMARK                            x       y       z     vdW  Elec       q    Type
REMARK                         _______ _______ _______ _____ _____    ______ ____
ROOT
ATOM      1  O   UNL     1       3.735  -0.175   0.289  0.00  0.00    -0.425 OA
ENDROOT
BRANCH   1   2
ATOM      2  C   UNL     1       2.573   0.526   0.335  0.00  0.00    +0.135 A 
ATOM      3  C   UNL     1       2.090   1.139  -0.819  0.00  0.00    +0.047 A 
ATOM      4  C   UNL     1       0.923   1.847  -0.789  0.00  0.00    +0.015 A 
ATOM      5  C   UNL     1       0.208   1.958   0.408  0.00  0.00    +0.021 A 
ATOM      6  C   UNL     1      -1.044   2.716   0.471  0.00  0.00    -0.030 A 
ATOM      7  C   UNL     1      -1.694   2.784   1.662  0.00  0.00    +0.045 A 
ATOM      8  C   UNL     1      -1.153   2.141   2.794  0.00  0.00    +0.341 A 
ATOM      9  O   UNL     1      -1.743   2.213   3.857  0.00  0.00    -0.245 OA
ATOM     10  O   UNL     1      -0.003   1.452   2.731  0.00  0.00    -0.422 OA
ATOM     11  C   UNL     1       0.691   1.342   1.577  0.00  0.00    +0.143 A 
ATOM     12  C   UNL     1       1.878   0.626   1.529  0.00  0.00    +0.093 A 
ATOM     13  C   UNL     1      -1.601   3.394  -0.754  0.00  0.00    +0.045 C 
BRANCH   7  14
ATOM     14  C   UNL     1      -2.987   3.550   1.774  0.00  0.00    +0.077 C 
BRANCH  14  15
ATOM     15  C   UNL     1      -4.148   2.600   1.622  0.00  0.00    -0.043 A 
ATOM     16  C   UNL     1      -4.653   2.322   0.365  0.00  0.00    +0.004 A 
ATOM     17  C   UNL     1      -5.714   1.447   0.225  0.00  0.00    +0.000 A 
ATOM     18  C   UNL     1      -6.277   0.858   1.342  0.00  0.00    +0.000 A 
ATOM     19  C   UNL     1      -5.775   1.141   2.599  0.00  0.00    +0.000 A 
ATOM     20  C   UNL     1      -4.710   2.011   2.739  0.00  0.00    +0.004 A 
ENDBRANCH  14  15
ENDBRANCH   7  14
ENDBRANCH   1   2
BRANCH   1  21
ATOM     21  C   UNL     1       4.874   0.534   0.244  0.00  0.00    +0.331 C 
ATOM     22  O   UNL     1       4.837   1.740   0.305  0.00  0.00    -0.249 OA
BRANCH  21  23
ATOM     23  C   UNL     1       6.198  -0.174   0.118  0.00  0.00    +0.188 C 
BRANCH  23  24
ATOM     24  C   UNL     1       6.393  -1.109   1.313  0.00  0.00    +0.012 C 
ATOM     25  C   UNL     1       7.666  -1.933   1.114  0.00  0.00    +0.009 C 
ATOM     26  C   UNL     1       6.516  -0.281   2.594  0.00  0.00    +0.009 C 
ENDBRANCH  23  24
BRANCH  23  27
ATOM     27  N   UNL     1       7.279   0.814   0.090  0.00  0.00    -0.176 NA
ATOM     28  H   UNL     1       7.447   1.371   0.866  0.00  0.00    +0.149 HD
BRANCH  27  29
ATOM     29  S   UNL     1       8.215   0.980  -1.266  0.00  0.00    +0.059 S 
ATOM     30  O   UNL     1       9.122   2.042  -1.006  0.00  0.00    -0.153 OA
ATOM     31  O   UNL     1       8.652  -0.325  -1.620  0.00  0.00    -0.153 OA
BRANCH  29  36
ATOM     32  C   UNL     1       4.595   2.853  -5.715  0.00  0.00    +0.044 C 
ATOM     33  C   UNL     1       5.499   2.385  -4.604  0.00  0.00    -0.050 A 
ATOM     34  C   UNL     1       6.139   3.308  -3.799  0.00  0.00    +0.005 A 
ATOM     35  C   UNL     1       6.969   2.879  -2.780  0.00  0.00    +0.029 A 
ATOM     36  C   UNL     1       7.158   1.527  -2.565  0.00  0.00    +0.105 A 
ATOM     37  C   UNL     1       6.521   0.603  -3.373  0.00  0.00    +0.029 A 
ATOM     38  C   UNL     1       5.688   1.032  -4.389  0.00  0.00    +0.005 A 
ENDBRANCH  29  36
ENDBRANCH  27  29
ENDBRANCH  23  27
ENDBRANCH  21  23
ENDBRANCH   1  21
TORSDOF 9
