REMARK  Name = ZINC21728817
REMARK  7 active torsions:
REMARK  status: ('A' for Active; 'I' for Inactive)
REMARK    1  A    between atoms: C_4  and  C_7
REMARK    2  A    between atoms: C_10  and  S_19
REMARK    3  A    between atoms: N_11  and  C_12
REMARK    4  A    between atoms: C_12  and  C_13
REMARK    5  A    between atoms: S_19  and  C_20
REMARK    6  A    between atoms: C_20  and  C_21
REMARK    7  A    between atoms: N_27  and  C_28
REMARK                            x       y       z     vdW  Elec       q    Type
REMARK                         _______ _______ _______ _____ _____    ______ ____
ROOT
ATOM      1  S   UNL     1      -2.505  10.132   1.383  0.00  0.00    -0.080 S 
ENDROOT
BRANCH   1   5
ATOM      2  C   UNL     1      -2.554  14.038   1.024  0.00  0.00    +0.069 A 
ATOM      3  C   UNL     1      -2.468  13.639  -0.272  0.00  0.00    +0.140 A 
ATOM      4  N   UNL     1      -2.437  12.301  -0.297  0.00  0.00    -0.230 NA
ATOM      5  C   UNL     1      -2.509  11.835   0.929  0.00  0.00    +0.170 A 
ATOM      6  N   UNL     1      -2.580  12.886   1.792  0.00  0.00    -0.316 N 
BRANCH   2  10
ATOM      7  C   UNL     1      -2.713  18.038   2.444  0.00  0.00    +0.000 A 
ATOM      8  C   UNL     1      -1.979  17.738   1.309  0.00  0.00    +0.001 A 
ATOM      9  C   UNL     1      -1.923  16.441   0.843  0.00  0.00    +0.010 A 
ATOM     10  C   UNL     1      -2.609  15.429   1.518  0.00  0.00    +0.000 A 
ATOM     11  C   UNL     1      -3.352  15.740   2.659  0.00  0.00    +0.010 A 
ATOM     12  C   UNL     1      -3.395  17.040   3.118  0.00  0.00    +0.001 A 
ENDBRANCH   2  10
BRANCH   6  13
ATOM     13  C   UNL     1      -2.668  12.812   3.252  0.00  0.00    +0.156 C 
BRANCH  13  14
ATOM     14  C   UNL     1      -1.264  12.908   3.853  0.00  0.00    +0.138 C 
ATOM     15  C   UNL     1      -1.333  12.710   5.382  0.00  0.00    +0.035 C 
ATOM     16  C   UNL     1      -0.295  13.746   5.895  0.00  0.00    +0.031 C 
ATOM     17  C   UNL     1      -0.469  14.880   4.853  0.00  0.00    +0.160 C 
ATOM     18  O   UNL     1      -0.718  14.209   3.607  0.00  0.00    -0.375 OA
ENDBRANCH  13  14
ENDBRANCH   6  13
ENDBRANCH   1   5
BRANCH   1  19
ATOM     19  C   UNL     1      -2.391   9.371  -0.255  0.00  0.00    +0.153 C 
BRANCH  19  20
ATOM     20  C   UNL     1      -2.372   7.871  -0.112  0.00  0.00    +0.146 A 
ATOM     21  N   UNL     1      -3.507   7.194  -0.118  0.00  0.00    -0.199 NA
ATOM     22  C   UNL     1      -3.494   5.869   0.009  0.00  0.00    +0.217 A 
ATOM     23  N   UNL     1      -2.339   5.227   0.141  0.00  0.00    -0.181 NA
ATOM     24  C   UNL     1      -1.200   5.911   0.147  0.00  0.00    +0.224 A 
ATOM     25  N   UNL     1      -1.221   7.237   0.026  0.00  0.00    -0.198 NA
ATOM     26  N   UNL     1       0.004   5.248   0.285  0.00  0.00    -0.284 N 
ATOM     27  N   UNL     1      -4.680   5.162   0.001  0.00  0.00    -0.327 N 
ATOM     28  H   UNL     1       0.939   5.820   0.377  0.00  0.00    +0.155 HD
ATOM     29  H   UNL     1      -4.668   4.067   0.106  0.00  0.00    +0.145 HD
ATOM     30  H   UNL     1      -5.636   5.694  -0.109  0.00  0.00    +0.145 HD
BRANCH  26  31
ATOM     31  C   UNL     1       0.035   3.851   0.309  0.00  0.00    +0.034 A 
ATOM     32  C   UNL     1       0.977   3.188   1.084  0.00  0.00    +0.023 A 
ATOM     33  C   UNL     1       1.004   1.807   1.104  0.00  0.00    +0.002 A 
ATOM     34  C   UNL     1       0.095   1.085   0.353  0.00  0.00    +0.000 A 
ATOM     35  C   UNL     1      -0.841   1.742  -0.424  0.00  0.00    +0.002 A 
ATOM     36  C   UNL     1      -0.878   3.122  -0.444  0.00  0.00    +0.023 A 
ENDBRANCH  26  31
ENDBRANCH  19  20
ENDBRANCH   1  19
TORSDOF 7
