REMARK  Name = ZINC38932732
REMARK  7 active torsions:
REMARK  status: ('A' for Active; 'I' for Inactive)
REMARK    1  A    between atoms: C_4  and  C_7
REMARK    2  A    between atoms: N_9  and  C_10
REMARK    3  A    between atoms: C_10  and  C_12
REMARK    4  A    between atoms: C_10  and  C_24
REMARK    5  A    between atoms: N_26  and  N_27
REMARK    6  A    between atoms: C_28  and  C_29
REMARK    7  A    between atoms: C_32  and  N_34
REMARK                            x       y       z     vdW  Elec       q    Type
REMARK                         _______ _______ _______ _____ _____    ______ ____
ROOT
ATOM      1  C   UNL     1       4.996  -2.741  -0.063  0.00  0.00    +0.189 C 
ENDROOT
BRANCH   1   2
ATOM      2  C   UNL     1       4.905  -3.012   1.440  0.00  0.00    +0.156 C 
ATOM      3  C   UNL     1       5.463  -1.808   2.162  0.00  0.00    -0.009 A 
ATOM      4  C   UNL     1       6.739  -1.351   1.960  0.00  0.00    +0.006 A 
ATOM      5  C   UNL     1       7.185  -0.238   2.659  0.00  0.00    +0.000 A 
ATOM      6  C   UNL     1       6.351   0.408   3.554  0.00  0.00    +0.001 A 
ATOM      7  C   UNL     1       5.063  -0.045   3.765  0.00  0.00    +0.013 A 
ATOM      8  C   UNL     1       4.609  -1.161   3.067  0.00  0.00    +0.045 A 
ATOM      9  C   UNL     1       3.247  -1.698   3.242  0.00  0.00    +0.283 C 
ATOM     10  O   UNL     1       2.486  -1.158   4.019  0.00  0.00    -0.267 OA
ATOM     11  N   UNL     1       2.837  -2.776   2.556  0.00  0.00    -0.105 NA
ATOM     12  N   UNL     1       3.521  -3.399   1.746  0.00  0.00    -0.305 N 
ATOM     13  H   UNL     1       3.135  -4.168   1.297  0.00  0.00    +0.181 HD
ENDBRANCH   1   2
BRANCH   1  16
ATOM     14  C   UNL     1       4.266  -0.431  -0.320  0.00  0.00    +0.245 C 
ATOM     15  O   UNL     1       5.348  -0.073   0.105  0.00  0.00    -0.270 OA
ATOM     16  N   UNL     1       3.991  -1.745  -0.442  0.00  0.00    -0.298 N 
ATOM     17  H   UNL     1       3.128  -2.030  -0.780  0.00  0.00    +0.150 HD
BRANCH  14  21
ATOM     18  C   UNL     1       1.353   2.459  -1.417  0.00  0.00    +0.000 A 
ATOM     19  C   UNL     1       2.583   2.870  -0.934  0.00  0.00    +0.001 A 
ATOM     20  C   UNL     1       3.533   1.936  -0.576  0.00  0.00    +0.013 A 
ATOM     21  C   UNL     1       3.252   0.575  -0.701  0.00  0.00    +0.037 A 
ATOM     22  C   UNL     1       2.009   0.167  -1.189  0.00  0.00    +0.013 A 
ATOM     23  C   UNL     1       1.068   1.111  -1.544  0.00  0.00    +0.001 A 
ENDBRANCH  14  21
ENDBRANCH   1  16
BRANCH   1  24
ATOM     24  C   UNL     1       4.745  -4.020  -0.820  0.00  0.00    +0.255 C 
ATOM     25  O   UNL     1       3.664  -4.225  -1.318  0.00  0.00    -0.272 OA
ATOM     26  N   UNL     1       5.727  -4.935  -0.941  0.00  0.00    -0.205 N 
ATOM     27  H   UNL     1       6.571  -4.805  -0.481  0.00  0.00    +0.177 HD
BRANCH  26  28
ATOM     28  N   UNL     1       5.545  -5.984  -1.669  0.00  0.00    -0.187 NA
ATOM     29  C   UNL     1       6.552  -6.842  -1.872  0.00  0.00    +0.145 C 
BRANCH  29  30
ATOM     30  C   UNL     1       6.389  -7.908  -2.734  0.00  0.00    +0.034 A 
ATOM     31  C   UNL     1       7.354  -8.973  -3.100  0.00  0.00    +0.019 A 
ATOM     32  C   UNL     1       6.883  -9.869  -3.969  0.00  0.00    +0.041 A 
ATOM     33  C   UNL     1       5.570  -9.741  -4.448  0.00  0.00    +0.164 A 
ATOM     34  S   UNL     1       4.958  -8.372  -3.692  0.00  0.00    -0.064 S 
BRANCH  33  35
ATOM     35  N   UNL     1       4.865 -10.636  -5.418  0.00  0.00    +0.063 N 
ATOM     36  O   UNL     1       5.488 -11.682  -5.920  0.00  0.00    -0.126 OA
ATOM     37  O   UNL     1       3.623 -10.377  -5.769  0.00  0.00    -0.126 OA
ENDBRANCH  33  35
ENDBRANCH  29  30
ENDBRANCH  26  28
ENDBRANCH   1  24
TORSDOF 7
