REMARK  Name = ZINC50891351
REMARK  8 active torsions:
REMARK  status: ('A' for Active; 'I' for Inactive)
REMARK    1  A    between atoms: C_1  and  C_2
REMARK    2  A    between atoms: C_2  and  C_3
REMARK    3  A    between atoms: C_3  and  C_4
REMARK    4  A    between atoms: C_4  and  C_5
REMARK    5  A    between atoms: C_5  and  C_7
REMARK    6  A    between atoms: C_5  and  N_8
REMARK    7  A    between atoms: N_8  and  S_9
REMARK    8  A    between atoms: S_9  and  C_12
REMARK                            x       y       z     vdW  Elec       q    Type
REMARK                         _______ _______ _______ _____ _____    ______ ____
ROOT
ATOM      1  S   UNL     1       3.651  -1.699  -3.872  0.00  0.00    +0.060 S 
ATOM      2  O   UNL     1       4.972  -1.333  -3.498  0.00  0.00    -0.153 OA
ATOM      3  O   UNL     1       3.385  -2.731  -4.812  0.00  0.00    -0.153 OA
ENDROOT
BRANCH   1   4
ATOM      4  C   UNL     1       2.881  -0.241  -4.492  0.00  0.00    +0.123 A 
ATOM      5  C   UNL     1       1.806  -0.334  -5.367  0.00  0.00    +0.033 A 
ATOM      6  C   UNL     1       1.230   0.835  -5.831  0.00  0.00    +0.045 A 
ATOM      7  C   UNL     1       1.743   2.057  -5.408  0.00  0.00    +0.116 A 
ATOM      8  N   UNL     1       2.769   2.103  -4.572  0.00  0.00    -0.239 NA
ATOM      9  C   UNL     1       3.335   1.004  -4.109  0.00  0.00    +0.141 A 
ATOM     10  N   UNL     1       1.174   3.239  -5.866  0.00  0.00    -0.343 N 
ATOM     11  H   UNL     1       0.422   3.210  -6.479  0.00  0.00    +0.144 HD
ATOM     12  H   UNL     1       1.528   4.093  -5.574  0.00  0.00    +0.144 HD
ENDBRANCH   1   4
BRANCH   1  13
ATOM     13  N   UNL     1       2.862  -2.114  -2.477  0.00  0.00    -0.187 NA
ATOM     14  H   UNL     1       3.331  -2.088  -1.628  0.00  0.00    +0.148 HD
BRANCH  13  15
ATOM     15  C   UNL     1       1.455  -2.521  -2.524  0.00  0.00    +0.073 C 
ATOM     16  C   UNL     1       1.367  -4.046  -2.596  0.00  0.00    +0.025 C 
BRANCH  15  17
ATOM     17  C   UNL     1       0.739  -2.027  -1.265  0.00  0.00    +0.020 C 
BRANCH  17  18
ATOM     18  C   UNL     1       0.718  -0.497  -1.257  0.00  0.00    +0.001 C 
BRANCH  18  20
ATOM     19  C   UNL     1      -0.019   1.526   0.010  0.00  0.00    +0.004 C 
ATOM     20  C   UNL     1       0.002  -0.004   0.002  0.00  0.00    -0.003 C 
ENDBRANCH  18  20
ENDBRANCH  17  18
ENDBRANCH  15  17
ENDBRANCH  13  15
ENDBRANCH   1  13
TORSDOF 6
