REMARK  Name = ZINC39973384
REMARK  7 active torsions:
REMARK  status: ('A' for Active; 'I' for Inactive)
REMARK    1  A    between atoms: C_1  and  C_2
REMARK    2  A    between atoms: C_2  and  C_3
REMARK    3  A    between atoms: C_2  and  C_4
REMARK    4  A    between atoms: C_2  and  C_5
REMARK    5  A    between atoms: C_11  and  N_13
REMARK    6  A    between atoms: N_13  and  S_14
REMARK    7  A    between atoms: S_14  and  C_17
REMARK                            x       y       z     vdW  Elec       q    Type
REMARK                         _______ _______ _______ _____ _____    ______ ____
ROOT
ATOM      1  N   UNL     1       2.714  -0.943  -0.671  0.00  0.00    -0.187 NA
ATOM      2  H   UNL     1       2.354  -1.772  -0.320  0.00  0.00    +0.148 HD
ENDROOT
BRANCH   1   8
ATOM      3  C   UNL     1       0.450  -0.243  -1.275  0.00  0.00    +0.013 C 
ATOM      4  C   UNL     1      -0.002  -1.704  -1.331  0.00  0.00    +0.005 C 
ATOM      5  C   UNL     1       0.220  -2.252  -2.742  0.00  0.00    +0.000 C 
ATOM      6  C   UNL     1       1.705  -2.163  -3.097  0.00  0.00    +0.002 C 
ATOM      7  C   UNL     1       2.157  -0.703  -3.041  0.00  0.00    +0.020 C 
ATOM      8  C   UNL     1       1.936  -0.154  -1.629  0.00  0.00    +0.080 C 
BRANCH   3  10
ATOM      9  C   UNL     1       0.831   1.708   0.239  0.00  0.00    +0.011 C 
ATOM     10  C   UNL     1       0.229   0.305   0.136  0.00  0.00    -0.033 C 
ATOM     11  C   UNL     1       0.906  -0.616   1.153  0.00  0.00    +0.011 C 
ATOM     12  C   UNL     1      -1.272   0.371   0.429  0.00  0.00    +0.011 C 
ENDBRANCH   3  10
ENDBRANCH   1   8
BRANCH   1  13
ATOM     13  S   UNL     1       4.210  -0.420  -0.189  0.00  0.00    +0.061 S 
ATOM     14  O   UNL     1       4.065   0.948   0.168  0.00  0.00    -0.153 OA
ATOM     15  O   UNL     1       4.709  -1.395   0.715  0.00  0.00    -0.153 OA
BRANCH  13  16
ATOM     16  C   UNL     1       5.258  -0.462  -1.605  0.00  0.00    +0.133 A 
ATOM     17  C   UNL     1       5.761   0.690  -2.107  0.00  0.00    +0.031 A 
ATOM     18  C   UNL     1       6.594   0.694  -3.226  0.00  0.00    +0.004 A 
ATOM     19  C   UNL     1       6.935  -0.453  -3.858  0.00  0.00    +0.031 A 
ATOM     20  C   UNL     1       6.444  -1.701  -3.387  0.00  0.00    +0.102 A 
ATOM     21  C   UNL     1       5.578  -1.706  -2.214  0.00  0.00    +0.126 A 
ATOM     22  N   UNL     1       5.182  -2.929  -1.859  0.00  0.00    -0.189 NA
ATOM     23  S   UNL     1       5.864  -3.930  -2.919  0.00  0.00    +0.117 S 
ATOM     24  N   UNL     1       6.671  -2.920  -3.877  0.00  0.00    -0.191 NA
ENDBRANCH  13  16
ENDBRANCH   1  13
TORSDOF 4
