REMARK  Name = ZINC57342599
REMARK  2 active torsions:
REMARK  status: ('A' for Active; 'I' for Inactive)
REMARK    1  A    between atoms: C_2  and  C_17
REMARK    2  A    between atoms: N_8  and  C_9
REMARK                            x       y       z     vdW  Elec       q    Type
REMARK                         _______ _______ _______ _____ _____    ______ ____
ROOT
ATOM      1  C   UNL     1      -0.016   1.360   0.009  0.00  0.00    +0.102 A 
ATOM      2  C   UNL     1       0.002  -0.004   0.002  0.00  0.00    +0.152 A 
ATOM      3  N   UNL     1       1.163  -0.656  -0.013  0.00  0.00    -0.212 NA
ATOM      4  C   UNL     1       2.312  -0.011  -0.020  0.00  0.00    +0.196 A 
ATOM      5  N   UNL     1       2.355   1.349  -0.013  0.00  0.00    -0.295 N 
ATOM      6  C   UNL     1       1.205   2.057   0.002  0.00  0.00    +0.253 A 
ATOM      7  O   UNL     1       1.226   3.276   0.008  0.00  0.00    -0.268 OA
ATOM      8  N   UNL     1       3.482  -0.721  -0.035  0.00  0.00    -0.312 N 
ATOM      9  H   UNL     1       3.209   1.809  -0.018  0.00  0.00    +0.172 HD
ATOM     10  H   UNL     1       4.332  -0.254  -0.041  0.00  0.00    +0.149 HD
ENDROOT
BRANCH   8  11
ATOM     11  C   UNL     1       3.450  -2.185  -0.043  0.00  0.00    +0.073 C 
ATOM     12  C   UNL     1       3.298  -2.685  -1.481  0.00  0.00    +0.022 C 
ATOM     13  C   UNL     1       3.659  -4.170  -1.546  0.00  0.00    +0.002 C 
ATOM     14  C   UNL     1       2.511  -5.000  -0.966  0.00  0.00    +0.000 C 
ATOM     15  C   UNL     1       2.528  -4.897   0.560  0.00  0.00    +0.000 C 
ATOM     16  C   UNL     1       3.964  -5.041   1.066  0.00  0.00    +0.000 C 
ATOM     17  C   UNL     1       4.427  -3.715   1.674  0.00  0.00    +0.002 C 
ATOM     18  C   UNL     1       4.751  -2.727   0.552  0.00  0.00    +0.022 C 
ENDBRANCH   8  11
BRANCH   2  19
ATOM     19  C   UNL     1      -1.293  -0.774   0.011  0.00  0.00    +0.434 C 
ATOM     20  F   UNL     1      -2.368   0.121   0.026  0.00  0.00    -0.164 F 
ATOM     21  F   UNL     1      -1.369  -1.573  -1.135  0.00  0.00    -0.164 F 
ATOM     22  F   UNL     1      -1.346  -1.585   1.149  0.00  0.00    -0.164 F 
ENDBRANCH   2  19
TORSDOF 2
