REMARK  Name = ZINC33250170
REMARK  6 active torsions:
REMARK  status: ('A' for Active; 'I' for Inactive)
REMARK    1  A    between atoms: C_1  and  C_2
REMARK    2  A    between atoms: C_3  and  C_28
REMARK    3  A    between atoms: C_4  and  C_21
REMARK    4  A    between atoms: C_8  and  C_11
REMARK    5  A    between atoms: N_13  and  C_14
REMARK    6  A    between atoms: N_30  and  C_31
REMARK                            x       y       z     vdW  Elec       q    Type
REMARK                         _______ _______ _______ _____ _____    ______ ____
ROOT
ATOM      1  C   UNL     1      -4.614   3.113   2.282  0.00  0.00    +0.061 C 
ATOM      2  C   UNL     1      -3.945   2.611   1.029  0.00  0.00    +0.017 C 
ATOM      3  C   UNL     1      -2.860   1.830   1.139  0.00  0.00    +0.060 C 
ATOM      4  C   UNL     1      -2.111   1.288  -0.048  0.00  0.00    +0.176 C 
ATOM      5  N   UNL     1      -2.904   1.491  -1.262  0.00  0.00    -0.238 N 
ATOM      6  C   UNL     1      -3.999   2.288  -1.304  0.00  0.00    +0.134 A 
ATOM      7  C   UNL     1      -4.490   2.255  -2.594  0.00  0.00    +0.096 A 
ATOM      8  C   UNL     1      -3.640   1.394  -3.333  0.00  0.00    +0.149 A 
ATOM      9  N   UNL     1      -2.709   0.950  -2.531  0.00  0.00    -0.176 NA
ATOM     10  N   UNL     1      -4.465   2.967  -0.192  0.00  0.00    -0.302 N 
ATOM     11  H   UNL     1      -5.220   3.764  -0.257  0.00  0.00    +0.153 HD
ENDROOT
BRANCH   4  12
ATOM     12  C   UNL     1      -0.794   2.007  -0.182  0.00  0.00    -0.018 A 
ATOM     13  C   UNL     1       0.391   1.298  -0.116  0.00  0.00    +0.009 A 
ATOM     14  C   UNL     1       1.599   1.956  -0.244  0.00  0.00    +0.039 A 
ATOM     15  C   UNL     1       1.624   3.327  -0.433  0.00  0.00    +0.123 A 
ATOM     16  C   UNL     1       0.437   4.037  -0.494  0.00  0.00    +0.039 A 
ATOM     17  C   UNL     1      -0.770   3.377  -0.366  0.00  0.00    +0.009 A 
ATOM     18  F   UNL     1       2.804   3.971  -0.559  0.00  0.00    -0.205 F 
ENDBRANCH   4  12
BRANCH   7  19
ATOM     19  C   UNL     1      -5.666   2.972  -3.102  0.00  0.00    +0.253 C 
ATOM     20  O   UNL     1      -6.314   3.683  -2.358  0.00  0.00    -0.270 OA
ATOM     21  N   UNL     1      -6.028   2.841  -4.394  0.00  0.00    -0.281 N 
ATOM     22  H   UNL     1      -5.397   2.266  -5.087  0.00  0.00    +0.155 HD
BRANCH  21  23
ATOM     23  C   UNL     1      -7.207   3.438  -4.853  0.00  0.00    +0.034 A 
ATOM     24  C   UNL     1      -8.309   3.539  -4.014  0.00  0.00    +0.023 A 
ATOM     25  C   UNL     1      -9.470   4.132  -4.469  0.00  0.00    +0.002 A 
ATOM     26  C   UNL     1      -9.540   4.617  -5.762  0.00  0.00    +0.000 A 
ATOM     27  C   UNL     1      -8.446   4.513  -6.602  0.00  0.00    +0.002 A 
ATOM     28  C   UNL     1      -7.281   3.925  -6.152  0.00  0.00    +0.023 A 
ENDBRANCH  21  23
ENDBRANCH   7  19
BRANCH   3  29
ATOM     29  C   UNL     1      -2.398   1.500   2.434  0.00  0.00    +0.248 C 
ATOM     30  O   UNL     1      -2.982   1.923   3.416  0.00  0.00    -0.270 OA
ATOM     31  N   UNL     1      -1.311   0.717   2.583  0.00  0.00    -0.282 N 
ATOM     32  H   UNL     1      -0.740   0.396   1.699  0.00  0.00    +0.155 HD
BRANCH  31  33
ATOM     33  C   UNL     1      -0.909   0.313   3.860  0.00  0.00    +0.034 A 
ATOM     34  C   UNL     1      -1.055   1.174   4.940  0.00  0.00    +0.023 A 
ATOM     35  C   UNL     1      -0.662   0.771   6.201  0.00  0.00    +0.002 A 
ATOM     36  C   UNL     1      -0.114  -0.485   6.387  0.00  0.00    +0.000 A 
ATOM     37  C   UNL     1       0.038  -1.343   5.313  0.00  0.00    +0.002 A 
ATOM     38  C   UNL     1      -0.358  -0.947   4.050  0.00  0.00    +0.023 A 
ENDBRANCH  31  33
ENDBRANCH   3  29
TORSDOF 5
