REMARK  Name = ZINC21090061
REMARK  9 active torsions:
REMARK  status: ('A' for Active; 'I' for Inactive)
REMARK    1  A    between atoms: C_1  and  C_2
REMARK    2  A    between atoms: C_2  and  C_3
REMARK    3  A    between atoms: C_2  and  C_4
REMARK    4  A    between atoms: C_4  and  C_5
REMARK    5  A    between atoms: C_5  and  C_7
REMARK    6  A    between atoms: C_5  and  N_18
REMARK    7  A    between atoms: N_9  and  C_10
REMARK    8  A    between atoms: N_18  and  S_19
REMARK    9  A    between atoms: S_19  and  C_22
REMARK                            x       y       z     vdW  Elec       q    Type
REMARK                         _______ _______ _______ _____ _____    ______ ____
ROOT
ATOM      1  C   UNL     1      -1.381   2.002  -0.154  0.00  0.00    +0.162 C 
ENDROOT
BRANCH   1   2
ATOM      2  C   UNL     1      -0.082   1.277  -0.395  0.00  0.00    +0.232 C 
ATOM      3  O   UNL     1       0.051   0.131  -0.022  0.00  0.00    -0.274 OA
ATOM      4  N   UNL     1       0.930   1.901  -1.030  0.00  0.00    -0.311 N 
ATOM      5  H   UNL     1       0.793   2.923  -1.412  0.00  0.00    +0.149 HD
BRANCH   4   6
ATOM      6  C   UNL     1       2.213   1.217  -1.212  0.00  0.00    +0.073 C 
ATOM      7  C   UNL     1       3.075   1.408   0.038  0.00  0.00    +0.022 C 
ATOM      8  C   UNL     1       4.220   0.393   0.028  0.00  0.00    +0.002 C 
ATOM      9  C   UNL     1       3.682  -0.980  -0.381  0.00  0.00    +0.000 C 
ATOM     10  C   UNL     1       4.261  -1.369  -1.743  0.00  0.00    +0.000 C 
ATOM     11  C   UNL     1       3.545  -0.583  -2.843  0.00  0.00    +0.000 C 
ATOM     12  C   UNL     1       4.059   0.858  -2.857  0.00  0.00    +0.002 C 
ATOM     13  C   UNL     1       2.937   1.805  -2.425  0.00  0.00    +0.022 C 
ENDBRANCH   4   6
ENDBRANCH   1   2
BRANCH   1  14
ATOM     14  N   UNL     1      -2.405   1.042   0.266  0.00  0.00    -0.178 NA
ATOM     15  H   UNL     1      -2.111   0.111   0.773  0.00  0.00    +0.149 HD
BRANCH  14  16
ATOM     16  S   UNL     1      -3.972   1.232  -0.235  0.00  0.00    +0.059 S 
ATOM     17  O   UNL     1      -4.699   0.124   0.279  0.00  0.00    -0.153 OA
ATOM     18  O   UNL     1      -4.330   2.577   0.050  0.00  0.00    -0.153 OA
BRANCH  16  19
ATOM     19  C   UNL     1      -3.981   1.069  -1.990  0.00  0.00    +0.106 A 
ATOM     20  C   UNL     1      -4.163  -0.181  -2.564  0.00  0.00    +0.030 A 
ATOM     21  C   UNL     1      -4.173  -0.332  -3.934  0.00  0.00    +0.028 A 
ATOM     22  C   UNL     1      -4.000   0.780  -4.752  0.00  0.00    +0.049 A 
ATOM     23  C   UNL     1      -3.815   2.047  -4.166  0.00  0.00    +0.000 A 
ATOM     24  C   UNL     1      -3.814   2.176  -2.773  0.00  0.00    +0.038 A 
ATOM     25  C   UNL     1      -3.633   3.211  -5.035  0.00  0.00    +0.015 A 
ATOM     26  C   UNL     1      -3.649   3.026  -6.378  0.00  0.00    +0.071 A 
ATOM     27  C   UNL     1      -3.838   1.734  -6.915  0.00  0.00    +0.249 A 
ATOM     28  O   UNL     1      -3.849   1.590  -8.125  0.00  0.00    -0.268 OA
ATOM     29  N   UNL     1      -4.006   0.659  -6.125  0.00  0.00    -0.322 N 
ATOM     30  H   UNL     1      -4.151  -0.328  -6.589  0.00  0.00    +0.169 HD
ENDBRANCH  16  19
ENDBRANCH  14  16
ENDBRANCH   1  14
BRANCH   1  31
ATOM     31  C   UNL     1      -1.183   3.050   0.943  0.00  0.00    +0.032 C 
BRANCH  31  33
ATOM     32  C   UNL     1      -0.695   4.868  -0.700  0.00  0.00    +0.007 C 
ATOM     33  C   UNL     1      -0.143   4.076   0.488  0.00  0.00    -0.015 C 
ATOM     34  C   UNL     1       0.167   5.033   1.640  0.00  0.00    +0.007 C 
ENDBRANCH  31  33
ENDBRANCH   1  31
TORSDOF 7
