REMARK  Name = ZINC04708660
REMARK  9 active torsions:
REMARK  status: ('A' for Active; 'I' for Inactive)
REMARK    1  A    between atoms: C_1  and  C_2
REMARK    2  A    between atoms: C_5  and  C_8
REMARK    3  A    between atoms: C_8  and  S_9
REMARK    4  A    between atoms: S_9  and  C_10
REMARK    5  A    between atoms: C_10  and  C_11
REMARK    6  A    between atoms: C_14  and  C_16
REMARK    7  A    between atoms: N_18  and  C_19
REMARK    8  A    between atoms: C_24  and  C_29
REMARK    9  A    between atoms: C_26  and  C_28
REMARK                            x       y       z     vdW  Elec       q    Type
REMARK                         _______ _______ _______ _____ _____    ______ ____
ROOT
ATOM      1  C   UNL     1      -2.869   3.796  -4.372  0.00  0.00    +0.116 A 
ATOM      2  C   UNL     1      -3.194   4.960  -3.766  0.00  0.00    +0.046 A 
ATOM      3  C   UNL     1      -2.660   4.912  -2.469  0.00  0.00    +0.055 A 
ATOM      4  C   UNL     1      -2.022   3.711  -2.351  0.00  0.00    +0.189 A 
ATOM      5  O   UNL     1      -2.163   3.047  -3.516  0.00  0.00    -0.454 OA
ENDROOT
BRANCH   4   6
ATOM      6  C   UNL     1      -1.312   3.225  -1.163  0.00  0.00    +0.280 C 
ATOM      7  O   UNL     1      -1.252   3.918  -0.164  0.00  0.00    -0.267 OA
ATOM      8  N   UNL     1      -0.727   2.011  -1.176  0.00  0.00    -0.306 N 
ATOM      9  H   UNL     1      -0.775   1.459  -1.972  0.00  0.00    +0.149 HD
BRANCH   8  10
ATOM     10  C   UNL     1      -0.019   1.526   0.010  0.00  0.00    +0.076 C 
ATOM     11  C   UNL     1       1.417   2.055  -0.000  0.00  0.00    +0.022 C 
ATOM     12  C   UNL     1       2.157   1.548   1.239  0.00  0.00    +0.002 C 
ATOM     13  C   UNL     1       2.178   0.019   1.231  0.00  0.00    +0.003 C 
ATOM     14  C   UNL     1       0.742  -0.511   1.242  0.00  0.00    -0.009 C 
ATOM     15  C   UNL     1       0.002  -0.004   0.002  0.00  0.00    +0.009 C 
ATOM     16  C   UNL     1       0.718  -0.497  -1.257  0.00  0.00    +0.009 C 
ATOM     17  C   UNL     1       0.763  -2.041   1.233  0.00  0.00    +0.008 C 
ENDBRANCH   8  10
ENDBRANCH   4   6
BRANCH   1  18
ATOM     18  C   UNL     1      -3.241   3.407  -5.780  0.00  0.00    +0.143 C 
BRANCH  18  19
ATOM     19  S   UNL     1      -1.943   3.956  -6.922  0.00  0.00    -0.148 S 
BRANCH  19  20
ATOM     20  C   UNL     1      -2.535   3.418  -8.550  0.00  0.00    +0.104 C 
BRANCH  20  25
ATOM     21  C   UNL     1       1.299   4.949 -12.595  0.00  0.00    +0.044 C 
ATOM     22  C   UNL     1       0.298   4.549 -11.540  0.00  0.00    -0.050 A 
ATOM     23  C   UNL     1       0.406   3.321 -10.916  0.00  0.00    +0.003 A 
ATOM     24  C   UNL     1      -0.511   2.954  -9.949  0.00  0.00    +0.005 A 
ATOM     25  C   UNL     1      -1.535   3.817  -9.605  0.00  0.00    -0.038 A 
ATOM     26  C   UNL     1      -1.645   5.044 -10.233  0.00  0.00    +0.005 A 
ATOM     27  C   UNL     1      -0.726   5.412 -11.197  0.00  0.00    +0.003 A 
ENDBRANCH  20  25
ENDBRANCH  19  20
ENDBRANCH  18  19
ENDBRANCH   1  18
TORSDOF 6
