REMARK  Name = ZINC39965070
REMARK  10 active torsions:
REMARK  status: ('A' for Active; 'I' for Inactive)
REMARK    1  A    between atoms: C_1  and  C_2
REMARK    2  A    between atoms: C_2  and  C_3
REMARK    3  A    between atoms: C_2  and  C_4
REMARK    4  A    between atoms: C_2  and  C_5
REMARK    5  A    between atoms: C_8  and  S_11
REMARK    6  A    between atoms: S_11  and  N_14
REMARK    7  A    between atoms: N_17  and  C_20
REMARK    8  A    between atoms: C_20  and  C_21
REMARK    9  A    between atoms: N_23  and  C_24
REMARK   10  A    between atoms: C_25  and  C_35
REMARK                            x       y       z     vdW  Elec       q    Type
REMARK                         _______ _______ _______ _____ _____    ______ ____
ROOT
ATOM      1  N   UNL     1       2.580  -0.816  -6.143  0.00  0.00    -0.174 NA
ATOM      2  C   UNL     1       1.415  -0.899  -7.038  0.00  0.00    +0.125 C 
ATOM      3  C   UNL     1       0.701   0.456  -7.033  0.00  0.00    +0.102 C 
ATOM      4  N   UNL     1       1.664   1.515  -7.364  0.00  0.00    -0.291 NA
ATOM      5  C   UNL     1       2.722   1.609  -6.349  0.00  0.00    +0.102 C 
ATOM      6  C   UNL     1       3.516   0.304  -6.321  0.00  0.00    +0.125 C 
ENDROOT
BRANCH   1   7
ATOM      7  S   UNL     1       2.826  -1.950  -4.962  0.00  0.00    +0.061 S 
ATOM      8  O   UNL     1       4.217  -1.937  -4.669  0.00  0.00    -0.153 OA
ATOM      9  O   UNL     1       2.148  -3.127  -5.380  0.00  0.00    -0.153 OA
BRANCH   7  13
ATOM     10  C   UNL     1       0.707  -0.490  -1.238  0.00  0.00    -0.042 A 
ATOM     11  C   UNL     1       0.036  -1.284  -2.148  0.00  0.00    +0.006 A 
ATOM     12  C   UNL     1       0.683  -1.730  -3.286  0.00  0.00    +0.029 A 
ATOM     13  C   UNL     1       2.001  -1.381  -3.513  0.00  0.00    +0.105 A 
ATOM     14  C   UNL     1       2.672  -0.586  -2.603  0.00  0.00    +0.029 A 
ATOM     15  C   UNL     1       2.024  -0.137  -1.467  0.00  0.00    +0.006 A 
BRANCH  10  17
ATOM     16  C   UNL     1      -0.019   1.526   0.010  0.00  0.00    +0.015 C 
ATOM     17  C   UNL     1       0.002  -0.004   0.002  0.00  0.00    -0.013 C 
ATOM     18  C   UNL     1       0.742  -0.511   1.242  0.00  0.00    +0.015 C 
ATOM     19  C   UNL     1      -1.433  -0.534   0.013  0.00  0.00    +0.015 C 
ENDBRANCH  10  17
ENDBRANCH   7  13
ENDBRANCH   1   7
BRANCH   4  20
ATOM     20  C   UNL     1       0.986   2.807  -7.539  0.00  0.00    +0.180 C 
BRANCH  20  21
ATOM     21  C   UNL     1       1.955   3.809  -8.112  0.00  0.00    +0.232 C 
ATOM     22  O   UNL     1       3.098   3.479  -8.351  0.00  0.00    -0.274 OA
ATOM     23  N   UNL     1       1.552   5.071  -8.358  0.00  0.00    -0.278 N 
ATOM     24  H   UNL     1       0.639   5.335  -8.167  0.00  0.00    +0.155 HD
BRANCH  23  25
ATOM     25  C   UNL     1       2.445   5.994  -8.886  0.00  0.00    +0.090 A 
ATOM     26  C   UNL     1       2.215   7.318  -9.195  0.00  0.00    +0.084 A 
ATOM     27  C   UNL     1       3.324   8.099  -9.752  0.00  0.00    -0.018 A 
ATOM     28  C   UNL     1       4.446   7.373  -9.912  0.00  0.00    -0.004 A 
ATOM     29  S   UNL     1       4.056   5.759  -9.290  0.00  0.00    -0.077 S 
ATOM     30  C   UNL     1       5.747   7.793 -10.535  0.00  0.00    +0.043 C 
ATOM     31  C   UNL     1       5.555   7.748 -12.062  0.00  0.00    +0.005 C 
ATOM     32  C   UNL     1       4.329   8.597 -12.416  0.00  0.00    +0.000 C 
ATOM     33  C   UNL     1       4.666  10.006 -11.973  0.00  0.00    +0.000 C 
ATOM     34  C   UNL     1       4.406  10.265 -10.500  0.00  0.00    +0.005 C 
ATOM     35  C   UNL     1       3.128   9.589 -10.017  0.00  0.00    +0.037 C 
BRANCH  26  36
ATOM     36  C   UNL     1       0.930   7.912  -8.979  0.00  0.00    +0.102 C 
ATOM     37  N   UNL     1      -0.089   8.383  -8.808  0.00  0.00    -0.191 NA
ENDBRANCH  26  36
ENDBRANCH  23  25
ENDBRANCH  20  21
ENDBRANCH   4  20
TORSDOF 7
