REMARK  Name = ZINC14719204
REMARK  5 active torsions:
REMARK  status: ('A' for Active; 'I' for Inactive)
REMARK    1  A    between atoms: C_6  and  C_7
REMARK    2  A    between atoms: N_11  and  C_15
REMARK    3  A    between atoms: C_15  and  C_16
REMARK    4  A    between atoms: C_16  and  N_17
REMARK    5  A    between atoms: C_18  and  C_20
REMARK                            x       y       z     vdW  Elec       q    Type
REMARK                         _______ _______ _______ _____ _____    ______ ____
ROOT
ATOM      1  C   UNL     1       4.787   5.907  -2.103  0.00  0.00    +0.028 C 
ATOM      2  C   UNL     1       3.833   5.713  -1.157  0.00  0.00    +0.080 C 
ATOM      3  C   UNL     1       2.513   5.062  -1.271  0.00  0.00    +0.260 C 
ATOM      4  O   UNL     1       2.120   4.593  -2.323  0.00  0.00    -0.269 OA
ATOM      5  N   UNL     1       1.780   5.013  -0.171  0.00  0.00    -0.227 N 
ATOM      6  C   UNL     1       2.218   5.537   0.992  0.00  0.00    +0.286 C 
ATOM      7  O   UNL     1       1.651   5.566   2.067  0.00  0.00    -0.262 OA
ATOM      8  S   UNL     1       3.830   6.176   0.570  0.00  0.00    -0.026 S 
ENDROOT
BRANCH   1  14
ATOM      9  C   UNL     1       6.017   7.471  -0.613  0.00  0.00    +0.012 A 
ATOM     10  C   UNL     1       7.125   8.240  -0.331  0.00  0.00    +0.050 A 
ATOM     11  C   UNL     1       8.183   8.298  -1.228  0.00  0.00    +0.166 A 
ATOM     12  C   UNL     1       8.134   7.570  -2.418  0.00  0.00    +0.167 A 
ATOM     13  C   UNL     1       7.031   6.792  -2.706  0.00  0.00    +0.057 A 
ATOM     14  C   UNL     1       5.963   6.734  -1.802  0.00  0.00    -0.020 A 
ATOM     15  O   UNL     1       9.286   7.797  -3.115  0.00  0.00    -0.453 OA
ATOM     16  C   UNL     1       9.857   8.985  -2.536  0.00  0.00    +0.466 C 
ATOM     17  O   UNL     1       9.366   8.977  -1.183  0.00  0.00    -0.453 OA
ENDBRANCH   1  14
BRANCH   5  18
ATOM     18  C   UNL     1       0.460   4.379  -0.219  0.00  0.00    +0.136 C 
BRANCH  18  19
ATOM     19  C   UNL     1       0.597   2.890   0.105  0.00  0.00    +0.123 C 
BRANCH  19  20
ATOM     20  N   UNL     1      -0.724   2.257   0.058  0.00  0.00    -0.313 N 
ATOM     21  C   UNL     1      -0.848   0.939   0.311  0.00  0.00    +0.219 C 
ATOM     22  O   UNL     1       0.132   0.278   0.579  0.00  0.00    -0.275 OA
ATOM     23  H   UNL     1      -1.613   2.857  -0.186  0.00  0.00    +0.149 HD
BRANCH  21  24
ATOM     24  C   UNL     1      -2.206   0.288   0.262  0.00  0.00    +0.049 C 
ATOM     25  C   UNL     1      -2.801   0.452  -1.138  0.00  0.00    +0.019 C 
ATOM     26  C   UNL     1      -4.179  -0.209  -1.188  0.00  0.00    -0.008 C 
ATOM     27  C   UNL     1      -4.043  -1.698  -0.864  0.00  0.00    +0.007 C 
ATOM     28  C   UNL     1      -3.448  -1.863   0.537  0.00  0.00    -0.008 C 
ATOM     29  C   UNL     1      -2.070  -1.201   0.587  0.00  0.00    +0.019 C 
ATOM     30  C   UNL     1      -4.370  -1.200   1.563  0.00  0.00    +0.026 C 
ATOM     31  C   UNL     1      -4.506   0.289   1.238  0.00  0.00    +0.047 C 
ATOM     32  C   UNL     1      -5.101   0.454  -0.162  0.00  0.00    +0.026 C 
ATOM     33  C   UNL     1      -3.127   0.951   1.288  0.00  0.00    +0.039 C 
ATOM     34 CL   UNL     1      -5.592   1.070   2.448  0.00  0.00    -0.118 Cl
ENDBRANCH  21  24
ENDBRANCH  19  20
ENDBRANCH  18  19
ENDBRANCH   5  18
TORSDOF 5
