REMARK  Name = ZINC32608112
REMARK  3 active torsions:
REMARK  status: ('A' for Active; 'I' for Inactive)
REMARK    1  A    between atoms: C_1  and  C_2
REMARK    2  A    between atoms: C_3  and  C_23
REMARK    3  A    between atoms: C_8  and  C_10
REMARK                            x       y       z     vdW  Elec       q    Type
REMARK                         _______ _______ _______ _____ _____    ______ ____
ROOT
ATOM      1  C   UNL     1      -0.042  -3.335   4.585  0.00  0.00    +0.100 A 
ATOM      2  C   UNL     1      -0.152  -2.853   5.872  0.00  0.00    +0.100 A 
ATOM      3  N   UNL     1      -0.240  -3.665   6.934  0.00  0.00    -0.360 N 
ATOM      4  C   UNL     1      -0.226  -5.039   6.826  0.00  0.00    +0.056 A 
ATOM      5  C   UNL     1      -0.320  -5.838   7.961  0.00  0.00    +0.064 A 
ATOM      6  C   UNL     1      -0.305  -7.213   7.841  0.00  0.00    +0.128 A 
ATOM      7  C   UNL     1      -0.198  -7.816   6.593  0.00  0.00    +0.077 A 
ATOM      8  C   UNL     1      -0.103  -7.043   5.455  0.00  0.00    +0.139 A 
ATOM      9  C   UNL     1      -0.117  -5.649   5.564  0.00  0.00    +0.081 A 
ATOM     10  C   UNL     1      -0.026  -4.792   4.370  0.00  0.00    +0.204 A 
ATOM     11  O   UNL     1       0.064  -5.267   3.252  0.00  0.00    -0.286 OA
ATOM     12  F   UNL     1       0.003  -7.629   4.242  0.00  0.00    -0.205 F 
ATOM     13  F   UNL     1      -0.397  -7.982   8.948  0.00  0.00    -0.205 F 
ATOM     14  H   UNL     1      -0.316  -3.269   7.817  0.00  0.00    +0.165 HD
ENDROOT
BRANCH   1  22
ATOM     15  C   UNL     1      -0.029   1.505   0.013  0.00  0.00    +0.066 C 
ATOM     16  C   UNL     1      -0.010  -0.002   0.004  0.00  0.00    +0.050 A 
ATOM     17  C   UNL     1      -0.012  -0.702  -1.157  0.00  0.00    +0.011 A 
ATOM     18  S   UNL     1       0.015  -2.376  -0.535  0.00  0.00    -0.057 S 
ATOM     19  C   UNL     1       0.025  -2.013   1.109  0.00  0.00    +0.165 A 
ATOM     20  N   UNL     1       0.014  -0.698   1.125  0.00  0.00    -0.230 NA
ATOM     21  N   UNL     1       0.046  -2.890   2.186  0.00  0.00    -0.261 N 
ATOM     22  C   UNL     1       0.051  -2.410   3.445  0.00  0.00    +0.255 C 
ATOM     23  O   UNL     1       0.134  -1.212   3.639  0.00  0.00    -0.270 OA
ATOM     24  C   UNL     1      -0.032  -0.206  -2.579  0.00  0.00    +0.053 C 
ATOM     25  H   UNL     1       0.056  -3.848   2.032  0.00  0.00    +0.157 HD
ENDBRANCH   1  22
TORSDOF 1
