REMARK  Name = ZINC65533319
REMARK  5 active torsions:
REMARK  status: ('A' for Active; 'I' for Inactive)
REMARK    1  A    between atoms: C_1  and  C_2
REMARK    2  A    between atoms: C_7  and  C_11
REMARK    3  A    between atoms: C_11  and  N_12
REMARK    4  A    between atoms: C_13  and  C_15
REMARK    5  A    between atoms: C_18  and  C_20
REMARK                            x       y       z     vdW  Elec       q    Type
REMARK                         _______ _______ _______ _____ _____    ______ ____
ROOT
ATOM      1  N   UNL     1       1.469  -5.880   2.655  0.00  0.00    -0.303 N 
ATOM      2  C   UNL     1       1.732  -7.014   3.335  0.00  0.00    +0.280 C 
ATOM      3  O   UNL     1       0.821  -7.751   3.665  0.00  0.00    -0.267 OA
ATOM      4  H   UNL     1       2.195  -5.293   2.393  0.00  0.00    +0.149 HD
ENDROOT
BRANCH   2   5
ATOM      5  C   UNL     1       3.114  -7.358   3.678  0.00  0.00    +0.190 A 
ATOM      6  C   UNL     1       3.522  -8.483   4.362  0.00  0.00    +0.055 A 
ATOM      7  C   UNL     1       4.914  -8.409   4.467  0.00  0.00    +0.050 A 
ATOM      8  C   UNL     1       5.302  -7.254   3.850  0.00  0.00    +0.136 A 
ATOM      9  O   UNL     1       4.211  -6.632   3.374  0.00  0.00    -0.450 OA
BRANCH   8  10
ATOM     10  C   UNL     1       6.692  -6.771   3.723  0.00  0.00    +0.017 A 
ATOM     11  C   UNL     1       7.746  -7.518   4.254  0.00  0.00    +0.013 A 
ATOM     12  C   UNL     1       9.041  -7.062   4.132  0.00  0.00    +0.021 A 
ATOM     13  C   UNL     1       9.299  -5.866   3.484  0.00  0.00    +0.041 A 
ATOM     14  C   UNL     1       8.259  -5.120   2.955  0.00  0.00    +0.021 A 
ATOM     15  C   UNL     1       6.959  -5.568   3.066  0.00  0.00    +0.013 A 
ATOM     16 CL   UNL     1      10.933  -5.298   3.334  0.00  0.00    -0.084 Cl
ENDBRANCH   8  10
ENDBRANCH   2   5
BRANCH   1  17
ATOM     17  C   UNL     1       0.087  -5.536   2.312  0.00  0.00    +0.159 C 
BRANCH  17  24
ATOM     18  C   UNL     1      -0.018   1.503   0.010  0.00  0.00    +0.044 C 
ATOM     19  C   UNL     1       0.002  -0.004   0.002  0.00  0.00    -0.046 A 
ATOM     20  C   UNL     1       0.006  -0.703  -1.216  0.00  0.00    +0.021 A 
ATOM     21  C   UNL     1       0.025  -2.052  -1.227  0.00  0.00    +0.093 A 
ATOM     22  N   UNL     1       0.040  -2.757  -0.058  0.00  0.00    -0.308 N 
ATOM     23  C   UNL     1       0.059  -4.097   0.214  0.00  0.00    +0.115 A 
ATOM     24  C   UNL     1       0.067  -4.231   1.559  0.00  0.00    +0.051 A 
ATOM     25  N   UNL     1       0.053  -3.014   2.108  0.00  0.00    -0.342 N 
ATOM     26  C   UNL     1       0.036  -2.103   1.146  0.00  0.00    +0.116 A 
ATOM     27  C   UNL     1       0.023  -0.694   1.174  0.00  0.00    +0.048 A 
ATOM     28  H   UNL     1       0.055  -2.827   3.060  0.00  0.00    +0.167 HD
ENDBRANCH  17  24
ENDBRANCH   1  17
TORSDOF 4
