REMARK  Name = ZINC11511191
REMARK  10 active torsions:
REMARK  status: ('A' for Active; 'I' for Inactive)
REMARK    1  A    between atoms: C_1  and  C_2
REMARK    2  A    between atoms: C_2  and  C_3
REMARK    3  A    between atoms: C_3  and  C_5
REMARK    4  A    between atoms: C_3  and  N_6
REMARK    5  A    between atoms: C_7  and  C_9
REMARK    6  A    between atoms: C_9  and  S_10
REMARK    7  A    between atoms: S_10  and  C_11
REMARK    8  A    between atoms: C_14  and  C_23
REMARK    9  A    between atoms: N_15  and  C_16
REMARK   10  A    between atoms: C_16  and  C_17
REMARK                            x       y       z     vdW  Elec       q    Type
REMARK                         _______ _______ _______ _____ _____    ______ ____
ROOT
ATOM      1  C   UNL     1      -3.717   1.512   2.188  0.00  0.00    +0.193 A 
ATOM      2  N   UNL     1      -3.836   0.911   3.350  0.00  0.00    -0.122 NA
ATOM      3  N   UNL     1      -3.180  -0.194   3.346  0.00  0.00    -0.125 NA
ATOM      4  C   UNL     1      -2.604  -0.370   2.177  0.00  0.00    +0.201 A 
ATOM      5  N   UNL     1      -2.927   0.722   1.401  0.00  0.00    -0.295 N 
ENDROOT
BRANCH   4   6
ATOM      6  C   UNL     1      -1.772  -1.514   1.775  0.00  0.00    +0.173 A 
ATOM      7  C   UNL     1      -1.218  -2.434   2.613  0.00  0.00    +0.054 A 
ATOM      8  C   UNL     1      -0.511  -3.345   1.805  0.00  0.00    +0.057 A 
ATOM      9  C   UNL     1      -0.657  -2.937   0.527  0.00  0.00    +0.171 A 
ATOM     10  O   UNL     1      -1.419  -1.831   0.513  0.00  0.00    -0.445 OA
ATOM     11 BR   UNL     1       0.087  -3.783  -0.991  0.00  0.00    -0.008 Br
ENDBRANCH   4   6
BRANCH   1  12
ATOM     12  S   UNL     1      -4.442   3.051   1.729  0.00  0.00    -0.077 S 
BRANCH  12  13
ATOM     13  C   UNL     1      -5.312   3.459   3.263  0.00  0.00    +0.173 C 
BRANCH  13  15
ATOM     14  N   UNL     1      -6.745   5.283   4.122  0.00  0.00    -0.312 N 
ATOM     15  C   UNL     1      -6.026   4.776   3.101  0.00  0.00    +0.224 C 
ATOM     16  O   UNL     1      -5.955   5.379   2.051  0.00  0.00    -0.275 OA
ATOM     17  H   UNL     1      -6.802   4.801   4.962  0.00  0.00    +0.149 HD
BRANCH  14  18
ATOM     18  C   UNL     1      -7.440   6.563   3.964  0.00  0.00    +0.070 C 
ATOM     19  C   UNL     1      -6.473   7.709   4.268  0.00  0.00    +0.028 C 
BRANCH  18  21
ATOM     20  C   UNL     1      -9.650   5.556   4.550  0.00  0.00    +0.005 C 
ATOM     21  C   UNL     1      -8.623   6.624   4.932  0.00  0.00    +0.018 C 
ENDBRANCH  18  21
ENDBRANCH  14  18
ENDBRANCH  13  15
ENDBRANCH  12  13
ENDBRANCH   1  12
BRANCH   5  22
ATOM     22  C   UNL     1      -2.514   0.980   0.019  0.00  0.00    +0.161 C 
BRANCH  22  23
ATOM     23  C   UNL     1      -1.219   1.751   0.017  0.00  0.00    -0.028 A 
ATOM     24  C   UNL     1      -0.013   1.076   0.008  0.00  0.00    +0.005 A 
ATOM     25  C   UNL     1       1.175   1.783   0.000  0.00  0.00    +0.000 A 
ATOM     26  C   UNL     1       1.156   3.165   0.008  0.00  0.00    +0.000 A 
ATOM     27  C   UNL     1      -0.050   3.840   0.022  0.00  0.00    +0.000 A 
ATOM     28  C   UNL     1      -1.238   3.133   0.030  0.00  0.00    +0.005 A 
ENDBRANCH  22  23
ENDBRANCH   5  22
TORSDOF 8
