REMARK  Name = ZINC35747311
REMARK  14 active torsions:
REMARK  status: ('A' for Active; 'I' for Inactive)
REMARK    1  A    between atoms: C_1  and  O_2
REMARK    2  A    between atoms: O_2  and  C_3
REMARK    3  A    between atoms: C_6  and  C_11
REMARK    4  A    between atoms: C_8  and  O_9
REMARK    5  A    between atoms: O_9  and  C_10
REMARK    6  A    between atoms: C_20  and  C_22
REMARK    7  A    between atoms: C_22  and  N_23
REMARK    8  A    between atoms: N_23  and  C_24
REMARK    9  A    between atoms: N_23  and  C_32
REMARK   10  A    between atoms: C_24  and  C_25
REMARK   11  A    between atoms: C_25  and  C_27
REMARK   12  A    between atoms: C_25  and  O_31
REMARK   13  A    between atoms: C_27  and  C_28
REMARK   14  A    between atoms: C_28  and  C_29
REMARK                            x       y       z     vdW  Elec       q    Type
REMARK                         _______ _______ _______ _____ _____    ______ ____
ROOT
ATOM      1  C   UNL     1      -4.252  -2.288   1.603  0.00  0.00    +0.004 A 
ATOM      2  C   UNL     1      -4.300  -3.066   0.494  0.00  0.00    +0.056 A 
ATOM      3  S   UNL     1      -6.028  -3.480   0.355  0.00  0.00    -0.076 S 
ATOM      4  C   UNL     1      -6.640  -2.608   1.773  0.00  0.00    +0.116 A 
ATOM      5  C   UNL     1      -5.489  -2.021   2.325  0.00  0.00    +0.080 A 
ATOM      6  C   UNL     1      -5.697  -1.244   3.510  0.00  0.00    +0.260 A 
ATOM      7  O   UNL     1      -4.759  -0.692   4.059  0.00  0.00    -0.267 OA
ATOM      8  N   UNL     1      -6.942  -1.133   4.007  0.00  0.00    -0.312 N 
ATOM      9  H   UNL     1      -7.089  -0.608   4.809  0.00  0.00    +0.170 HD
ATOM     10  C   UNL     1      -7.998  -1.741   3.407  0.00  0.00    +0.094 A 
ATOM     11  N   UNL     1      -7.842  -2.448   2.321  0.00  0.00    -0.229 NA
ENDROOT
BRANCH   1  15
ATOM     12  C   UNL     1      -0.558  -0.666   2.960  0.00  0.00    +0.162 A 
ATOM     13  C   UNL     1      -1.665   0.156   2.813  0.00  0.00    +0.050 A 
ATOM     14  C   UNL     1      -2.864  -0.367   2.373  0.00  0.00    +0.012 A 
ATOM     15  C   UNL     1      -2.964  -1.725   2.075  0.00  0.00    -0.013 A 
ATOM     16  C   UNL     1      -1.852  -2.553   2.222  0.00  0.00    +0.058 A 
ATOM     17  C   UNL     1      -0.651  -2.023   2.659  0.00  0.00    +0.162 A 
BRANCH  12  19
ATOM     18  C   UNL     1       0.646   1.252   3.685  0.00  0.00    +0.277 C 
ATOM     19  O   UNL     1       0.621  -0.147   3.394  0.00  0.00    -0.491 OA
ENDBRANCH  12  19
BRANCH  17  20
ATOM     20  O   UNL     1       0.436  -2.827   2.799  0.00  0.00    -0.491 OA
ATOM     21  C   UNL     1       0.269  -4.208   2.472  0.00  0.00    +0.277 C 
ENDBRANCH  17  20
ENDBRANCH   1  15
BRANCH  10  22
ATOM     22  C   UNL     1      -9.375  -1.587   4.000  0.00  0.00    -0.003 C 
BRANCH  22  23
ATOM     23  N   UNL     1     -10.345  -2.329   3.183  0.00  0.00    +0.388 N 
ATOM     24  H   UNL     1     -10.283  -2.020   2.224  0.00  0.00    -0.081 HD
BRANCH  23  25
ATOM     25  C   UNL     1     -10.049  -3.766   3.255  0.00  0.00    -0.068 C 
ATOM     26  C   UNL     1      -9.637  -4.468   1.959  0.00  0.00    -0.017 C 
ATOM     27  C   UNL     1     -11.021  -4.723   2.562  0.00  0.00    -0.017 C 
ENDBRANCH  23  25
BRANCH  23  28
ATOM     28  C   UNL     1     -11.702  -2.083   3.689  0.00  0.00    -0.046 C 
BRANCH  28  29
ATOM     29  C   UNL     1     -11.758  -2.418   5.181  0.00  0.00    +0.098 C 
BRANCH  29  30
ATOM     30  O   UNL     1     -11.510  -3.813   5.365  0.00  0.00    -0.394 OA
ATOM     31  H   UNL     1     -12.148  -4.388   4.919  0.00  0.00    +0.210 HD
ENDBRANCH  29  30
BRANCH  29  32
ATOM     32  C   UNL     1     -13.142  -2.069   5.731  0.00  0.00    +0.033 C 
BRANCH  32  33
ATOM     33  C   UNL     1     -13.160  -2.287   7.245  0.00  0.00    +0.029 C 
BRANCH  33  34
ATOM     34  C   UNL     1     -14.524  -1.943   7.786  0.00  0.00    -0.034 C 
ATOM     35  C   UNL     1     -15.189  -2.823   8.492  0.00  0.00    +0.004 C 
ENDBRANCH  33  34
ENDBRANCH  32  33
ENDBRANCH  29  32
ENDBRANCH  28  29
ENDBRANCH  23  28
ENDBRANCH  22  23
ENDBRANCH  10  22
TORSDOF 12
