REMARK  Name = ZINC36497668
REMARK  10 active torsions:
REMARK  status: ('A' for Active; 'I' for Inactive)
REMARK    1  A    between atoms: C_1  and  C_2
REMARK    2  A    between atoms: C_5  and  C_8
REMARK    3  A    between atoms: C_8  and  C_10
REMARK    4  A    between atoms: C_8  and  N_19
REMARK    5  A    between atoms: N_12  and  C_13
REMARK    6  A    between atoms: N_19  and  C_20
REMARK    7  A    between atoms: C_20  and  C_21
REMARK    8  A    between atoms: C_26  and  C_28
REMARK    9  A    between atoms: C_30  and  N_37
REMARK   10  A    between atoms: C_32  and  N_34
REMARK                            x       y       z     vdW  Elec       q    Type
REMARK                         _______ _______ _______ _____ _____    ______ ____
ROOT
ATOM      1  N   UNL     1       0.768  -4.882   1.016  0.00  0.00    -0.275 N 
ATOM      2  C   UNL     1       1.299  -6.115   0.897  0.00  0.00    +0.248 C 
ATOM      3  O   UNL     1       2.201  -6.462   1.634  0.00  0.00    -0.270 OA
ENDROOT
BRANCH   2   4
ATOM      4  C   UNL     1       0.783  -7.046  -0.130  0.00  0.00    +0.041 A 
ATOM      5  C   UNL     1       0.146  -6.550  -1.268  0.00  0.00    +0.046 A 
ATOM      6  C   UNL     1      -0.333  -7.424  -2.223  0.00  0.00    +0.129 A 
ATOM      7  C   UNL     1      -0.181  -8.789  -2.054  0.00  0.00    +0.065 A 
ATOM      8  C   UNL     1       0.450  -9.286  -0.927  0.00  0.00    +0.129 A 
ATOM      9  C   UNL     1       0.938  -8.423   0.032  0.00  0.00    +0.046 A 
BRANCH   8  10
ATOM     10  N   UNL     1       0.607 -10.748  -0.755  0.00  0.00    +0.057 N 
ATOM     11  O   UNL     1       0.184 -11.505  -1.597  0.00  0.00    -0.126 OA
ATOM     12  O   UNL     1       1.159 -11.185   0.229  0.00  0.00    -0.126 OA
ENDBRANCH   8  10
BRANCH   6  13
ATOM     13  N   UNL     1      -1.009  -6.900  -3.430  0.00  0.00    +0.057 N 
ATOM     14  O   UNL     1      -1.142  -5.707  -3.579  0.00  0.00    -0.126 OA
ATOM     15  O   UNL     1      -1.429  -7.664  -4.268  0.00  0.00    -0.126 OA
ENDBRANCH   6  13
ENDBRANCH   2   4
BRANCH   1  16
ATOM     16  C   UNL     1      -0.395  -4.504   0.210  0.00  0.00    +0.193 C 
BRANCH  16  21
ATOM     17  C   UNL     1      -3.002   0.063   2.606  0.00  0.00    +0.044 C 
ATOM     18  C   UNL     1      -2.322  -1.128   1.981  0.00  0.00    -0.050 A 
ATOM     19  C   UNL     1      -1.128  -0.966   1.303  0.00  0.00    +0.004 A 
ATOM     20  C   UNL     1      -0.505  -2.058   0.730  0.00  0.00    +0.006 A 
ATOM     21  C   UNL     1      -1.074  -3.313   0.835  0.00  0.00    -0.018 A 
ATOM     22  C   UNL     1      -2.268  -3.476   1.514  0.00  0.00    +0.006 A 
ATOM     23  C   UNL     1      -2.889  -2.384   2.091  0.00  0.00    +0.004 A 
ENDBRANCH  16  21
BRANCH  16  24
ATOM     24  C   UNL     1      -1.361  -5.659   0.149  0.00  0.00    +0.238 C 
ATOM     25  O   UNL     1      -1.204  -6.620   0.872  0.00  0.00    -0.273 OA
ATOM     26  N   UNL     1      -2.400  -5.624  -0.709  0.00  0.00    -0.311 N 
ATOM     27  H   UNL     1      -2.526  -4.856  -1.287  0.00  0.00    +0.149 HD
BRANCH  26  28
ATOM     28  C   UNL     1      -3.339  -6.747  -0.767  0.00  0.00    +0.073 C 
ATOM     29  C   UNL     1      -2.790  -7.823  -1.706  0.00  0.00    +0.022 C 
ATOM     30  C   UNL     1      -3.771  -8.996  -1.768  0.00  0.00    +0.002 C 
ATOM     31  C   UNL     1      -5.122  -8.504  -2.291  0.00  0.00    +0.000 C 
ATOM     32  C   UNL     1      -5.671  -7.428  -1.352  0.00  0.00    +0.002 C 
ATOM     33  C   UNL     1      -4.690  -6.255  -1.290  0.00  0.00    +0.022 C 
ENDBRANCH  26  28
ENDBRANCH  16  24
ENDBRANCH   1  16
BRANCH   1  34
ATOM     34  C   UNL     1       1.355  -3.920   1.952  0.00  0.00    +0.183 C 
BRANCH  34  35
ATOM     35  C   UNL     1       2.739  -3.548   1.488  0.00  0.00    +0.122 A 
ATOM     36  C   UNL     1       3.049  -2.514   0.685  0.00  0.00    +0.046 A 
ATOM     37  C   UNL     1       4.452  -2.537   0.510  0.00  0.00    +0.041 A 
ATOM     38  C   UNL     1       4.915  -3.584   1.216  0.00  0.00    +0.195 A 
ATOM     39  O   UNL     1       3.874  -4.189   1.812  0.00  0.00    -0.466 OA
ENDBRANCH  34  35
ENDBRANCH   1  34
TORSDOF 9
