REMARK  Name = ZINC14544710
REMARK  3 active torsions:
REMARK  status: ('A' for Active; 'I' for Inactive)
REMARK    1  A    between atoms: C_1  and  C_2
REMARK    2  A    between atoms: C_4  and  N_28
REMARK    3  A    between atoms: C_9  and  C_18
REMARK                            x       y       z     vdW  Elec       q    Type
REMARK                         _______ _______ _______ _____ _____    ______ ____
ROOT
ATOM      1  C   UNL     1      -2.313   0.283  -1.163  0.00  0.00    +0.046 C 
ATOM      2  C   UNL     1      -1.192  -0.563  -0.618  0.00  0.00    -0.027 A 
ATOM      3  C   UNL     1      -1.278  -1.938  -0.678  0.00  0.00    +0.038 A 
ATOM      4  C   UNL     1      -0.248  -2.713  -0.178  0.00  0.00    +0.127 A 
ATOM      5  C   UNL     1       0.863  -2.111   0.377  0.00  0.00    +0.038 A 
ATOM      6  C   UNL     1       0.960  -0.728   0.441  0.00  0.00    -0.017 A 
ATOM      7  C   UNL     1      -0.072   0.049  -0.057  0.00  0.00    +0.034 A 
ATOM      8  N   UNL     1      -0.038   1.442  -0.019  0.00  0.00    -0.336 N 
ATOM      9  C   UNL     1       1.330   1.962  -0.000  0.00  0.00    +0.107 C 
ATOM     10  C   UNL     1       2.074   1.394   1.211  0.00  0.00    +0.029 C 
ATOM     11  C   UNL     1       2.198  -0.137   1.050  0.00  0.00    +0.049 C 
ATOM     12  C   UNL     1       3.382  -0.317   0.129  0.00  0.00    -0.023 C 
ATOM     13  C   UNL     1       4.139   0.751   0.141  0.00  0.00    -0.030 C 
ATOM     14  C   UNL     1       3.570   1.796   1.081  0.00  0.00    +0.033 C 
ATOM     15  H   UNL     1      -0.564   1.838  -0.783  0.00  0.00    +0.147 HD
ENDROOT
BRANCH   9  16
ATOM     16  C   UNL     1       2.041   1.551  -1.264  0.00  0.00    -0.002 A 
ATOM     17  C   UNL     1       1.785   0.463  -2.007  0.00  0.00    +0.089 A 
ATOM     18  N   UNL     1       2.630   0.422  -3.082  0.00  0.00    -0.360 N 
ATOM     19  H   UNL     1       2.634  -0.270  -3.762  0.00  0.00    +0.165 HD
ATOM     20  C   UNL     1       3.478   1.506  -3.052  0.00  0.00    +0.047 A 
ATOM     21  C   UNL     1       3.147   2.261  -1.912  0.00  0.00    +0.005 A 
ATOM     22  C   UNL     1       3.849   3.432  -1.623  0.00  0.00    +0.010 A 
ATOM     23  C   UNL     1       4.858   3.839  -2.450  0.00  0.00    +0.001 A 
ATOM     24  C   UNL     1       5.190   3.098  -3.576  0.00  0.00    +0.002 A 
ATOM     25  C   UNL     1       4.509   1.939  -3.880  0.00  0.00    +0.026 A 
ENDBRANCH   9  16
BRANCH   4  26
ATOM     26  N   UNL     1      -0.337  -4.189  -0.239  0.00  0.00    +0.056 N 
ATOM     27  O   UNL     1      -1.317  -4.721  -0.729  0.00  0.00    -0.126 OA
ATOM     28  O   UNL     1       0.571  -4.873   0.201  0.00  0.00    -0.126 OA
ENDBRANCH   4  26
TORSDOF 2
