REMARK  Name = ZINC39637464
REMARK  5 active torsions:
REMARK  status: ('A' for Active; 'I' for Inactive)
REMARK    1  A    between atoms: C_1  and  C_2
REMARK    2  A    between atoms: C_7  and  N_12
REMARK    3  A    between atoms: C_9  and  C_11
REMARK    4  A    between atoms: C_13  and  C_15
REMARK    5  A    between atoms: C_26  and  C_28
REMARK                            x       y       z     vdW  Elec       q    Type
REMARK                         _______ _______ _______ _____ _____    ______ ____
ROOT
ATOM      1  C   UNL     1       1.786  -4.200   4.892  0.00  0.00    +0.100 C 
ATOM      2  C   UNL     1       3.213  -4.324   4.313  0.00  0.00    +0.121 C 
ATOM      3  N   UNL     1       3.703  -5.633   4.803  0.00  0.00    -0.296 N 
ATOM      4  C   UNL     1       2.524  -6.527   4.710  0.00  0.00    +0.115 C 
ATOM      5  C   UNL     1       1.337  -5.648   5.151  0.00  0.00    -0.004 C 
ATOM      6  C   UNL     1       0.101  -5.975   4.318  0.00  0.00    -0.010 C 
ATOM      7  C   UNL     1      -0.360  -7.400   4.636  0.00  0.00    -0.082 C 
ATOM      8  N   UNL     1      -0.667  -7.509   6.068  0.00  0.00    +0.379 N 
ATOM      9  C   UNL     1       0.549  -7.285   6.859  0.00  0.00    -0.082 C 
ATOM     10  C   UNL     1       1.049  -5.855   6.635  0.00  0.00    -0.010 C 
ATOM     11  C   UNL     1       4.942  -5.941   5.237  0.00  0.00    +0.248 C 
ATOM     12  O   UNL     1       5.214  -7.090   5.534  0.00  0.00    -0.270 OA
ATOM     13  H   UNL     1      -1.360  -6.819   6.316  0.00  0.00    -0.086 HD
ATOM     14  H   UNL     1      -1.028  -8.431   6.264  0.00  0.00    -0.086 HD
ENDROOT
BRANCH  11  15
ATOM     15  C   UNL     1       5.962  -4.892   5.350  0.00  0.00    +0.052 A 
ATOM     16  C   UNL     1       6.045  -3.893   4.433  0.00  0.00    +0.059 A 
ATOM     17  S   UNL     1       7.324  -2.932   4.935  0.00  0.00    -0.096 S 
ATOM     18  C   UNL     1       7.820  -3.806   6.394  0.00  0.00    +0.020 A 
ATOM     19  C   UNL     1       6.919  -4.886   6.459  0.00  0.00    +0.001 A 
ATOM     20  C   UNL     1       7.059  -5.779   7.538  0.00  0.00    +0.010 A 
ATOM     21  C   UNL     1       8.039  -5.582   8.480  0.00  0.00    +0.001 A 
ATOM     22  C   UNL     1       8.912  -4.508   8.395  0.00  0.00    +0.001 A 
ATOM     23  C   UNL     1       8.804  -3.621   7.341  0.00  0.00    +0.015 A 
ENDBRANCH  11  15
BRANCH   1  25
ATOM     24  N   UNL     1      -0.179  -2.809   4.324  0.00  0.00    -0.312 N 
ATOM     25  C   UNL     1       0.870  -3.537   3.895  0.00  0.00    +0.218 C 
ATOM     26  O   UNL     1       1.078  -3.660   2.707  0.00  0.00    -0.275 OA
ATOM     27  H   UNL     1      -0.345  -2.711   5.275  0.00  0.00    +0.149 HD
BRANCH  24  33
ATOM     28  C   UNL     1      -4.753  -1.072   3.609  0.00  0.00    +0.008 C 
ATOM     29  C   UNL     1      -3.376  -1.282   2.976  0.00  0.00    -0.009 C 
ATOM     30  C   UNL     1      -2.791   0.071   2.567  0.00  0.00    +0.003 C 
ATOM     31  C   UNL     1      -1.413  -0.139   1.934  0.00  0.00    +0.002 C 
ATOM     32  C   UNL     1      -0.484  -0.811   2.946  0.00  0.00    +0.022 C 
ATOM     33  C   UNL     1      -1.069  -2.164   3.355  0.00  0.00    +0.076 C 
ATOM     34  C   UNL     1      -2.446  -1.955   3.988  0.00  0.00    +0.009 C 
ATOM     35  C   UNL     1      -3.031  -3.308   4.397  0.00  0.00    +0.009 C 
ENDBRANCH  24  33
ENDBRANCH   1  25
TORSDOF 3
