REMARK  Name = ZINC09755560
REMARK  11 active torsions:
REMARK  status: ('A' for Active; 'I' for Inactive)
REMARK    1  A    between atoms: C_1  and  C_2
REMARK    2  A    between atoms: C_2  and  N_3
REMARK    3  A    between atoms: C_7  and  S_21
REMARK    4  A    between atoms: C_11  and  S_12
REMARK    5  A    between atoms: S_12  and  C_13
REMARK    6  A    between atoms: C_13  and  C_14
REMARK    7  A    between atoms: N_16  and  C_17
REMARK    8  A    between atoms: C_17  and  C_18
REMARK    9  A    between atoms: C_18  and  C_19
REMARK   10  A    between atoms: C_18  and  C_20
REMARK   11  A    between atoms: S_21  and  N_24
REMARK                            x       y       z     vdW  Elec       q    Type
REMARK                         _______ _______ _______ _____ _____    ______ ____
ROOT
ATOM      1  N   UNL     1       5.449  -1.875  -3.923  0.00  0.00    -0.319 N 
ATOM      2  C   UNL     1       4.837  -1.841  -2.681  0.00  0.00    +0.070 A 
ATOM      3  C   UNL     1       3.937  -2.671  -2.030  0.00  0.00    +0.030 A 
ATOM      4  C   UNL     1       3.509  -2.356  -0.757  0.00  0.00    +0.030 A 
ATOM      5  C   UNL     1       3.966  -1.208  -0.126  0.00  0.00    +0.108 A 
ATOM      6  C   UNL     1       4.861  -0.373  -0.757  0.00  0.00    +0.058 A 
ATOM      7  C   UNL     1       5.308  -0.681  -2.045  0.00  0.00    +0.092 A 
ATOM      8  N   UNL     1       6.165  -0.072  -2.905  0.00  0.00    -0.222 NA
ATOM      9  C   UNL     1       6.250  -0.771  -4.010  0.00  0.00    +0.170 A 
ENDROOT
BRANCH   5  10
ATOM     10  S   UNL     1       3.402  -0.819   1.497  0.00  0.00    +0.061 S 
ATOM     11  O   UNL     1       4.396   0.011   2.084  0.00  0.00    -0.153 OA
ATOM     12  O   UNL     1       2.987  -2.043   2.087  0.00  0.00    -0.153 OA
BRANCH  10  13
ATOM     13  N   UNL     1       2.043   0.113   1.334  0.00  0.00    -0.177 NA
ATOM     14  C   UNL     1       0.714  -0.508   1.262  0.00  0.00    +0.109 C 
ATOM     15  C   UNL     1       0.002  -0.004   0.002  0.00  0.00    +0.017 C 
ATOM     16  C   UNL     1      -0.019   1.526   0.010  0.00  0.00    +0.003 C 
ATOM     17  C   UNL     1       1.417   2.058  -0.000  0.00  0.00    +0.017 C 
ATOM     18  C   UNL     1       2.144   1.577   1.259  0.00  0.00    +0.109 C 
ENDBRANCH  10  13
ENDBRANCH   5  10
BRANCH   1  20
ATOM     19  C   UNL     1       6.306  -4.011  -4.749  0.00  0.00    +0.027 C 
ATOM     20  C   UNL     1       5.271  -2.903  -4.952  0.00  0.00    +0.121 C 
ENDBRANCH   1  20
BRANCH   9  21
ATOM     21  S   UNL     1       7.248  -0.351  -5.400  0.00  0.00    -0.078 S 
BRANCH  21  22
ATOM     22  C   UNL     1       7.993   1.185  -4.800  0.00  0.00    +0.173 C 
BRANCH  22  23
ATOM     23  C   UNL     1       8.914   1.742  -5.854  0.00  0.00    +0.223 C 
ATOM     24  O   UNL     1       9.053   1.159  -6.908  0.00  0.00    -0.275 OA
ATOM     25  N   UNL     1       9.583   2.890  -5.626  0.00  0.00    -0.314 N 
ATOM     26  H   UNL     1       9.472   3.357  -4.783  0.00  0.00    +0.149 HD
BRANCH  25  27
ATOM     27  C   UNL     1      10.479   3.432  -6.651  0.00  0.00    +0.107 C 
BRANCH  27  28
ATOM     28  C   UNL     1      11.109   4.730  -6.143  0.00  0.00    -0.000 C 
ATOM     29  C   UNL     1      12.006   4.426  -4.942  0.00  0.00    +0.009 C 
ATOM     30  C   UNL     1      11.945   5.361  -7.258  0.00  0.00    +0.009 C 
ENDBRANCH  27  28
ENDBRANCH  25  27
ENDBRANCH  22  23
ENDBRANCH  21  22
ENDBRANCH   9  21
TORSDOF 8
