REMARK  Name = ZINC38552025
REMARK  13 active torsions:
REMARK  status: ('A' for Active; 'I' for Inactive)
REMARK    1  A    between atoms: C_1  and  C_2
REMARK    2  A    between atoms: C_2  and  C_3
REMARK    3  A    between atoms: C_5  and  C_16
REMARK    4  A    between atoms: C_6  and  N_8
REMARK    5  A    between atoms: C_9  and  C_11
REMARK    6  A    between atoms: C_16  and  C_18
REMARK    7  A    between atoms: C_16  and  N_28
REMARK    8  A    between atoms: C_22  and  O_26
REMARK    9  A    between atoms: C_23  and  O_24
REMARK   10  A    between atoms: O_24  and  C_25
REMARK   11  A    between atoms: O_26  and  C_27
REMARK   12  A    between atoms: C_31  and  C_36
REMARK   13  A    between atoms: C_33  and  C_35
REMARK                            x       y       z     vdW  Elec       q    Type
REMARK                         _______ _______ _______ _____ _____    ______ ____
ROOT
ATOM      1  C   UNL     1      -4.446  -1.420  -1.659  0.00  0.00    +0.140 C 
ENDROOT
BRANCH   1   2
ATOM      2  N   UNL     1      -3.275  -1.349  -2.537  0.00  0.00    -0.302 N 
ATOM      3  C   UNL     1      -3.326  -1.903  -3.805  0.00  0.00    +0.216 A 
ATOM      4  N   UNL     1      -4.443  -2.489  -4.210  0.00  0.00    -0.220 NA
ATOM      5  C   UNL     1      -4.525  -3.027  -5.415  0.00  0.00    +0.044 A 
ATOM      6  C   UNL     1      -3.424  -2.973  -6.256  0.00  0.00    +0.046 A 
ATOM      7  C   UNL     1      -2.272  -2.353  -5.801  0.00  0.00    +0.044 A 
ATOM      8  N   UNL     1      -2.258  -1.829  -4.586  0.00  0.00    -0.220 NA
ATOM      9  C   UNL     1      -1.051  -2.270  -6.680  0.00  0.00    +0.066 C 
ATOM     10  C   UNL     1      -5.799  -3.693  -5.869  0.00  0.00    +0.066 C 
ATOM     11  H   UNL     1      -2.465  -0.913  -2.230  0.00  0.00    +0.150 HD
ENDBRANCH   1   2
BRANCH   1  12
ATOM     12  C   UNL     1      -5.409  -0.317  -2.016  0.00  0.00    +0.023 A 
ATOM     13  C   UNL     1      -6.760  -0.589  -2.130  0.00  0.00    +0.009 A 
ATOM     14  C   UNL     1      -7.646   0.420  -2.457  0.00  0.00    +0.004 A 
ATOM     15  C   UNL     1      -7.185   1.706  -2.671  0.00  0.00    +0.049 A 
ATOM     16  C   UNL     1      -5.833   1.985  -2.558  0.00  0.00    +0.162 A 
ATOM     17  C   UNL     1      -4.942   0.970  -2.223  0.00  0.00    +0.167 A 
BRANCH  17  18
ATOM     18  O   UNL     1      -3.614   1.240  -2.105  0.00  0.00    -0.491 OA
ATOM     19  C   UNL     1      -2.865   1.352  -3.317  0.00  0.00    +0.277 C 
ENDBRANCH  17  18
BRANCH  16  20
ATOM     20  O   UNL     1      -5.379   3.250  -2.769  0.00  0.00    -0.491 OA
ATOM     21  C   UNL     1      -6.351   4.242  -3.103  0.00  0.00    +0.277 C 
ENDBRANCH  16  20
ENDBRANCH   1  12
BRANCH   1  24
ATOM     22  C   UNL     1      -2.430  -0.553   1.379  0.00  0.00    -0.008 A 
ATOM     23  C   UNL     1      -2.792  -0.681   0.079  0.00  0.00    +0.019 A 
ATOM     24  C   UNL     1      -4.009  -1.262  -0.226  0.00  0.00    +0.006 A 
ATOM     25  C   UNL     1      -4.806  -1.688   0.794  0.00  0.00    +0.078 A 
ATOM     26  S   UNL     1      -3.826  -1.273   2.227  0.00  0.00    -0.078 S 
BRANCH  25  27
ATOM     27  N   UNL     1      -6.062  -2.297   0.733  0.00  0.00    -0.273 N 
ATOM     28  C   UNL     1      -6.747  -2.543   1.867  0.00  0.00    +0.284 C 
ATOM     29  O   UNL     1      -6.321  -2.142   2.935  0.00  0.00    -0.266 OA
ATOM     30  H   UNL     1      -6.440  -2.543  -0.126  0.00  0.00    +0.156 HD
BRANCH  28  31
ATOM     31  C   UNL     1      -8.006  -3.293   1.815  0.00  0.00    +0.189 A 
ATOM     32  C   UNL     1      -8.799  -3.605   2.882  0.00  0.00    +0.054 A 
ATOM     33  C   UNL     1      -9.893  -4.323   2.375  0.00  0.00    +0.042 A 
ATOM     34  C   UNL     1      -9.723  -4.417   1.038  0.00  0.00    +0.196 A 
ATOM     35  O   UNL     1      -8.587  -3.790   0.704  0.00  0.00    -0.458 OA
ENDBRANCH  28  31
ENDBRANCH  25  27
BRANCH  22  37
ATOM     36  C   UNL     1      -1.378   1.533   2.210  0.00  0.00    +0.009 C 
ATOM     37  C   UNL     1      -1.171   0.038   1.958  0.00  0.00    +0.039 C 
ENDBRANCH  22  37
ENDBRANCH   1  24
TORSDOF 8
