REMARK  Name = ZINC12894879
REMARK  9 active torsions:
REMARK  status: ('A' for Active; 'I' for Inactive)
REMARK    1  A    between atoms: C_2  and  C_3
REMARK    2  A    between atoms: C_3  and  N_4
REMARK    3  A    between atoms: C_5  and  C_7
REMARK    4  A    between atoms: C_7  and  S_8
REMARK    5  A    between atoms: S_8  and  C_9
REMARK    6  A    between atoms: C_11  and  C_30
REMARK    7  A    between atoms: C_12  and  N_14
REMARK    8  A    between atoms: C_15  and  C_17
REMARK    9  A    between atoms: N_22  and  C_24
REMARK                            x       y       z     vdW  Elec       q    Type
REMARK                         _______ _______ _______ _____ _____    ______ ____
ROOT
ATOM      1  C   UNL     1      10.235   0.467  -2.683  0.00  0.00    +0.137 A 
ATOM      2  N   UNL     1      10.275  -0.576  -1.875  0.00  0.00    -0.231 NA
ATOM      3  C   UNL     1       9.258  -0.856  -1.059  0.00  0.00    +0.101 A 
ATOM      4  C   UNL     1       8.154  -0.040  -1.065  0.00  0.00    +0.100 A 
ATOM      5  S   UNL     1       8.630   1.156  -2.305  0.00  0.00    -0.045 S 
ENDROOT
BRANCH   3   6
ATOM      6  C   UNL     1       9.319  -2.030  -0.159  0.00  0.00    +0.003 A 
ATOM      7  C   UNL     1       8.742  -1.972   1.110  0.00  0.00    +0.010 A 
ATOM      8  C   UNL     1       8.798  -3.071   1.941  0.00  0.00    +0.001 A 
ATOM      9  C   UNL     1       9.434  -4.226   1.524  0.00  0.00    +0.000 A 
ATOM     10  C   UNL     1      10.013  -4.289   0.269  0.00  0.00    +0.001 A 
ATOM     11  C   UNL     1       9.960  -3.199  -0.574  0.00  0.00    +0.010 A 
ENDBRANCH   3   6
BRANCH   4  12
ATOM     12  N   UNL     1       6.980  -0.125  -0.315  0.00  0.00    -0.278 N 
ATOM     13  C   UNL     1       6.008   0.793  -0.479  0.00  0.00    +0.223 C 
ATOM     14  O   UNL     1       6.152   1.693  -1.279  0.00  0.00    -0.275 OA
ATOM     15  H   UNL     1       6.865  -0.845   0.325  0.00  0.00    +0.155 HD
BRANCH  13  16
ATOM     16  C   UNL     1       4.740   0.701   0.332  0.00  0.00    +0.102 C 
ATOM     17  C   UNL     1       3.990  -0.618   0.037  0.00  0.00    +0.110 C 
ATOM     18  C   UNL     1       2.528  -0.229   0.075  0.00  0.00    +0.221 C 
ATOM     19  O   UNL     1       1.604  -1.009   0.171  0.00  0.00    -0.275 OA
ATOM     20  N   UNL     1       2.402   1.106  -0.014  0.00  0.00    -0.271 N 
ATOM     21  C   UNL     1       3.712   1.758  -0.134  0.00  0.00    +0.127 C 
BRANCH  20  22
ATOM     22  C   UNL     1       1.180   1.787   0.000  0.00  0.00    +0.036 A 
ATOM     23  C   UNL     1      -0.013   1.076  -0.007  0.00  0.00    +0.023 A 
ATOM     24  C   UNL     1      -1.218   1.751   0.002  0.00  0.00    +0.002 A 
ATOM     25  C   UNL     1      -1.237   3.133   0.030  0.00  0.00    +0.000 A 
ATOM     26  C   UNL     1      -0.051   3.845   0.038  0.00  0.00    +0.002 A 
ATOM     27  C   UNL     1       1.157   3.176   0.023  0.00  0.00    +0.023 A 
ENDBRANCH  20  22
ENDBRANCH  13  16
ENDBRANCH   4  12
BRANCH   1  28
ATOM     28  S   UNL     1      11.443   1.029  -3.835  0.00  0.00    -0.089 S 
BRANCH  28  29
ATOM     29  C   UNL     1      10.594   2.483  -4.498  0.00  0.00    +0.172 C 
BRANCH  29  31
ATOM     30  N   UNL     1      11.035   4.255  -6.167  0.00  0.00    -0.311 N 
ATOM     31  C   UNL     1      11.465   3.146  -5.534  0.00  0.00    +0.224 C 
ATOM     32  O   UNL     1      12.554   2.680  -5.798  0.00  0.00    -0.275 OA
ATOM     33  H   UNL     1      10.165   4.627  -5.955  0.00  0.00    +0.149 HD
BRANCH  30  34
ATOM     34  C   UNL     1      11.883   4.899  -7.173  0.00  0.00    +0.131 C 
BRANCH  34  36
ATOM     35  C   UNL     1      11.761   7.281  -7.694  0.00  0.00    +0.005 C 
ATOM     36  C   UNL     1      11.175   6.110  -7.725  0.00  0.00    -0.016 C 
ENDBRANCH  34  36
ENDBRANCH  30  34
ENDBRANCH  29  31
ENDBRANCH  28  29
ENDBRANCH   1  28
TORSDOF 9
