REMARK  Name = ZINC00918224
REMARK  9 active torsions:
REMARK  status: ('A' for Active; 'I' for Inactive)
REMARK    1  A    between atoms: C_1  and  C_2
REMARK    2  A    between atoms: C_5  and  S_9
REMARK    3  A    between atoms: S_9  and  N_12
REMARK    4  A    between atoms: N_12  and  C_13
REMARK    5  A    between atoms: N_12  and  C_23
REMARK    6  A    between atoms: C_13  and  C_14
REMARK    7  A    between atoms: C_23  and  C_24
REMARK    8  A    between atoms: C_28  and  O_36
REMARK    9  A    between atoms: O_36  and  C_37
REMARK                            x       y       z     vdW  Elec       q    Type
REMARK                         _______ _______ _______ _____ _____    ______ ____
ROOT
ATOM      1  N   UNL     1       6.093  -0.971   0.850  0.00  0.00    -0.168 NA
ENDROOT
BRANCH   1   2
ATOM      2  S   UNL     1       6.876   0.384   0.310  0.00  0.00    +0.061 S 
ATOM      3  O   UNL     1       6.965   0.266  -1.103  0.00  0.00    -0.153 OA
ATOM      4  O   UNL     1       6.253   1.493   0.944  0.00  0.00    -0.153 OA
BRANCH   2   9
ATOM      5  C   UNL     1      12.524   0.144   2.422  0.00  0.00    +0.045 C 
ATOM      6  C   UNL     1      11.114   0.204   1.894  0.00  0.00    -0.032 A 
ATOM      7  C   UNL     1      10.145   0.903   2.589  0.00  0.00    +0.007 A 
ATOM      8  C   UNL     1       8.852   0.962   2.103  0.00  0.00    +0.029 A 
ATOM      9  C   UNL     1       8.526   0.314   0.926  0.00  0.00    +0.107 A 
ATOM     10  C   UNL     1       9.494  -0.385   0.230  0.00  0.00    +0.048 A 
ATOM     11  C   UNL     1      10.789  -0.441   0.714  0.00  0.00    +0.046 A 
ATOM     12 CL   UNL     1      12.005  -1.319  -0.159  0.00  0.00    -0.083 Cl
ENDBRANCH   2   9
ENDBRANCH   1   2
BRANCH   1  13
ATOM     13  C   UNL     1       5.287  -0.913   2.072  0.00  0.00    +0.145 C 
BRANCH  13  14
ATOM     14  C   UNL     1       6.120  -1.361   3.245  0.00  0.00    -0.028 A 
ATOM     15  C   UNL     1       6.777  -0.426   4.023  0.00  0.00    +0.009 A 
ATOM     16  C   UNL     1       7.542  -0.832   5.100  0.00  0.00    +0.050 A 
ATOM     17  C   UNL     1       7.652  -2.180   5.403  0.00  0.00    +0.166 A 
ATOM     18  C   UNL     1       6.990  -3.122   4.620  0.00  0.00    +0.167 A 
ATOM     19  C   UNL     1       6.225  -2.708   3.542  0.00  0.00    +0.054 A 
ATOM     20  O   UNL     1       7.254  -4.366   5.118  0.00  0.00    -0.453 OA
ATOM     21  C   UNL     1       7.750  -4.148   6.452  0.00  0.00    +0.466 C 
ATOM     22  O   UNL     1       8.331  -2.833   6.391  0.00  0.00    -0.453 OA
ENDBRANCH  13  14
ENDBRANCH   1  13
BRANCH   1  23
ATOM     23  C   UNL     1       6.207  -2.228   0.107  0.00  0.00    +0.150 C 
BRANCH  23  24
ATOM     24  C   UNL     1       5.041  -2.359  -0.840  0.00  0.00    +0.033 A 
ATOM     25  C   UNL     1       5.168  -1.957  -2.128  0.00  0.00    +0.020 A 
ATOM     26  C   UNL     1       4.018  -2.097  -3.022  0.00  0.00    +0.002 A 
ATOM     27  C   UNL     1       4.091  -1.700  -4.362  0.00  0.00    +0.055 A 
ATOM     28  C   UNL     1       2.987  -1.847  -5.177  0.00  0.00    +0.121 A 
ATOM     29  C   UNL     1       1.807  -2.387  -4.672  0.00  0.00    +0.047 A 
ATOM     30  C   UNL     1       1.722  -2.781  -3.356  0.00  0.00    +0.030 A 
ATOM     31  C   UNL     1       2.823  -2.642  -2.516  0.00  0.00    +0.049 A 
ATOM     32  N   UNL     1       2.758  -3.032  -1.194  0.00  0.00    -0.322 N 
ATOM     33  H   UNL     1       1.907  -3.415  -0.834  0.00  0.00    +0.169 HD
ATOM     34  C   UNL     1       3.822  -2.904  -0.383  0.00  0.00    +0.254 A 
ATOM     35  O   UNL     1       3.731  -3.264   0.778  0.00  0.00    -0.268 OA
BRANCH  28  36
ATOM     36  O   UNL     1       3.053  -1.463  -6.480  0.00  0.00    -0.495 OA
ATOM     37  C   UNL     1       1.875  -1.642  -7.269  0.00  0.00    +0.277 C 
ENDBRANCH  28  36
ENDBRANCH  23  24
ENDBRANCH   1  23
TORSDOF 7
