REMARK  Name = ZINC41102349
REMARK  6 active torsions:
REMARK  status: ('A' for Active; 'I' for Inactive)
REMARK    1  A    between atoms: C_1  and  C_2
REMARK    2  A    between atoms: C_3  and  N_19
REMARK    3  A    between atoms: C_5  and  C_9
REMARK    4  A    between atoms: C_9  and  O_11
REMARK    5  A    between atoms: O_11  and  C_12
REMARK    6  A    between atoms: C_12  and  C_13
REMARK                            x       y       z     vdW  Elec       q    Type
REMARK                         _______ _______ _______ _____ _____    ______ ____
ROOT
ATOM      1  C   UNL     1      -0.018   1.503   0.010  0.00  0.00    +0.048 C 
ATOM      2  C   UNL     1       0.002  -0.004   0.002  0.00  0.00    +0.005 A 
ATOM      3  C   UNL     1       0.006  -0.690  -1.207  0.00  0.00    +0.031 A 
ATOM      4  C   UNL     1       0.025  -2.076  -1.217  0.00  0.00    +0.038 A 
ATOM      5  C   UNL     1       0.040  -2.780  -0.012  0.00  0.00    +0.063 A 
ATOM      6  C   UNL     1       0.037  -2.083   1.198  0.00  0.00    +0.053 A 
ATOM      7  C   UNL     1       0.023  -0.700   1.198  0.00  0.00    +0.129 A 
ATOM      8  F   UNL     1       0.024  -0.027   2.369  0.00  0.00    -0.205 F 
ENDROOT
BRANCH   3   9
ATOM      9  N   UNL     1      -0.010   0.017  -2.411  0.00  0.00    -0.358 N 
ATOM     10  H   UNL     1      -0.023   0.987  -2.404  0.00  0.00    +0.142 HD
ATOM     11  H   UNL     1      -0.007  -0.461  -3.255  0.00  0.00    +0.142 HD
ENDBRANCH   3   9
BRANCH   5  12
ATOM     12  C   UNL     1       0.060  -4.257  -0.016  0.00  0.00    +0.340 C 
ATOM     13  O   UNL     1       0.062  -4.861  -1.070  0.00  0.00    -0.245 OA
BRANCH  12  14
ATOM     14  O   UNL     1       0.075  -4.934   1.148  0.00  0.00    -0.456 OA
BRANCH  14  15
ATOM     15  C   UNL     1       0.093  -6.360   1.069  0.00  0.00    +0.275 C 
BRANCH  15  16
ATOM     16  C   UNL     1       0.108  -6.940   2.460  0.00  0.00    +0.028 A 
ATOM     17  C   UNL     1      -0.936  -7.287   3.251  0.00  0.00    +0.016 A 
ATOM     18  C   UNL     1      -0.682  -7.807   4.507  0.00  0.00    +0.023 A 
ATOM     19  C   UNL     1       0.605  -7.953   4.910  0.00  0.00    +0.055 A 
ATOM     20  S   UNL     1       1.506  -7.355   3.490  0.00  0.00    -0.083 S 
ATOM     21 BR   UNL     1       1.271  -8.624   6.548  0.00  0.00    -0.043 Br
ENDBRANCH  15  16
ENDBRANCH  14  15
ENDBRANCH  12  14
ENDBRANCH   5  12
TORSDOF 5
