REMARK  Name = ZINC21256199
REMARK  10 active torsions:
REMARK  status: ('A' for Active; 'I' for Inactive)
REMARK    1  A    between atoms: C_1  and  C_2
REMARK    2  A    between atoms: C_2  and  O_3
REMARK    3  A    between atoms: O_3  and  C_4
REMARK    4  A    between atoms: C_11  and  C_18
REMARK    5  A    between atoms: C_13  and  O_14
REMARK    6  A    between atoms: C_18  and  O_19
REMARK    7  A    between atoms: O_19  and  C_20
REMARK    8  A    between atoms: C_20  and  C_22
REMARK    9  A    between atoms: C_22  and  S_23
REMARK   10  A    between atoms: S_23  and  C_24
REMARK                            x       y       z     vdW  Elec       q    Type
REMARK                         _______ _______ _______ _____ _____    ______ ____
ROOT
ATOM      1  C   UNL     1      -1.479   2.703  11.014  0.00  0.00    +0.405 C 
ATOM      2  O   UNL     1      -0.286   2.523  10.866  0.00  0.00    -0.226 OA
ATOM      3  N   UNL     1      -2.303   2.670   9.948  0.00  0.00    -0.251 N 
ATOM      4  C   UNL     1      -1.805   2.319   8.692  0.00  0.00    +0.040 A 
ATOM      5  C   UNL     1      -2.341   2.909   7.547  0.00  0.00    +0.024 A 
ATOM      6  C   UNL     1      -1.865   2.576   6.312  0.00  0.00    +0.014 A 
ATOM      7  C   UNL     1      -0.829   1.643   6.194  0.00  0.00    +0.024 A 
ATOM      8  C   UNL     1      -0.303   1.263   4.881  0.00  0.00    +0.007 A 
ATOM      9  C   UNL     1       0.699   0.347   4.831  0.00  0.00    +0.095 A 
ATOM     10  C   UNL     1       1.198  -0.212   6.026  0.00  0.00    +0.285 A 
ATOM     11  O   UNL     1       0.709   0.137   7.226  0.00  0.00    -0.425 OA
ATOM     12  C   UNL     1      -0.287   1.041   7.345  0.00  0.00    +0.141 A 
ATOM     13  C   UNL     1      -0.782   1.389   8.593  0.00  0.00    +0.070 A 
ATOM     14  H   UNL     1      -3.368   2.918  10.068  0.00  0.00    +0.158 HD
ENDROOT
BRANCH  10  15
ATOM     15  O   UNL     1       2.097  -1.032   5.967  0.00  0.00    -0.480 OA
ATOM     16  H   UNL     1       2.497  -1.476   6.890  0.00  0.00    +0.295 HD
ENDBRANCH  10  15
BRANCH   1  17
ATOM     17  O   UNL     1      -1.977   2.935  12.243  0.00  0.00    -0.450 OA
BRANCH  17  19
ATOM     18  C   UNL     1      -1.776   3.233  14.652  0.00  0.00    +0.048 C 
ATOM     19  C   UNL     1      -1.031   2.957  13.345  0.00  0.00    +0.230 C 
ENDBRANCH  17  19
ENDBRANCH   1  17
BRANCH   8  20
ATOM     20  C   UNL     1      -0.855   1.875   3.620  0.00  0.00    +0.268 C 
BRANCH  20  21
ATOM     21  O   UNL     1      -0.155   1.330   2.470  0.00  0.00    -0.459 OA
BRANCH  21  22
ATOM     22  C   UNL     1      -0.530   1.776   1.261  0.00  0.00    +0.318 C 
ATOM     23  O   UNL     1      -1.413   2.595   1.166  0.00  0.00    -0.250 OA
BRANCH  22  24
ATOM     24  C   UNL     1       0.151   1.255   0.022  0.00  0.00    +0.194 C 
BRANCH  24  25
ATOM     25  S   UNL     1      -0.573   2.043  -1.443  0.00  0.00    -0.114 S 
BRANCH  25  26
ATOM     26  C   UNL     1       0.318   1.339  -2.790  0.00  0.00    +0.008 A 
ATOM     27  C   UNL     1       1.321   0.406  -2.551  0.00  0.00    +0.016 A 
ATOM     28  C   UNL     1       2.013  -0.148  -3.609  0.00  0.00    +0.016 A 
ATOM     29  C   UNL     1       1.718   0.233  -4.906  0.00  0.00    +0.018 A 
ATOM     30  C   UNL     1       0.725   1.165  -5.148  0.00  0.00    +0.016 A 
ATOM     31  C   UNL     1       0.024   1.718  -4.094  0.00  0.00    +0.016 A 
ATOM     32 BR   UNL     1       2.675  -0.522  -6.352  0.00  0.00    -0.050 Br
ENDBRANCH  25  26
ENDBRANCH  24  25
ENDBRANCH  22  24
ENDBRANCH  21  22
ENDBRANCH  20  21
ENDBRANCH   8  20
TORSDOF 9
