REMARK  Name = ZINC06198099
REMARK  8 active torsions:
REMARK  status: ('A' for Active; 'I' for Inactive)
REMARK    1  A    between atoms: C_1  and  C_2
REMARK    2  A    between atoms: C_2  and  C_3
REMARK    3  A    between atoms: C_10  and  C_15
REMARK    4  A    between atoms: C_15  and  C_17
REMARK    5  A    between atoms: C_15  and  N_63
REMARK    6  A    between atoms: N_21  and  C_22
REMARK    7  A    between atoms: C_22  and  C_23
REMARK    8  A    between atoms: C_31  and  C_34
REMARK                            x       y       z     vdW  Elec       q    Type
REMARK                         _______ _______ _______ _____ _____    ______ ____
ROOT
ATOM      1  C   UNL     1       1.654   6.576  -1.453  0.00  0.00    +0.039 C 
ENDROOT
BRANCH   1   9
ATOM      2  C   UNL     1      -4.459   5.651  -1.187  0.00  0.00    -0.047 A 
ATOM      3  C   UNL     1      -4.712   5.899  -2.530  0.00  0.00    +0.005 A 
ATOM      4  C   UNL     1      -3.687   6.226  -3.390  0.00  0.00    +0.026 A 
ATOM      5  C   UNL     1      -2.383   6.309  -2.911  0.00  0.00    +0.049 A 
ATOM      6  C   UNL     1      -2.131   6.058  -1.550  0.00  0.00    -0.001 A 
ATOM      7  C   UNL     1      -3.187   5.728  -0.694  0.00  0.00    +0.013 A 
ATOM      8  C   UNL     1      -0.756   6.149  -1.054  0.00  0.00    +0.017 A 
ATOM      9  C   UNL     1       0.228   6.474  -1.930  0.00  0.00    +0.011 A 
ATOM     10  C   UNL     1      -0.080   6.722  -3.284  0.00  0.00    +0.251 A 
ATOM     11  O   UNL     1       0.818   7.017  -4.053  0.00  0.00    -0.268 OA
ATOM     12  N   UNL     1      -1.339   6.636  -3.749  0.00  0.00    -0.322 N 
ATOM     13  H   UNL     1      -1.520   6.810  -4.717  0.00  0.00    +0.169 HD
BRANCH   2  15
ATOM     14  C   UNL     1      -6.180   6.572   0.341  0.00  0.00    +0.009 C 
ATOM     15  C   UNL     1      -5.597   5.295  -0.266  0.00  0.00    +0.032 C 
ENDBRANCH   2  15
ENDBRANCH   1   9
BRANCH   1  22
ATOM     16  C   UNL     1       1.308   8.972  -1.414  0.00  0.00    -0.077 C 
ATOM     17  C   UNL     1       1.838  10.304  -1.948  0.00  0.00    -0.015 C 
ATOM     18  C   UNL     1       3.249  10.542  -1.403  0.00  0.00    -0.018 C 
ATOM     19  C   UNL     1       4.149   9.373  -1.810  0.00  0.00    -0.015 C 
ATOM     20  C   UNL     1       3.553   8.067  -1.279  0.00  0.00    -0.077 C 
ATOM     21  C   UNL     1       3.808  11.843  -1.983  0.00  0.00    +0.007 C 
ATOM     22  N   UNL     1       2.205   7.885  -1.860  0.00  0.00    +0.389 N 
ATOM     23  H   UNL     1       2.278   7.912  -2.884  0.00  0.00    -0.080 HD
ENDBRANCH   1  22
BRANCH   1  24
ATOM     24  C   UNL     1       2.475   5.484  -2.088  0.00  0.00    +0.143 A 
ATOM     25  N   UNL     1       2.976   5.485  -3.299  0.00  0.00    -0.115 NA
ATOM     26  N   UNL     1       3.612   4.377  -3.468  0.00  0.00    -0.023 NA
ATOM     27  N   UNL     1       3.534   3.671  -2.394  0.00  0.00    -0.044 NA
ATOM     28  N   UNL     1       2.837   4.317  -1.522  0.00  0.00    -0.226 N 
BRANCH  28  29
ATOM     29  C   UNL     1       2.505   3.868  -0.167  0.00  0.00    +0.182 C 
BRANCH  29  30
ATOM     30  C   UNL     1       3.638   4.208   0.766  0.00  0.00    -0.026 A 
ATOM     31  C   UNL     1       3.642   5.417   1.437  0.00  0.00    +0.005 A 
ATOM     32  C   UNL     1       4.681   5.729   2.293  0.00  0.00    +0.000 A 
ATOM     33  C   UNL     1       5.720   4.835   2.474  0.00  0.00    +0.000 A 
ATOM     34  C   UNL     1       5.714   3.624   1.807  0.00  0.00    +0.000 A 
ATOM     35  C   UNL     1       4.674   3.312   0.952  0.00  0.00    +0.005 A 
ENDBRANCH  29  30
ENDBRANCH  28  29
ENDBRANCH   1  24
TORSDOF 6
