REMARK  Name = ZINC42954303
REMARK  9 active torsions:
REMARK  status: ('A' for Active; 'I' for Inactive)
REMARK    1  A    between atoms: C_1  and  C_2
REMARK    2  A    between atoms: C_2  and  C_3
REMARK    3  A    between atoms: C_3  and  C_5
REMARK    4  A    between atoms: C_3  and  N_22
REMARK    5  A    between atoms: C_5  and  C_7
REMARK    6  A    between atoms: C_5  and  N_14
REMARK    7  A    between atoms: N_14  and  C_15
REMARK    8  A    between atoms: N_14  and  C_16
REMARK    9  A    between atoms: C_16  and  C_17
REMARK                            x       y       z     vdW  Elec       q    Type
REMARK                         _______ _______ _______ _____ _____    ______ ____
ROOT
ATOM      1  C   UNL     1      -1.413  -2.059   0.130  0.00  0.00    -0.052 C 
ENDROOT
BRANCH   1   2
ATOM      2  C   UNL     1      -0.780  -2.649  -1.103  0.00  0.00    -0.062 A 
ATOM      3  C   UNL     1       0.597  -2.680  -1.226  0.00  0.00    +0.003 A 
ATOM      4  C   UNL     1       1.178  -3.222  -2.356  0.00  0.00    +0.015 A 
ATOM      5  C   UNL     1       0.383  -3.733  -3.366  0.00  0.00    +0.018 A 
ATOM      6  C   UNL     1      -0.995  -3.702  -3.243  0.00  0.00    +0.015 A 
ATOM      7  C   UNL     1      -1.575  -3.165  -2.109  0.00  0.00    +0.003 A 
ATOM      8 BR   UNL     1       1.177  -4.474  -4.913  0.00  0.00    -0.050 Br
ENDBRANCH   1   2
BRANCH   1   9
ATOM      9  N   UNL     1      -0.636  -2.449   1.314  0.00  0.00    +0.384 N 
ATOM     10  C   UNL     1      -1.254  -1.873   2.517  0.00  0.00    -0.095 C 
ATOM     11  H   UNL     1       0.309  -2.106   1.224  0.00  0.00    -0.081 HD
BRANCH   9  12
ATOM     12  C   UNL     1      -0.617  -3.913   1.427  0.00  0.00    -0.039 C 
BRANCH  12  13
ATOM     13  C   UNL     1       0.280  -4.318   2.568  0.00  0.00    -0.026 A 
ATOM     14  C   UNL     1       1.667  -4.581   2.497  0.00  0.00    +0.043 A 
ATOM     15  C   UNL     1       2.067  -4.905   3.740  0.00  0.00    +0.195 A 
ATOM     16  O   UNL     1       1.001  -4.852   4.556  0.00  0.00    -0.471 OA
ATOM     17  C   UNL     1      -0.084  -4.491   3.852  0.00  0.00    +0.196 A 
ENDBRANCH  12  13
ENDBRANCH   9  12
ENDBRANCH   1   9
BRANCH   1  18
ATOM     18  C   UNL     1      -1.433  -0.534   0.013  0.00  0.00    -0.085 C 
BRANCH  18  19
ATOM     19  N   UNL     1      -2.107  -0.147  -1.234  0.00  0.00    +0.379 N 
ATOM     20  H   UNL     1      -3.054  -0.496  -1.227  0.00  0.00    -0.090 HD
ATOM     21  H   UNL     1      -2.120   0.859  -1.311  0.00  0.00    -0.090 HD
ATOM     22  H   UNL     1      -1.610  -0.539  -2.020  0.00  0.00    -0.090 HD
ENDBRANCH  18  19
BRANCH  18  24
ATOM     23  C   UNL     1      -0.019   1.526   0.010  0.00  0.00    +0.002 C 
ATOM     24  C   UNL     1       0.002  -0.004   0.002  0.00  0.00    -0.021 C 
ENDBRANCH  18  24
ENDBRANCH   1  18
TORSDOF 7
