REMARK  Name = ZINC02397488
REMARK  9 active torsions:
REMARK  status: ('A' for Active; 'I' for Inactive)
REMARK    1  A    between atoms: C_1  and  C_2
REMARK    2  A    between atoms: C_4  and  O_18
REMARK    3  A    between atoms: C_6  and  S_8
REMARK    4  A    between atoms: S_8  and  C_9
REMARK    5  A    between atoms: C_9  and  C_10
REMARK    6  A    between atoms: C_10  and  O_11
REMARK    7  A    between atoms: O_11  and  C_12
REMARK    8  A    between atoms: O_18  and  C_19
REMARK    9  A    between atoms: N_24  and  C_26
REMARK                            x       y       z     vdW  Elec       q    Type
REMARK                         _______ _______ _______ _____ _____    ______ ____
ROOT
ATOM      1  C   UNL     1       0.027   1.520   0.183  0.00  0.00    +0.066 C 
ATOM      2  C   UNL     1       0.055   0.016   0.104  0.00  0.00    +0.046 A 
ATOM      3  C   UNL     1       0.120  -0.619  -1.123  0.00  0.00    +0.090 A 
ATOM      4  C   UNL     1       0.145  -2.012  -1.151  0.00  0.00    +0.226 A 
ATOM      5  N   UNL     1       0.105  -2.682  -0.005  0.00  0.00    -0.187 NA
ATOM      6  C   UNL     1       0.042  -2.038   1.151  0.00  0.00    +0.192 A 
ATOM      7  N   UNL     1       0.023  -0.713   1.209  0.00  0.00    -0.227 NA
ENDROOT
BRANCH   6   8
ATOM      8  S   UNL     1      -0.009  -2.964   2.649  0.00  0.00    -0.083 S 
BRANCH   8   9
ATOM      9  C   UNL     1       0.133  -4.688   2.104  0.00  0.00    +0.118 C 
BRANCH   9  10
ATOM     10  C   UNL     1      -0.015  -5.618   3.310  0.00  0.00    +0.240 C 
BRANCH  10  11
ATOM     11  O   UNL     1       0.098  -6.976   2.881  0.00  0.00    -0.491 OA
BRANCH  11  12
ATOM     12  C   UNL     1      -0.012  -7.937   3.836  0.00  0.00    +0.121 A 
ATOM     13  C   UNL     1      -0.229  -7.579   5.159  0.00  0.00    +0.045 A 
ATOM     14  C   UNL     1      -0.340  -8.557   6.128  0.00  0.00    +0.004 A 
ATOM     15  C   UNL     1      -0.235  -9.891   5.781  0.00  0.00    +0.000 A 
ATOM     16  C   UNL     1      -0.018 -10.250   4.463  0.00  0.00    +0.004 A 
ATOM     17  C   UNL     1       0.087  -9.276   3.489  0.00  0.00    +0.045 A 
ENDBRANCH  11  12
ENDBRANCH  10  11
ENDBRANCH   9  10
ENDBRANCH   8   9
ENDBRANCH   6   8
BRANCH   4  18
ATOM     18  O   UNL     1       0.209  -2.675  -2.332  0.00  0.00    -0.418 OA
BRANCH  18  19
ATOM     19  C   UNL     1       0.360  -4.024  -2.298  0.00  0.00    +0.240 A 
ATOM     20  C   UNL     1       0.311  -4.762  -3.496  0.00  0.00    +0.074 A 
ATOM     21  C   UNL     1       0.462  -6.113  -3.462  0.00  0.00    +0.077 A 
ATOM     22  C   UNL     1       0.667  -6.754  -2.223  0.00  0.00    +0.267 A 
ATOM     23  O   UNL     1       0.805  -7.966  -2.173  0.00  0.00    -0.266 OA
ATOM     24  N   UNL     1       0.708  -6.018  -1.094  0.00  0.00    -0.229 N 
ATOM     25  N   UNL     1       0.555  -4.628  -1.153  0.00  0.00    -0.130 NA
ATOM     26  C   UNL     1       0.920  -6.675   0.198  0.00  0.00    +0.176 C 
ENDBRANCH  18  19
ENDBRANCH   4  18
TORSDOF 7
