REMARK  Name = ZINC21736042
REMARK  10 active torsions:
REMARK  status: ('A' for Active; 'I' for Inactive)
REMARK    1  A    between atoms: C_1  and  C_2
REMARK    2  A    between atoms: C_5  and  C_8
REMARK    3  A    between atoms: C_8  and  C_10
REMARK    4  A    between atoms: C_10  and  S_11
REMARK    5  A    between atoms: S_11  and  C_12
REMARK    6  A    between atoms: N_22  and  C_23
REMARK    7  A    between atoms: C_23  and  C_24
REMARK    8  A    between atoms: C_24  and  C_25
REMARK    9  A    between atoms: C_28  and  S_31
REMARK   10  A    between atoms: S_31  and  N_34
REMARK                            x       y       z     vdW  Elec       q    Type
REMARK                         _______ _______ _______ _____ _____    ______ ____
ROOT
ATOM      1  C   UNL     1      -1.119  -2.036   0.003  0.00  0.00    +0.173 A 
ATOM      2  N   UNL     1      -1.136  -0.726   0.009  0.00  0.00    -0.223 NA
ATOM      3  C   UNL     1       0.002  -0.004   0.002  0.00  0.00    +0.079 A 
ATOM      4  C   UNL     1      -0.017   1.394   0.010  0.00  0.00    +0.028 A 
ATOM      5  C   UNL     1       1.161   2.086   0.002  0.00  0.00    +0.002 A 
ATOM      6  C   UNL     1       2.381   1.422  -0.013  0.00  0.00    +0.001 A 
ATOM      7  C   UNL     1       2.432   0.055  -0.021  0.00  0.00    +0.015 A 
ATOM      8  C   UNL     1       1.245  -0.677  -0.013  0.00  0.00    +0.065 A 
ATOM      9  C   UNL     1       1.239  -2.146  -0.021  0.00  0.00    +0.262 A 
ATOM     10  O   UNL     1       2.277  -2.782  -0.035  0.00  0.00    -0.267 OA
ATOM     11  N   UNL     1       0.036  -2.766  -0.012  0.00  0.00    -0.287 N 
ENDROOT
BRANCH   1  12
ATOM     12  S   UNL     1      -2.656  -2.897   0.014  0.00  0.00    -0.080 S 
BRANCH  12  13
ATOM     13  C   UNL     1      -3.801  -1.496   0.032  0.00  0.00    +0.157 C 
BRANCH  13  14
ATOM     14  C   UNL     1      -5.219  -2.005   0.044  0.00  0.00    +0.173 C 
ATOM     15  O   UNL     1      -5.434  -3.199   0.040  0.00  0.00    -0.291 OA
BRANCH  14  20
ATOM     16  C   UNL     1      -9.608   1.707   0.105  0.00  0.00    +0.044 C 
ATOM     17  C   UNL     1      -8.457   0.734   0.089  0.00  0.00    -0.050 A 
ATOM     18  C   UNL     1      -8.707  -0.627   0.085  0.00  0.00    +0.004 A 
ATOM     19  C   UNL     1      -7.660  -1.524   0.070  0.00  0.00    +0.011 A 
ATOM     20  C   UNL     1      -6.343  -1.055   0.059  0.00  0.00    +0.018 A 
ATOM     21  C   UNL     1      -6.098   0.322   0.069  0.00  0.00    +0.011 A 
ATOM     22  C   UNL     1      -7.156   1.206   0.078  0.00  0.00    +0.004 A 
ENDBRANCH  14  20
ENDBRANCH  13  14
ENDBRANCH  12  13
ENDBRANCH   1  12
BRANCH  11  23
ATOM     23  C   UNL     1      -0.028  -4.229  -0.018  0.00  0.00    +0.132 C 
BRANCH  23  24
ATOM     24  C   UNL     1      -0.037  -4.746   1.422  0.00  0.00    +0.057 C 
BRANCH  24  25
ATOM     25  C   UNL     1      -0.103  -6.251   1.415  0.00  0.00    -0.046 A 
ATOM     26  C   UNL     1      -1.329  -6.889   1.430  0.00  0.00    +0.005 A 
ATOM     27  C   UNL     1      -1.390  -8.270   1.419  0.00  0.00    +0.029 A 
ATOM     28  C   UNL     1      -0.224  -9.013   1.404  0.00  0.00    +0.105 A 
ATOM     29  C   UNL     1       1.002  -8.375   1.395  0.00  0.00    +0.029 A 
ATOM     30  C   UNL     1       1.063  -6.994   1.401  0.00  0.00    +0.005 A 
BRANCH  28  31
ATOM     31  S   UNL     1      -0.302 -10.774   1.395  0.00  0.00    +0.056 S 
ATOM     32  O   UNL     1      -1.569 -11.122   0.855  0.00  0.00    -0.153 OA
ATOM     33  O   UNL     1       0.919 -11.231   0.829  0.00  0.00    -0.153 OA
BRANCH  31  34
ATOM     34  N   UNL     1      -0.307 -11.271   2.975  0.00  0.00    -0.204 NA
ATOM     35  H   UNL     1      -0.355 -12.370   3.013  0.00  0.00    +0.144 HD
ATOM     36  H   UNL     1      -1.182 -10.848   3.489  0.00  0.00    +0.144 HD
ENDBRANCH  31  34
ENDBRANCH  28  31
ENDBRANCH  24  25
ENDBRANCH  23  24
ENDBRANCH  11  23
TORSDOF 9
