REMARK  Name = ZINC43769439
REMARK  10 active torsions:
REMARK  status: ('A' for Active; 'I' for Inactive)
REMARK    1  A    between atoms: C_1  and  C_2
REMARK    2  A    between atoms: C_7  and  C_9
REMARK    3  A    between atoms: C_16  and  C_40
REMARK    4  A    between atoms: C_19  and  O_39
REMARK    5  A    between atoms: C_21  and  C_25
REMARK    6  A    between atoms: C_25  and  C_27
REMARK    7  A    between atoms: C_25  and  C_28
REMARK    8  A    between atoms: N_30  and  C_31
REMARK    9  A    between atoms: N_30  and  C_32
REMARK   10  A    between atoms: C_32  and  C_33
REMARK                            x       y       z     vdW  Elec       q    Type
REMARK                         _______ _______ _______ _____ _____    ______ ____
ROOT
ATOM      1  C   UNL     1       1.450   2.821   1.680  0.00  0.00    +0.014 C 
ATOM      2  C   UNL     1       0.924   1.387   1.595  0.00  0.00    +0.042 C 
ATOM      3  C   UNL     1      -0.483   1.329   2.166  0.00  0.00    +0.055 A 
ATOM      4  C   UNL     1      -0.869   0.288   2.951  0.00  0.00    +0.013 A 
ATOM      5  S   UNL     1      -2.548   0.697   3.336  0.00  0.00    -0.076 S 
ATOM      6  C   UNL     1      -2.620   2.146   2.477  0.00  0.00    +0.082 A 
ATOM      7  N   UNL     1      -1.421   2.246   1.961  0.00  0.00    -0.248 NA
ATOM      8  C   UNL     1      -0.051  -0.887   3.365  0.00  0.00    +0.051 C 
ATOM      9  C   UNL     1       1.213  -0.938   2.504  0.00  0.00    -0.022 C 
ATOM     10  C   UNL     1       1.838   0.458   2.403  0.00  0.00    +0.033 C 
ATOM     11  C   UNL     1       3.167   0.323   1.641  0.00  0.00    +0.123 C 
ATOM     12  C   UNL     1       2.873  -0.189   0.229  0.00  0.00    +0.029 C 
ATOM     13  C   UNL     1       2.191  -1.555   0.299  0.00  0.00    +0.007 C 
ATOM     14  C   UNL     1       0.889  -1.446   1.100  0.00  0.00    +0.008 C 
ATOM     15  C   UNL     1       2.229  -1.876   3.157  0.00  0.00    +0.012 C 
ENDROOT
BRANCH   6  16
ATOM     16  C   UNL     1      -3.783   3.094   2.336  0.00  0.00    +0.041 C 
ATOM     17  C   UNL     1      -4.202   3.599   3.720  0.00  0.00    -0.009 C 
ATOM     18  C   UNL     1      -5.432   4.498   3.578  0.00  0.00    -0.082 C 
ATOM     19  N   UNL     1      -6.534   3.735   2.979  0.00  0.00    +0.379 N 
ATOM     20  C   UNL     1      -6.166   3.309   1.623  0.00  0.00    -0.082 C 
ATOM     21  C   UNL     1      -4.964   2.364   1.690  0.00  0.00    -0.009 C 
ATOM     22  H   UNL     1      -6.726   2.922   3.545  0.00  0.00    -0.086 HD
ATOM     23  H   UNL     1      -7.359   4.315   2.936  0.00  0.00    -0.086 HD
ENDBRANCH   6  16
BRANCH  12  24
ATOM     24  C   UNL     1       4.185  -0.318  -0.548  0.00  0.00    +0.078 C 
ATOM     25  C   UNL     1       3.897  -0.856  -1.950  0.00  0.00    +0.017 C 
BRANCH  24  26
ATOM     26  C   UNL     1       5.105  -1.267   0.175  0.00  0.00    +0.219 C 
ATOM     27  O   UNL     1       4.652  -2.063   0.971  0.00  0.00    -0.275 OA
ATOM     28  N   UNL     1       6.431  -1.232  -0.062  0.00  0.00    -0.300 N 
ATOM     29  C   UNL     1       6.989  -0.214  -0.956  0.00  0.00    +0.132 C 
BRANCH  28  30
ATOM     30  C   UNL     1       7.316  -2.212   0.574  0.00  0.00    +0.142 C 
BRANCH  30  31
ATOM     31  C   UNL     1       7.444  -3.423  -0.314  0.00  0.00    -0.030 A 
ATOM     32  C   UNL     1       6.556  -4.475  -0.182  0.00  0.00    +0.005 A 
ATOM     33  C   UNL     1       6.674  -5.585  -0.996  0.00  0.00    +0.000 A 
ATOM     34  C   UNL     1       7.679  -5.645  -1.943  0.00  0.00    +0.000 A 
ATOM     35  C   UNL     1       8.566  -4.593  -2.076  0.00  0.00    +0.000 A 
ATOM     36  C   UNL     1       8.446  -3.480  -1.265  0.00  0.00    +0.005 A 
ENDBRANCH  30  31
ENDBRANCH  28  30
ENDBRANCH  24  26
ENDBRANCH  12  24
BRANCH  11  37
ATOM     37  O   UNL     1       3.810   1.597   1.569  0.00  0.00    -0.391 OA
ATOM     38  H   UNL     1       4.632   1.594   1.059  0.00  0.00    +0.210 HD
ENDBRANCH  11  37
TORSDOF 6
