REMARK  Name = ZINC39749559
REMARK  14 active torsions:
REMARK  status: ('A' for Active; 'I' for Inactive)
REMARK    1  A    between atoms: C_1  and  C_2
REMARK    2  A    between atoms: C_2  and  C_4
REMARK    3  A    between atoms: C_2  and  S_13
REMARK    4  A    between atoms: N_6  and  C_7
REMARK    5  A    between atoms: S_13  and  C_14
REMARK    6  A    between atoms: C_17  and  C_20
REMARK    7  A    between atoms: N_18  and  C_19
REMARK    8  A    between atoms: C_20  and  C_22
REMARK    9  A    between atoms: C_20  and  N_25
REMARK   10  A    between atoms: C_22  and  C_23
REMARK   11  A    between atoms: C_22  and  C_24
REMARK   12  A    between atoms: C_26  and  C_28
REMARK   13  A    between atoms: C_31  and  O_34
REMARK   14  A    between atoms: O_34  and  C_35
REMARK                            x       y       z     vdW  Elec       q    Type
REMARK                         _______ _______ _______ _____ _____    ______ ____
ROOT
ATOM      1  C   UNL     1      -0.136  -0.087   2.816  0.00  0.00    +0.192 A 
ATOM      2  N   UNL     1      -1.266   0.575   2.730  0.00  0.00    -0.122 NA
ATOM      3  N   UNL     1      -1.738   0.787   3.907  0.00  0.00    -0.132 NA
ATOM      4  C   UNL     1      -0.945   0.276   4.805  0.00  0.00    +0.155 A 
ATOM      5  N   UNL     1       0.102  -0.303   4.143  0.00  0.00    -0.308 N 
ATOM      6  C   UNL     1       1.242  -1.008   4.734  0.00  0.00    +0.152 C 
ENDROOT
BRANCH   1   7
ATOM      7  S   UNL     1       0.879  -0.605   1.472  0.00  0.00    -0.074 S 
BRANCH   7   9
ATOM      8  C   UNL     1      -0.019   1.526   0.010  0.00  0.00    +0.029 C 
ATOM      9  C   UNL     1       0.002  -0.004   0.002  0.00  0.00    +0.137 C 
BRANCH   9  10
ATOM     10  C   UNL     1       0.707  -0.490  -1.238  0.00  0.00    +0.226 C 
ATOM     11  O   UNL     1       1.864  -0.849  -1.176  0.00  0.00    -0.275 OA
ATOM     12  N   UNL     1       0.053  -0.526  -2.415  0.00  0.00    -0.312 N 
ATOM     13  H   UNL     1      -0.873  -0.239  -2.465  0.00  0.00    +0.149 HD
BRANCH  12  14
ATOM     14  C   UNL     1       0.738  -0.999  -3.621  0.00  0.00    +0.073 C 
ATOM     15  C   UNL     1       1.513   0.159  -4.254  0.00  0.00    +0.022 C 
ATOM     16  C   UNL     1       2.229  -0.334  -5.513  0.00  0.00    +0.002 C 
ATOM     17  C   UNL     1       1.198  -0.865  -6.511  0.00  0.00    +0.000 C 
ATOM     18  C   UNL     1       0.424  -2.022  -5.878  0.00  0.00    +0.002 C 
ATOM     19  C   UNL     1      -0.292  -1.529  -4.619  0.00  0.00    +0.022 C 
ENDBRANCH  12  14
ENDBRANCH   9  10
ENDBRANCH   7   9
ENDBRANCH   1   7
BRANCH   4  20
ATOM     20  C   UNL     1      -1.146   0.313   6.298  0.00  0.00    +0.144 C 
BRANCH  20  21
ATOM     21  N   UNL     1      -1.555   1.660   6.703  0.00  0.00    -0.301 N 
ATOM     22  C   UNL     1      -1.316   2.089   7.958  0.00  0.00    +0.245 C 
ATOM     23  O   UNL     1      -0.760   1.357   8.755  0.00  0.00    -0.270 OA
ATOM     24  H   UNL     1      -1.999   2.244   6.068  0.00  0.00    +0.150 HD
BRANCH  22  25
ATOM     25  C   UNL     1      -1.728   3.446   8.366  0.00  0.00    +0.037 A 
ATOM     26  C   UNL     1      -2.373   4.286   7.454  0.00  0.00    +0.016 A 
ATOM     27  C   UNL     1      -2.756   5.551   7.838  0.00  0.00    +0.046 A 
ATOM     28  C   UNL     1      -2.503   5.993   9.132  0.00  0.00    +0.120 A 
ATOM     29  C   UNL     1      -1.863   5.161  10.042  0.00  0.00    +0.046 A 
ATOM     30  C   UNL     1      -1.481   3.892   9.667  0.00  0.00    +0.016 A 
BRANCH  28  31
ATOM     31  O   UNL     1      -2.882   7.242   9.507  0.00  0.00    -0.495 OA
ATOM     32  C   UNL     1      -2.591   7.632  10.850  0.00  0.00    +0.277 C 
ENDBRANCH  28  31
ENDBRANCH  22  25
ENDBRANCH  20  21
BRANCH  20  33
ATOM     33  C   UNL     1      -2.232  -0.690   6.691  0.00  0.00    +0.011 C 
ATOM     34  C   UNL     1      -1.805  -2.097   6.269  0.00  0.00    +0.009 C 
ATOM     35  C   UNL     1      -2.437  -0.653   8.207  0.00  0.00    +0.009 C 
ENDBRANCH  20  33
ENDBRANCH   4  20
TORSDOF 9
