REMARK  Name = ZINC32082531
REMARK  11 active torsions:
REMARK  status: ('A' for Active; 'I' for Inactive)
REMARK    1  A    between atoms: C_1  and  C_2
REMARK    2  A    between atoms: C_2  and  C_3
REMARK    3  A    between atoms: C_2  and  C_4
REMARK    4  A    between atoms: C_4  and  C_5
REMARK    5  A    between atoms: C_8  and  S_11
REMARK    6  A    between atoms: S_11  and  N_14
REMARK    7  A    between atoms: N_14  and  N_15
REMARK    8  A    between atoms: C_16  and  C_18
REMARK    9  A    between atoms: N_27  and  C_29
REMARK   10  A    between atoms: C_29  and  C_30
REMARK   11  A    between atoms: C_29  and  C_31
REMARK                            x       y       z     vdW  Elec       q    Type
REMARK                         _______ _______ _______ _____ _____    ______ ____
ROOT
ATOM      1  N   UNL     1       6.490   1.371   1.581  0.00  0.00    -0.226 N 
ATOM      2  C   UNL     1       7.453   1.331   2.524  0.00  0.00    +0.279 C 
ATOM      3  O   UNL     1       8.535   1.843   2.310  0.00  0.00    -0.267 OA
ATOM      4  H   UNL     1       5.627   0.963   1.752  0.00  0.00    +0.171 HD
ENDROOT
BRANCH   2   5
ATOM      5  C   UNL     1       7.193   0.665   3.816  0.00  0.00    +0.155 A 
ATOM      6  C   UNL     1       8.236   0.621   4.853  0.00  0.00    +0.020 A 
ATOM      7  C   UNL     1       9.494   1.189   4.681  0.00  0.00    +0.011 A 
ATOM      8  C   UNL     1      10.419   1.106   5.701  0.00  0.00    +0.001 A 
ATOM      9  C   UNL     1      10.108   0.464   6.892  0.00  0.00    +0.001 A 
ATOM     10  C   UNL     1       8.867  -0.106   7.083  0.00  0.00    +0.014 A 
ATOM     11  C   UNL     1       7.920  -0.032   6.067  0.00  0.00    +0.050 A 
ATOM     12  C   UNL     1       6.575  -0.612   6.186  0.00  0.00    +0.275 A 
ATOM     13  O   UNL     1       6.233  -1.189   7.202  0.00  0.00    -0.266 OA
ATOM     14  N   UNL     1       5.728  -0.489   5.143  0.00  0.00    -0.226 N 
ATOM     15  N   UNL     1       6.030   0.111   4.054  0.00  0.00    -0.163 NA
BRANCH  14  16
ATOM     16  C   UNL     1       4.388  -1.069   5.266  0.00  0.00    +0.105 C 
ATOM     17  C   UNL     1       3.339   0.035   5.115  0.00  0.00    +0.032 C 
ATOM     18  C   UNL     1       4.184  -2.120   4.174  0.00  0.00    +0.032 C 
ENDBRANCH  14  16
ENDBRANCH   2   5
BRANCH   1  19
ATOM     19  N   UNL     1       6.736   2.003   0.355  0.00  0.00    -0.108 NA
ATOM     20  H   UNL     1       7.038   2.925   0.336  0.00  0.00    +0.172 HD
BRANCH  19  21
ATOM     21  S   UNL     1       6.512   1.176  -1.062  0.00  0.00    +0.074 S 
ATOM     22  O   UNL     1       7.276  -0.018  -0.961  0.00  0.00    -0.152 OA
ATOM     23  O   UNL     1       6.699   2.114  -2.113  0.00  0.00    -0.152 OA
BRANCH  21  27
ATOM     24  C   UNL     1       2.165  -0.079  -1.208  0.00  0.00    -0.047 A 
ATOM     25  C   UNL     1       2.551   1.137  -1.739  0.00  0.00    +0.005 A 
ATOM     26  C   UNL     1       3.879   1.521  -1.694  0.00  0.00    +0.029 A 
ATOM     27  C   UNL     1       4.820   0.688  -1.118  0.00  0.00    +0.107 A 
ATOM     28  C   UNL     1       4.434  -0.528  -0.587  0.00  0.00    +0.029 A 
ATOM     29  C   UNL     1       3.106  -0.910  -0.627  0.00  0.00    +0.005 A 
BRANCH  24  30
ATOM     30  C   UNL     1       0.718  -0.497  -1.257  0.00  0.00    +0.038 C 
BRANCH  30  32
ATOM     31  C   UNL     1      -0.019   1.526   0.010  0.00  0.00    +0.007 C 
ATOM     32  C   UNL     1       0.002  -0.004   0.002  0.00  0.00    -0.013 C 
ATOM     33  C   UNL     1      -1.433  -0.534   0.013  0.00  0.00    +0.007 C 
ENDBRANCH  30  32
ENDBRANCH  24  30
ENDBRANCH  21  27
ENDBRANCH  19  21
ENDBRANCH   1  19
TORSDOF 7
