REMARK  Name = ZINC06919976
REMARK  11 active torsions:
REMARK  status: ('A' for Active; 'I' for Inactive)
REMARK    1  A    between atoms: C_1  and  C_2
REMARK    2  A    between atoms: C_2  and  C_3
REMARK    3  A    between atoms: C_3  and  C_5
REMARK    4  A    between atoms: C_3  and  C_6
REMARK    5  A    between atoms: C_13  and  C_18
REMARK    6  A    between atoms: N_20  and  C_21
REMARK    7  A    between atoms: C_21  and  C_22
REMARK    8  A    between atoms: C_22  and  C_23
REMARK    9  A    between atoms: C_23  and  N_65
REMARK   10  A    between atoms: C_24  and  N_65
REMARK   11  A    between atoms: C_25  and  N_65
REMARK                            x       y       z     vdW  Elec       q    Type
REMARK                         _______ _______ _______ _____ _____    ______ ____
ROOT
ATOM      1  C   UNL     1       3.559   3.462  -0.669  0.00  0.00    +0.160 C 
ATOM      2  C   UNL     1       2.297   4.183  -0.270  0.00  0.00    +0.238 C 
ATOM      3  O   UNL     1       2.292   5.394  -0.208  0.00  0.00    -0.273 OA
ATOM      4  N   UNL     1       1.175   3.496   0.019  0.00  0.00    -0.282 N 
ATOM      5  C   UNL     1       1.172   2.095   0.002  0.00  0.00    +0.055 A 
ATOM      6  C   UNL     1      -0.017   1.394   0.010  0.00  0.00    +0.038 A 
ATOM      7  C   UNL     1       0.002  -0.004   0.002  0.00  0.00    +0.039 A 
ATOM      8  C   UNL     1       1.221  -0.687  -0.013  0.00  0.00    +0.015 A 
ATOM      9  C   UNL     1       2.406   0.016  -0.024  0.00  0.00    +0.025 A 
ATOM     10  C   UNL     1       2.388   1.403  -0.018  0.00  0.00    +0.049 A 
ATOM     11  N   UNL     1       3.576   2.136  -0.035  0.00  0.00    -0.331 N 
ATOM     12  H   UNL     1       0.362   3.975   0.242  0.00  0.00    +0.155 HD
ATOM     13  H   UNL     1       4.388   1.781   0.360  0.00  0.00    +0.147 HD
ENDROOT
BRANCH   7  14
ATOM     14  C   UNL     1      -1.266  -0.758   0.011  0.00  0.00    +0.244 C 
ATOM     15  O   UNL     1      -2.327  -0.165   0.025  0.00  0.00    -0.270 OA
ATOM     16  N   UNL     1      -1.248  -2.106   0.003  0.00  0.00    -0.311 N 
ATOM     17  H   UNL     1      -0.402  -2.580  -0.008  0.00  0.00    +0.149 HD
BRANCH  16  18
ATOM     18  C   UNL     1      -2.507  -2.855   0.012  0.00  0.00    +0.102 C 
BRANCH  18  19
ATOM     19  C   UNL     1      -2.208  -4.356   0.001  0.00  0.00    +0.000 C 
BRANCH  19  20
ATOM     20  C   UNL     1      -3.522  -5.138   0.010  0.00  0.00    -0.077 C 
BRANCH  20  22
ATOM     21  C   UNL     1      -2.598  -6.979  -1.263  0.00  0.00    -0.096 C 
ATOM     22  N   UNL     1      -3.216  -6.584   0.021  0.00  0.00    +0.380 N 
ATOM     23  H   UNL     1      -2.557  -6.780   0.783  0.00  0.00    -0.082 HD
BRANCH  22  24
ATOM     24  C   UNL     1      -4.454  -7.361   0.245  0.00  0.00    -0.069 C 
ATOM     25  C   UNL     1      -5.033  -6.986   1.611  0.00  0.00    -0.015 C 
ATOM     26  C   UNL     1      -6.303  -7.800   1.867  0.00  0.00    -0.002 C 
ATOM     27  C   UNL     1      -5.964  -9.292   1.849  0.00  0.00    -0.000 C 
ATOM     28  C   UNL     1      -5.385  -9.667   0.483  0.00  0.00    -0.002 C 
ATOM     29  C   UNL     1      -4.115  -8.853   0.227  0.00  0.00    -0.015 C 
ENDBRANCH  22  24
ENDBRANCH  20  22
ENDBRANCH  19  20
ENDBRANCH  18  19
ENDBRANCH  16  18
ENDBRANCH   7  14
BRANCH   1  30
ATOM     30  C   UNL     1       3.599   3.302  -2.191  0.00  0.00    +0.015 C 
ATOM     31  C   UNL     1       2.319   2.611  -2.665  0.00  0.00    +0.010 C 
BRANCH  30  33
ATOM     32  C   UNL     1       3.873   4.514  -4.358  0.00  0.00    +0.004 C 
ATOM     33  C   UNL     1       3.708   4.680  -2.846  0.00  0.00    +0.002 C 
ENDBRANCH  30  33
ENDBRANCH   1  30
TORSDOF 8
