REMARK  Name = ZINC39711055
REMARK  13 active torsions:
REMARK  status: ('A' for Active; 'I' for Inactive)
REMARK    1  A    between atoms: C_1  and  C_2
REMARK    2  A    between atoms: C_4  and  C_40
REMARK    3  A    between atoms: C_9  and  C_14
REMARK    4  A    between atoms: C_14  and  C_16
REMARK    5  A    between atoms: C_14  and  N_26
REMARK    6  A    between atoms: N_21  and  C_22
REMARK    7  A    between atoms: C_22  and  C_23
REMARK    8  A    between atoms: C_22  and  C_24
REMARK    9  A    between atoms: C_22  and  C_25
REMARK   10  A    between atoms: N_26  and  C_27
REMARK   11  A    between atoms: N_26  and  C_34
REMARK   12  A    between atoms: C_27  and  C_28
REMARK   13  A    between atoms: C_34  and  C_35
REMARK                            x       y       z     vdW  Elec       q    Type
REMARK                         _______ _______ _______ _____ _____    ______ ____
ROOT
ATOM      1  C   UNL     1      -1.771  -4.786   3.590  0.00  0.00    -0.010 C 
ENDROOT
BRANCH   1  10
ATOM      2  C   UNL     1       2.328   0.144   6.735  0.00  0.00    +0.044 C 
ATOM      3  C   UNL     1       1.016  -0.382   6.214  0.00  0.00    -0.050 A 
ATOM      4  C   UNL     1      -0.177   0.132   6.724  0.00  0.00    +0.008 A 
ATOM      5  C   UNL     1      -1.397  -0.293   6.304  0.00  0.00    -0.028 A 
ATOM      6  C   UNL     1      -1.506  -1.289   5.316  0.00  0.00    +0.043 A 
ATOM      7  N   UNL     1      -2.708  -1.697   4.911  0.00  0.00    -0.284 N 
ATOM      8  C   UNL     1      -2.881  -2.629   3.989  0.00  0.00    +0.223 C 
ATOM      9  O   UNL     1      -4.005  -2.961   3.659  0.00  0.00    -0.275 OA
ATOM     10  C   UNL     1      -1.678  -3.279   3.344  0.00  0.00    +0.088 C 
ATOM     11  C   UNL     1      -0.308  -2.818   3.801  0.00  0.00    -0.006 C 
ATOM     12  C   UNL     1      -0.262  -1.850   4.760  0.00  0.00    -0.007 A 
ATOM     13  C   UNL     1       1.018  -1.343   5.254  0.00  0.00    +0.012 A 
ATOM     14  C   UNL     1      -2.644   0.307   6.901  0.00  0.00    +0.046 C 
ATOM     15  H   UNL     1      -3.493  -1.293   5.313  0.00  0.00    +0.155 HD
ENDBRANCH   1  10
BRANCH   1  16
ATOM     16  C   UNL     1      -1.642  -5.067   5.088  0.00  0.00    +0.183 C 
ATOM     17  N   UNL     1      -0.227  -5.041   5.504  0.00  0.00    -0.229 N 
ATOM     18  N   UNL     1       0.054  -6.324   5.988  0.00  0.00    -0.064 NA
ATOM     19  N   UNL     1      -0.916  -7.074   5.931  0.00  0.00    -0.061 NA
ATOM     20  N   UNL     1      -2.054  -6.450   5.397  0.00  0.00    -0.211 N 
ATOM     21  H   UNL     1       0.383  -4.289   5.453  0.00  0.00    +0.172 HD
BRANCH  20  22
ATOM     22  C   UNL     1      -3.377  -7.044   5.189  0.00  0.00    +0.047 C 
ATOM     23  C   UNL     1      -3.540  -7.423   3.716  0.00  0.00    +0.033 C 
ATOM     24  C   UNL     1      -3.516  -8.297   6.056  0.00  0.00    +0.033 C 
ATOM     25  C   UNL     1      -4.457  -6.032   5.578  0.00  0.00    +0.033 C 
ENDBRANCH  20  22
ENDBRANCH   1  16
BRANCH   1  26
ATOM     26  N   UNL     1      -0.688  -5.468   2.868  0.00  0.00    +0.392 N 
ATOM     27  H   UNL     1       0.199  -5.222   3.282  0.00  0.00    -0.080 HD
BRANCH  26  28
ATOM     28  C   UNL     1      -0.882  -6.921   2.954  0.00  0.00    -0.042 C 
BRANCH  28  29
ATOM     29  C   UNL     1       0.319  -7.623   2.374  0.00  0.00    -0.064 A 
ATOM     30  C   UNL     1       0.355  -7.934   1.028  0.00  0.00    +0.002 A 
ATOM     31  C   UNL     1       1.457  -8.578   0.496  0.00  0.00    +0.000 A 
ATOM     32  C   UNL     1       2.523  -8.910   1.311  0.00  0.00    +0.000 A 
ATOM     33  C   UNL     1       2.488  -8.598   2.657  0.00  0.00    +0.000 A 
ATOM     34  C   UNL     1       1.388  -7.951   3.188  0.00  0.00    +0.002 A 
ENDBRANCH  28  29
ENDBRANCH  26  28
BRANCH  26  35
ATOM     35  C   UNL     1      -0.702  -5.054   1.459  0.00  0.00    -0.002 C 
BRANCH  35  36
ATOM     36  C   UNL     1       0.579  -4.329   1.136  0.00  0.00    +0.089 A 
ATOM     37  C   UNL     1       1.745  -4.907   0.795  0.00  0.00    +0.042 A 
ATOM     38  C   UNL     1       2.673  -3.861   0.581  0.00  0.00    +0.041 A 
ATOM     39  C   UNL     1       2.018  -2.707   0.802  0.00  0.00    +0.195 A 
ATOM     40  O   UNL     1       0.748  -2.997   1.133  0.00  0.00    -0.470 OA
ENDBRANCH  35  36
ENDBRANCH  26  35
ENDBRANCH   1  26
TORSDOF 8
