REMARK  Name = ZINC67303129
REMARK  8 active torsions:
REMARK  status: ('A' for Active; 'I' for Inactive)
REMARK    1  A    between atoms: C_1  and  C_2
REMARK    2  A    between atoms: C_3  and  C_9
REMARK    3  A    between atoms: C_4  and  C_8
REMARK    4  A    between atoms: N_5  and  C_7
REMARK    5  A    between atoms: C_9  and  C_11
REMARK    6  A    between atoms: C_9  and  N_12
REMARK    7  A    between atoms: C_13  and  C_15
REMARK    8  A    between atoms: C_21  and  N_25
REMARK                            x       y       z     vdW  Elec       q    Type
REMARK                         _______ _______ _______ _____ _____    ______ ____
ROOT
ATOM      1  N   UNL     1       0.955   0.751  -2.726  0.00  0.00    -0.303 N 
ATOM      2  C   UNL     1       1.494   1.003  -3.936  0.00  0.00    +0.261 C 
ATOM      3  O   UNL     1       1.182   0.321  -4.894  0.00  0.00    -0.269 OA
ATOM      4  H   UNL     1       1.203   1.295  -1.962  0.00  0.00    +0.150 HD
ENDROOT
BRANCH   2   5
ATOM      5  C   UNL     1       2.458   2.101  -4.097  0.00  0.00    +0.103 A 
ATOM      6  C   UNL     1       3.062   2.455  -5.261  0.00  0.00    +0.041 A 
ATOM      7  C   UNL     1       3.912   3.554  -4.990  0.00  0.00    +0.003 A 
ATOM      8  C   UNL     1       4.770   4.326  -5.784  0.00  0.00    +0.010 A 
ATOM      9  C   UNL     1       5.479   5.348  -5.223  0.00  0.00    +0.003 A 
ATOM     10  C   UNL     1       5.359   5.631  -3.868  0.00  0.00    +0.035 A 
ATOM     11  C   UNL     1       4.522   4.887  -3.067  0.00  0.00    +0.150 A 
ATOM     12  C   UNL     1       3.789   3.839  -3.616  0.00  0.00    +0.078 A 
ATOM     13  N   UNL     1       2.889   2.943  -3.090  0.00  0.00    -0.349 N 
ATOM     14  H   UNL     1       2.606   2.905  -2.163  0.00  0.00    +0.166 HD
BRANCH  11  15
ATOM     15  N   UNL     1       4.404   5.200  -1.625  0.00  0.00    +0.058 N 
ATOM     16  O   UNL     1       5.041   6.111  -1.149  0.00  0.00    -0.126 OA
ATOM     17  O   UNL     1       3.669   4.545  -0.922  0.00  0.00    -0.126 OA
ENDBRANCH  11  15
ENDBRANCH   2   5
BRANCH   1  18
ATOM     18  C   UNL     1      -0.006  -0.343  -2.566  0.00  0.00    +0.104 C 
ATOM     19  C   UNL     1      -1.408   0.152  -2.925  0.00  0.00    +0.033 C 
BRANCH  18  22
ATOM     20  C   UNL     1      -0.018   1.503   0.010  0.00  0.00    +0.068 C 
ATOM     21  C   UNL     1       0.002  -0.004   0.002  0.00  0.00    +0.065 A 
ATOM     22  C   UNL     1       0.008  -0.818  -1.135  0.00  0.00    +0.016 A 
ATOM     23  C   UNL     1       0.028  -2.107  -0.725  0.00  0.00    +0.041 A 
ATOM     24  N   UNL     1       0.034  -2.109   0.625  0.00  0.00    -0.271 N 
ATOM     25  N   UNL     1       0.023  -0.777   1.058  0.00  0.00    -0.176 NA
ATOM     26  C   UNL     1       0.055  -3.295   1.485  0.00  0.00    +0.172 C 
ATOM     27  C   UNL     1       0.040  -3.323  -1.615  0.00  0.00    +0.065 C 
ENDBRANCH  18  22
ENDBRANCH   1  18
TORSDOF 4
