REMARK  Name = ZINC57308110
REMARK  6 active torsions:
REMARK  status: ('A' for Active; 'I' for Inactive)
REMARK    1  A    between atoms: C_1  and  C_2
REMARK    2  A    between atoms: C_4  and  C_26
REMARK    3  A    between atoms: C_6  and  C_19
REMARK    4  A    between atoms: N_9  and  C_11
REMARK    5  A    between atoms: N_28  and  C_29
REMARK    6  A    between atoms: C_35  and  C_37
REMARK                            x       y       z     vdW  Elec       q    Type
REMARK                         _______ _______ _______ _____ _____    ______ ____
ROOT
ATOM      1  C   UNL     1      -0.199   1.498   0.022  0.00  0.00    +0.068 C 
ATOM      2  C   UNL     1      -0.148  -0.008   0.012  0.00  0.00    +0.070 A 
ATOM      3  C   UNL     1      -0.163  -0.824  -1.139  0.00  0.00    +0.054 A 
ATOM      4  C   UNL     1      -0.224  -0.557  -2.526  0.00  0.00    +0.051 A 
ATOM      5  C   UNL     1      -0.218  -1.639  -3.399  0.00  0.00    +0.042 A 
ATOM      6  C   UNL     1      -0.154  -2.936  -2.879  0.00  0.00    +0.077 A 
ATOM      7  N   UNL     1      -0.098  -3.155  -1.576  0.00  0.00    -0.227 NA
ATOM      8  C   UNL     1      -0.100  -2.162  -0.699  0.00  0.00    +0.160 A 
ATOM      9  N   UNL     1      -0.050  -2.116   0.670  0.00  0.00    -0.241 N 
ATOM     10  N   UNL     1      -0.077  -0.773   1.063  0.00  0.00    -0.174 NA
ENDROOT
BRANCH   9  11
ATOM     11  C   UNL     1       0.023  -3.273   1.567  0.00  0.00    +0.132 C 
ATOM     12  C   UNL     1      -1.179  -3.264   2.525  0.00  0.00    +0.051 C 
ATOM     13  C   UNL     1      -0.949  -4.280   3.670  0.00  0.00    +0.168 C 
ATOM     14  S   UNL     1       0.884  -4.329   3.804  0.00  0.00    -0.029 S 
ATOM     15  O   UNL     1       1.274  -3.730   5.032  0.00  0.00    -0.174 OA
ATOM     16  O   UNL     1       1.336  -5.640   3.491  0.00  0.00    -0.174 OA
ATOM     17  C   UNL     1       1.322  -3.196   2.418  0.00  0.00    +0.192 C 
ENDBRANCH   9  11
BRANCH   6  18
ATOM     18  C   UNL     1      -0.149  -4.091  -3.809  0.00  0.00    +0.036 A 
ATOM     19  C   UNL     1      -0.202  -3.880  -5.186  0.00  0.00    +0.013 A 
ATOM     20  C   UNL     1      -0.197  -4.958  -6.047  0.00  0.00    +0.001 A 
ATOM     21  C   UNL     1      -0.139  -6.248  -5.548  0.00  0.00    +0.003 A 
ATOM     22  C   UNL     1      -0.087  -6.465  -4.183  0.00  0.00    +0.039 A 
ATOM     23  C   UNL     1      -0.085  -5.393  -3.310  0.00  0.00    +0.133 A 
ATOM     24  F   UNL     1      -0.028  -5.605  -1.977  0.00  0.00    -0.205 F 
ENDBRANCH   6  18
BRANCH   4  25
ATOM     25  C   UNL     1      -0.291   0.830  -3.033  0.00  0.00    +0.245 C 
ATOM     26  O   UNL     1       0.353   1.708  -2.491  0.00  0.00    -0.270 OA
ATOM     27  N   UNL     1      -1.066   1.122  -4.096  0.00  0.00    -0.308 N 
ATOM     28  H   UNL     1      -1.580   0.422  -4.529  0.00  0.00    +0.149 HD
BRANCH  27  29
ATOM     29  C   UNL     1      -1.133   2.497  -4.599  0.00  0.00    +0.076 C 
ATOM     30  C   UNL     1       0.028   2.744  -5.563  0.00  0.00    +0.022 C 
ATOM     31  C   UNL     1      -0.042   4.180  -6.088  0.00  0.00    +0.002 C 
ATOM     32  C   UNL     1      -1.367   4.391  -6.822  0.00  0.00    +0.000 C 
ATOM     33  C   UNL     1      -2.529   4.143  -5.857  0.00  0.00    +0.005 C 
ATOM     34  C   UNL     1      -2.459   2.708  -5.333  0.00  0.00    +0.006 C 
ATOM     35  C   UNL     1      -3.621   2.460  -4.368  0.00  0.00    +0.009 C 
ENDBRANCH  27  29
ENDBRANCH   4  25
TORSDOF 4
