REMARK  Name = ZINC12986758
REMARK  10 active torsions:
REMARK  status: ('A' for Active; 'I' for Inactive)
REMARK    1  A    between atoms: C_1  and  C_2
REMARK    2  A    between atoms: C_5  and  C_31
REMARK    3  A    between atoms: C_6  and  C_8
REMARK    4  A    between atoms: C_8  and  C_10
REMARK    5  A    between atoms: C_8  and  N_11
REMARK    6  A    between atoms: N_11  and  C_12
REMARK    7  A    between atoms: C_12  and  C_13
REMARK    8  A    between atoms: N_15  and  C_16
REMARK    9  A    between atoms: C_18  and  S_23
REMARK   10  A    between atoms: S_23  and  N_26
REMARK                            x       y       z     vdW  Elec       q    Type
REMARK                         _______ _______ _______ _____ _____    ______ ____
ROOT
ATOM      1  C   UNL     1      -1.682  -1.967   5.691  0.00  0.00    +0.231 C 
ATOM      2  O   UNL     1      -1.654  -0.761   5.565  0.00  0.00    -0.274 OA
ATOM      3  N   UNL     1      -2.238  -2.517   6.788  0.00  0.00    -0.283 N 
ATOM      4  H   UNL     1      -2.320  -3.481   6.859  0.00  0.00    +0.155 HD
ENDROOT
BRANCH   3   5
ATOM      5  C   UNL     1      -2.697  -1.698   7.826  0.00  0.00    +0.054 A 
ATOM      6  C   UNL     1      -3.258  -0.460   7.539  0.00  0.00    +0.053 A 
ATOM      7  C   UNL     1      -3.711   0.346   8.565  0.00  0.00    +0.107 A 
ATOM      8  C   UNL     1      -3.606  -0.078   9.878  0.00  0.00    +0.030 A 
ATOM      9  C   UNL     1      -3.049  -1.309  10.167  0.00  0.00    +0.024 A 
ATOM     10  C   UNL     1      -2.599  -2.123   9.145  0.00  0.00    +0.062 A 
ATOM     11 CL   UNL     1      -1.905  -3.673   9.509  0.00  0.00    -0.082 Cl
BRANCH   7  12
ATOM     12  S   UNL     1      -4.422   1.916   8.202  0.00  0.00    +0.061 S 
ATOM     13  O   UNL     1      -4.270   2.711   9.370  0.00  0.00    -0.153 OA
ATOM     14  O   UNL     1      -3.907   2.313   6.938  0.00  0.00    -0.153 OA
BRANCH  12  15
ATOM     15  N   UNL     1      -6.049   1.682   7.998  0.00  0.00    -0.177 NA
ATOM     16  C   UNL     1      -6.715   1.363   6.727  0.00  0.00    +0.109 C 
ATOM     17  C   UNL     1      -8.228   1.262   7.016  0.00  0.00    +0.018 C 
ATOM     18  C   UNL     1      -8.389   2.086   8.320  0.00  0.00    +0.018 C 
ATOM     19  C   UNL     1      -7.067   1.752   9.061  0.00  0.00    +0.109 C 
ENDBRANCH  12  15
ENDBRANCH   7  12
ENDBRANCH   3   5
BRANCH   1  20
ATOM     20  C   UNL     1      -1.097  -2.850   4.619  0.00  0.00    +0.178 C 
BRANCH  20  21
ATOM     21  N   UNL     1      -0.558  -2.015   3.537  0.00  0.00    -0.302 NA
ATOM     22  H   UNL     1       0.119  -1.356   3.892  0.00  0.00    +0.123 HD
BRANCH  21  23
ATOM     23  C   UNL     1       0.023  -2.844   2.472  0.00  0.00    +0.081 C 
ATOM     24  C   UNL     1       1.468  -3.196   2.831  0.00  0.00    +0.029 C 
BRANCH  23  30
ATOM     25  C   UNL     1      -0.052   1.509   0.003  0.00  0.00    +0.044 C 
ATOM     26  C   UNL     1      -0.037   0.002  -0.008  0.00  0.00    -0.050 A 
ATOM     27  C   UNL     1      -0.043  -0.680  -1.211  0.00  0.00    +0.003 A 
ATOM     28  C   UNL     1      -0.029  -2.062  -1.221  0.00  0.00    +0.004 A 
ATOM     29  C   UNL     1      -0.008  -2.763  -0.029  0.00  0.00    -0.046 A 
ATOM     30  C   UNL     1      -0.000  -2.080   1.173  0.00  0.00    -0.028 A 
ATOM     31  C   UNL     1      -0.010  -0.698   1.183  0.00  0.00    +0.008 A 
ATOM     32  C   UNL     1       0.006  -4.269  -0.041  0.00  0.00    +0.044 C 
ENDBRANCH  23  30
ENDBRANCH  21  23
ENDBRANCH  20  21
ENDBRANCH   1  20
TORSDOF 7
