REMARK  Name = ZINC39334503
REMARK  5 active torsions:
REMARK  status: ('A' for Active; 'I' for Inactive)
REMARK    1  A    between atoms: C_1  and  C_2
REMARK    2  A    between atoms: C_2  and  C_3
REMARK    3  A    between atoms: C_3  and  C_4
REMARK    4  A    between atoms: C_4  and  C_5
REMARK    5  A    between atoms: C_7  and  C_11
REMARK                            x       y       z     vdW  Elec       q    Type
REMARK                         _______ _______ _______ _____ _____    ______ ____
ROOT
ATOM      1  C   UNL     1       3.387  -4.722  -4.091  0.00  0.00    +0.206 C 
ATOM      2  N   UNL     1       2.286  -5.617  -3.661  0.00  0.00    -0.231 NA
ATOM      3  N   UNL     1       2.042  -6.546  -4.778  0.00  0.00    -0.224 NA
ATOM      4  C   UNL     1       3.335  -6.552  -5.491  0.00  0.00    +0.241 C 
ATOM      5  N   UNL     1       3.674  -5.091  -5.496  0.00  0.00    -0.204 N 
ATOM      6  N   UNL     1       4.024  -4.606  -6.737  0.00  0.00    -0.158 NA
ATOM      7  C   UNL     1       3.812  -5.260  -7.839  0.00  0.00    +0.172 C 
ATOM      8  S   UNL     1       3.116  -6.846  -7.285  0.00  0.00    -0.048 S 
ATOM      9  N   UNL     1       4.067  -4.848  -9.141  0.00  0.00    -0.337 N 
ATOM     10  H   UNL     1       1.455  -5.088  -3.442  0.00  0.00    +0.143 HD
ATOM     11  H   UNL     1       1.301  -6.209  -5.374  0.00  0.00    +0.144 HD
ATOM     12  H   UNL     1       4.451  -3.972  -9.307  0.00  0.00    +0.144 HD
ATOM     13  H   UNL     1       3.862  -5.436  -9.885  0.00  0.00    +0.144 HD
ENDROOT
BRANCH   1  16
ATOM     14  C   UNL     1       1.444  -2.513  -2.505  0.00  0.00    +0.061 C 
ATOM     15  C   UNL     1       2.736  -2.843  -2.562  0.00  0.00    +0.029 C 
ATOM     16  C   UNL     1       2.944  -3.260  -4.007  0.00  0.00    +0.190 C 
ATOM     17  N   UNL     1       1.607  -3.083  -4.598  0.00  0.00    -0.177 NA
ATOM     18  N   UNL     1       0.853  -2.679  -3.709  0.00  0.00    -0.159 NA
BRANCH  14  19
ATOM     19  C   UNL     1       0.739  -2.027  -1.265  0.00  0.00    +0.057 C 
BRANCH  19  20
ATOM     20  C   UNL     1       0.718  -0.497  -1.257  0.00  0.00    +0.006 C 
BRANCH  20  22
ATOM     21  C   UNL     1      -0.019   1.526   0.010  0.00  0.00    +0.004 C 
ATOM     22  C   UNL     1       0.002  -0.004   0.002  0.00  0.00    -0.003 C 
ENDBRANCH  20  22
ENDBRANCH  19  20
ENDBRANCH  14  19
ENDBRANCH   1  16
TORSDOF 4
