REMARK  Name = ZINC33085402
REMARK  8 active torsions:
REMARK  status: ('A' for Active; 'I' for Inactive)
REMARK    1  A    between atoms: C_1  and  C_2
REMARK    2  A    between atoms: C_2  and  S_3
REMARK    3  A    between atoms: S_3  and  C_4
REMARK    4  A    between atoms: C_9  and  C_25
REMARK    5  A    between atoms: C_11  and  C_15
REMARK    6  A    between atoms: C_12  and  C_14
REMARK    7  A    between atoms: N_17  and  C_18
REMARK    8  A    between atoms: C_23  and  C_24
REMARK                            x       y       z     vdW  Elec       q    Type
REMARK                         _______ _______ _______ _____ _____    ______ ____
ROOT
ATOM      1  C   UNL     1       1.228   1.757   0.061  0.00  0.00    +0.210 A 
ATOM      2  N   UNL     1      -0.032   1.299   0.028  0.00  0.00    -0.187 NA
ATOM      3  C   UNL     1      -0.022  -0.006   0.012  0.00  0.00    +0.219 A 
ATOM      4  N   UNL     1       1.270  -0.418   0.039  0.00  0.00    -0.220 N 
ATOM      5  N   UNL     1       2.055   0.734   0.067  0.00  0.00    -0.141 NA
ATOM      6  C   UNL     1       1.670  -1.822   0.040  0.00  0.00    +0.179 C 
ATOM      7  C   UNL     1       0.481  -2.683  -0.292  0.00  0.00    +0.060 C 
ATOM      8  C   UNL     1      -0.777  -2.219  -0.307  0.00  0.00    +0.018 C 
ATOM      9  N   UNL     1      -1.077  -0.907  -0.030  0.00  0.00    -0.287 N 
ATOM     10  C   UNL     1      -1.900  -3.167  -0.641  0.00  0.00    +0.061 C 
ATOM     11  H   UNL     1      -2.104  -0.561   0.155  0.00  0.00    +0.155 HD
ENDROOT
BRANCH   6  12
ATOM     12  C   UNL     1       2.195  -2.194   1.403  0.00  0.00    -0.000 A 
ATOM     13  C   UNL     1       3.493  -2.659   1.553  0.00  0.00    +0.009 A 
ATOM     14  C   UNL     1       3.934  -2.985   2.826  0.00  0.00    +0.020 A 
ATOM     15  C   UNL     1       3.068  -2.848   3.894  0.00  0.00    +0.111 A 
ATOM     16  N   UNL     1       1.838  -2.408   3.714  0.00  0.00    -0.263 NA
ATOM     17  C   UNL     1       1.387  -2.083   2.518  0.00  0.00    +0.116 A 
ENDBRANCH   6  12
BRANCH   7  18
ATOM     18  C   UNL     1       0.700  -4.046  -0.603  0.00  0.00    +0.248 C 
ATOM     19  O   UNL     1       1.079  -4.363  -1.716  0.00  0.00    -0.270 OA
ATOM     20  N   UNL     1       0.491  -4.992   0.334  0.00  0.00    -0.281 N 
ATOM     21  H   UNL     1       0.087  -4.713   1.318  0.00  0.00    +0.155 HD
BRANCH  20  22
ATOM     22  C   UNL     1       0.787  -6.330   0.054  0.00  0.00    +0.037 A 
ATOM     23  C   UNL     1       0.779  -6.785  -1.259  0.00  0.00    +0.023 A 
ATOM     24  C   UNL     1       1.076  -8.105  -1.532  0.00  0.00    +0.002 A 
ATOM     25  C   UNL     1       1.371  -8.977  -0.500  0.00  0.00    +0.000 A 
ATOM     26  C   UNL     1       1.374  -8.529   0.808  0.00  0.00    +0.005 A 
ATOM     27  C   UNL     1       1.083  -7.208   1.088  0.00  0.00    -0.029 A 
ATOM     28  C   UNL     1       1.087  -6.720   2.514  0.00  0.00    +0.045 C 
ENDBRANCH  20  22
ENDBRANCH   7  18
BRANCH   1  29
ATOM     29  S   UNL     1       1.700   3.454   0.089  0.00  0.00    -0.085 S 
BRANCH  29  31
ATOM     30  C   UNL     1       0.390   5.855   0.087  0.00  0.00    +0.016 C 
ATOM     31  C   UNL     1       0.122   4.349   0.065  0.00  0.00    +0.074 C 
ENDBRANCH  29  31
ENDBRANCH   1  29
TORSDOF 5
