REMARK  Name = ZINC25337000
REMARK  4 active torsions:
REMARK  status: ('A' for Active; 'I' for Inactive)
REMARK    1  A    between atoms: C_1  and  C_2
REMARK    2  A    between atoms: C_5  and  C_8
REMARK    3  A    between atoms: C_11  and  C_13
REMARK    4  A    between atoms: C_13  and  C_21
REMARK                            x       y       z     vdW  Elec       q    Type
REMARK                         _______ _______ _______ _____ _____    ______ ____
ROOT
ATOM      1  C   UNL     1       0.285  -5.562   1.001  0.00  0.00    +0.079 A 
ATOM      2  C   UNL     1       0.034  -4.271   0.624  0.00  0.00    +0.075 A 
ATOM      3  S   UNL     1      -0.163  -4.472  -1.142  0.00  0.00    -0.074 S 
ATOM      4  C   UNL     1       0.106  -6.239  -1.196  0.00  0.00    +0.121 A 
ATOM      5  N   UNL     1       0.320  -6.512   0.082  0.00  0.00    -0.238 NA
ENDROOT
BRANCH   4   6
ATOM      6  C   UNL     1       0.097  -7.149  -2.358  0.00  0.00    +0.100 C 
ATOM      7  C   UNL     1       0.217  -8.494  -2.170  0.00  0.00    +0.024 C 
ATOM      8  C   UNL     1       0.222  -9.081  -0.813  0.00  0.00    +0.052 C 
ATOM      9  C   UNL     1       1.611  -9.254  -0.173  0.00  0.00    +0.006 C 
ATOM     10  C   UNL     1       2.619  -9.765  -1.234  0.00  0.00    +0.002 C 
ATOM     11  C   UNL     1       2.013 -10.790  -2.154  0.00  0.00    +0.019 C 
ATOM     12  C   UNL     1       1.569 -10.033  -3.411  0.00  0.00    +0.101 C 
ATOM     13  N   UNL     1       0.336  -9.369  -3.255  0.00  0.00    -0.346 N 
ATOM     14  H   UNL     1      -0.400  -9.512  -3.870  0.00  0.00    +0.146 HD
BRANCH   6  15
ATOM     15  C   UNL     1      -0.039  -6.620  -3.682  0.00  0.00    +0.103 C 
ATOM     16  N   UNL     1      -0.146  -6.201  -4.732  0.00  0.00    -0.191 NA
ENDBRANCH   6  15
ENDBRANCH   4   6
BRANCH   1  21
ATOM     17  C   UNL     1       1.203  -6.844   6.540  0.00  0.00    +0.044 C 
ATOM     18  C   UNL     1       0.963  -6.509   5.090  0.00  0.00    -0.050 A 
ATOM     19  C   UNL     1       1.000  -7.509   4.136  0.00  0.00    +0.004 A 
ATOM     20  C   UNL     1       0.781  -7.208   2.807  0.00  0.00    +0.010 A 
ATOM     21  C   UNL     1       0.521  -5.892   2.427  0.00  0.00    +0.001 A 
ATOM     22  C   UNL     1       0.484  -4.888   3.393  0.00  0.00    +0.010 A 
ATOM     23  C   UNL     1       0.700  -5.202   4.720  0.00  0.00    +0.004 A 
ENDBRANCH   1  21
TORSDOF 3
