REMARK  Name = ZINC27563805
REMARK  10 active torsions:
REMARK  status: ('A' for Active; 'I' for Inactive)
REMARK    1  A    between atoms: C_1  and  C_2
REMARK    2  A    between atoms: C_3  and  C_31
REMARK    3  A    between atoms: C_4  and  C_12
REMARK    4  A    between atoms: C_17  and  O_18
REMARK    5  A    between atoms: O_18  and  C_19
REMARK    6  A    between atoms: C_19  and  C_20
REMARK    7  A    between atoms: C_23  and  C_26
REMARK    8  A    between atoms: C_26  and  C_27
REMARK    9  A    between atoms: C_26  and  C_28
REMARK   10  A    between atoms: C_26  and  C_29
REMARK                            x       y       z     vdW  Elec       q    Type
REMARK                         _______ _______ _______ _____ _____    ______ ____
ROOT
ATOM      1  C   UNL     1      -1.810  -2.759   1.234  0.00  0.00    +0.022 A 
ATOM      2  C   UNL     1      -1.096  -2.943   2.402  0.00  0.00    +0.024 A 
ATOM      3  C   UNL     1      -1.730  -3.433   3.530  0.00  0.00    +0.018 A 
ATOM      4  C   UNL     1      -3.079  -3.739   3.491  0.00  0.00    +0.019 A 
ATOM      5  C   UNL     1      -3.795  -3.556   2.324  0.00  0.00    +0.047 A 
ATOM      6  C   UNL     1      -3.163  -3.060   1.193  0.00  0.00    +0.126 A 
ATOM      7 BR   UNL     1      -0.751  -3.684   5.129  0.00  0.00    -0.050 Br
ENDROOT
BRANCH   1  11
ATOM      8  C   UNL     1       2.636  -1.381   0.317  0.00  0.00    +0.066 C 
ATOM      9  C   UNL     1       1.334  -2.023  -0.087  0.00  0.00    +0.052 C 
ATOM     10  C   UNL     1       0.169  -1.548   0.442  0.00  0.00    +0.062 C 
ATOM     11  C   UNL     1      -1.119  -2.226   0.005  0.00  0.00    +0.169 C 
ATOM     12  N   UNL     1      -0.973  -3.329  -0.948  0.00  0.00    -0.191 N 
ATOM     13  C   UNL     1       0.287  -3.674  -1.377  0.00  0.00    +0.258 C 
ATOM     14  N   UNL     1       1.354  -3.031  -0.952  0.00  0.00    -0.217 NA
ATOM     15  N   UNL     1       0.110  -4.706  -2.233  0.00  0.00    -0.094 NA
ATOM     16  N   UNL     1      -1.141  -4.983  -2.333  0.00  0.00    -0.060 NA
ATOM     17  N   UNL     1      -1.851  -4.201  -1.593  0.00  0.00    -0.163 N 
ATOM     18  H   UNL     1      -2.817  -4.216  -1.501  0.00  0.00    +0.195 HD
BRANCH  10  19
ATOM     19  C   UNL     1       0.161  -0.475   1.355  0.00  0.00    +0.241 C 
ATOM     20  O   UNL     1       1.213  -0.021   1.770  0.00  0.00    -0.271 OA
ATOM     21  N   UNL     1      -1.010   0.049   1.768  0.00  0.00    -0.325 N 
ATOM     22  H   UNL     1      -1.847  -0.357   1.494  0.00  0.00    +0.145 HD
ATOM     23  H   UNL     1      -1.015   0.833   2.340  0.00  0.00    +0.145 HD
ENDBRANCH  10  19
ENDBRANCH   1  11
BRANCH   6  24
ATOM     24  O   UNL     1      -3.868  -2.875   0.046  0.00  0.00    -0.487 OA
BRANCH  24  25
ATOM     25  C   UNL     1      -5.257  -3.206   0.077  0.00  0.00    +0.264 C 
BRANCH  25  26
ATOM     26  C   UNL     1      -5.868  -2.937  -1.274  0.00  0.00    -0.010 A 
ATOM     27  C   UNL     1      -6.402  -1.693  -1.556  0.00  0.00    +0.007 A 
ATOM     28  C   UNL     1      -6.963  -1.447  -2.795  0.00  0.00    +0.004 A 
ATOM     29  C   UNL     1      -6.989  -2.443  -3.753  0.00  0.00    -0.042 A 
ATOM     30  C   UNL     1      -6.454  -3.687  -3.471  0.00  0.00    +0.004 A 
ATOM     31  C   UNL     1      -5.890  -3.932  -2.233  0.00  0.00    +0.007 A 
BRANCH  29  32
ATOM     32  C   UNL     1      -7.601  -2.175  -5.103  0.00  0.00    -0.013 C 
ATOM     33  C   UNL     1      -6.851  -1.028  -5.784  0.00  0.00    +0.015 C 
ATOM     34  C   UNL     1      -7.501  -3.434  -5.968  0.00  0.00    +0.015 C 
ATOM     35  C   UNL     1      -9.072  -1.791  -4.930  0.00  0.00    +0.015 C 
ENDBRANCH  29  32
ENDBRANCH  25  26
ENDBRANCH  24  25
ENDBRANCH   6  24
TORSDOF 6
