REMARK  Name = ZINC10445322
REMARK  10 active torsions:
REMARK  status: ('A' for Active; 'I' for Inactive)
REMARK    1  A    between atoms: C_1  and  C_2
REMARK    2  A    between atoms: C_2  and  N_3
REMARK    3  A    between atoms: N_3  and  C_4
REMARK    4  A    between atoms: N_3  and  S_10
REMARK    5  A    between atoms: S_10  and  C_13
REMARK    6  A    between atoms: C_16  and  C_19
REMARK    7  A    between atoms: C_19  and  O_21
REMARK    8  A    between atoms: O_21  and  C_22
REMARK    9  A    between atoms: C_22  and  C_23
REMARK   10  A    between atoms: N_28  and  C_29
REMARK                            x       y       z     vdW  Elec       q    Type
REMARK                         _______ _______ _______ _____ _____    ______ ____
ROOT
ATOM      1  C   UNL     1      -0.539   2.531  12.952  0.00  0.00    +0.109 A 
ATOM      2  C   UNL     1      -0.000   1.260  12.857  0.00  0.00    +0.029 A 
ATOM      3  C   UNL     1       0.348   0.746  11.625  0.00  0.00    +0.017 A 
ATOM      4  C   UNL     1       0.157   1.510  10.473  0.00  0.00    +0.059 A 
ATOM      5  C   UNL     1      -0.382   2.794  10.577  0.00  0.00    +0.017 A 
ATOM      6  C   UNL     1      -0.731   3.295  11.814  0.00  0.00    +0.029 A 
ENDROOT
BRANCH   1   7
ATOM      7  S   UNL     1      -0.982   3.180  14.529  0.00  0.00    +0.075 S 
ATOM      8  O   UNL     1      -1.970   4.175  14.296  0.00  0.00    -0.150 OA
ATOM      9  O   UNL     1      -1.211   2.064  15.378  0.00  0.00    -0.150 OA
BRANCH   7  10
ATOM     10  N   UNL     1       0.348   3.965  15.127  0.00  0.00    -0.203 N 
BRANCH  10  11
ATOM     11  C   UNL     1       1.216   3.303  15.998  0.00  0.00    +0.051 A 
ATOM     12  C   UNL     1       2.550   3.128  15.652  0.00  0.00    +0.025 A 
ATOM     13  C   UNL     1       3.406   2.477  16.519  0.00  0.00    +0.002 A 
ATOM     14  C   UNL     1       2.935   1.992  17.725  0.00  0.00    +0.000 A 
ATOM     15  C   UNL     1       1.607   2.160  18.070  0.00  0.00    +0.002 A 
ATOM     16  C   UNL     1       0.746   2.814  17.210  0.00  0.00    +0.025 A 
ENDBRANCH  10  11
BRANCH  10  18
ATOM     17  C   UNL     1       0.036   6.296  15.798  0.00  0.00    +0.026 C 
ATOM     18  C   UNL     1       0.614   5.353  14.741  0.00  0.00    +0.128 C 
ENDBRANCH  10  18
ENDBRANCH   7  10
ENDBRANCH   1   7
BRANCH   4  19
ATOM     19  C   UNL     1       0.528   0.966   9.151  0.00  0.00    +0.340 C 
ATOM     20  O   UNL     1       1.002  -0.149   9.064  0.00  0.00    -0.245 OA
BRANCH  19  21
ATOM     21  O   UNL     1       0.342   1.707   8.041  0.00  0.00    -0.452 OA
BRANCH  21  22
ATOM     22  C   UNL     1       0.730   1.108   6.776  0.00  0.00    +0.328 C 
BRANCH  22  23
ATOM     23  C   UNL     1       0.450   2.076   5.656  0.00  0.00    +0.258 C 
ATOM     24  O   UNL     1      -0.028   3.163   5.899  0.00  0.00    -0.272 OA
ATOM     25  N   UNL     1       0.733   1.734   4.383  0.00  0.00    -0.237 N 
ATOM     26  C   UNL     1       0.482   2.599   3.381  0.00  0.00    +0.306 C 
ATOM     27  O   UNL     1       0.003   3.689   3.625  0.00  0.00    -0.252 OA
ATOM     28  N   UNL     1       0.765   2.257   2.108  0.00  0.00    -0.296 N 
ATOM     29  H   UNL     1       1.115   0.864   4.189  0.00  0.00    +0.159 HD
ATOM     30  H   UNL     1       1.148   1.387   1.914  0.00  0.00    +0.151 HD
BRANCH  28  31
ATOM     31  C   UNL     1       0.493   3.198   1.019  0.00  0.00    +0.074 C 
ATOM     32  C   UNL     1       1.411   2.912  -0.195  0.00  0.00    +0.022 C 
ATOM     33  C   UNL     1       0.647   3.502  -1.398  0.00  0.00    +0.002 C 
ATOM     34  C   UNL     1      -0.839   3.538  -1.000  0.00  0.00    +0.002 C 
ATOM     35  C   UNL     1      -0.926   2.970   0.431  0.00  0.00    +0.022 C 
ENDBRANCH  28  31
ENDBRANCH  22  23
ENDBRANCH  21  22
ENDBRANCH  19  21
ENDBRANCH   4  19
TORSDOF 9
