REMARK  Name = ZINC22312818
REMARK  12 active torsions:
REMARK  status: ('A' for Active; 'I' for Inactive)
REMARK    1  A    between atoms: C_1  and  C_2
REMARK    2  A    between atoms: C_2  and  C_3
REMARK    3  A    between atoms: C_4  and  C_28
REMARK    4  A    between atoms: C_5  and  C_27
REMARK    5  A    between atoms: C_6  and  C_9
REMARK    6  A    between atoms: C_9  and  O_11
REMARK    7  A    between atoms: O_11  and  C_12
REMARK    8  A    between atoms: C_12  and  C_14
REMARK    9  A    between atoms: C_12  and  C_15
REMARK   10  A    between atoms: N_17  and  C_18
REMARK   11  A    between atoms: C_28  and  O_30
REMARK   12  A    between atoms: O_30  and  C_31
REMARK                            x       y       z     vdW  Elec       q    Type
REMARK                         _______ _______ _______ _____ _____    ______ ____
ROOT
ATOM      1  O   UNL     1       3.108  -0.237   5.875  0.00  0.00    -0.448 OA
ENDROOT
BRANCH   1   2
ATOM      2  C   UNL     1       2.074  -0.858   5.272  0.00  0.00    +0.357 C 
ATOM      3  O   UNL     1       1.732  -0.523   4.154  0.00  0.00    -0.243 OA
BRANCH   2   7
ATOM      4  C   UNL     1       0.787  -3.397   7.531  0.00  0.00    +0.031 A 
ATOM      5  C   UNL     1      -0.074  -3.572   6.463  0.00  0.00    +0.083 A 
ATOM      6  C   UNL     1       0.304  -2.642   5.469  0.00  0.00    -0.005 A 
ATOM      7  C   UNL     1       1.361  -1.936   5.964  0.00  0.00    +0.128 A 
ATOM      8  N   UNL     1       1.644  -2.410   7.227  0.00  0.00    -0.352 N 
ATOM      9  H   UNL     1       2.415  -2.109   7.952  0.00  0.00    +0.166 HD
ATOM     10  C   UNL     1      -0.343  -2.458   4.120  0.00  0.00    +0.047 C 
BRANCH   4  12
ATOM     11  C   UNL     1       1.563  -5.470   8.649  0.00  0.00    +0.010 C 
ATOM     12  C   UNL     1       0.763  -4.177   8.820  0.00  0.00    +0.050 C 
ENDBRANCH   4  12
BRANCH   5  13
ATOM     13  C   UNL     1      -1.173  -4.548   6.376  0.00  0.00    +0.341 C 
ATOM     14  O   UNL     1      -0.966  -5.659   5.928  0.00  0.00    -0.245 OA
BRANCH  13  15
ATOM     15  O   UNL     1      -2.409  -4.209   6.793  0.00  0.00    -0.464 OA
ATOM     16  C   UNL     1      -3.444  -5.221   6.678  0.00  0.00    +0.280 C 
ENDBRANCH  13  15
ENDBRANCH   5  13
ENDBRANCH   2   7
ENDBRANCH   1   2
BRANCH   1  17
ATOM     17  C   UNL     1       3.767   0.821   5.131  0.00  0.00    +0.259 C 
ATOM     18  C   UNL     1       4.909   0.228   4.303  0.00  0.00    +0.062 C 
BRANCH  17  19
ATOM     19  C   UNL     1       4.322   1.841   6.091  0.00  0.00    +0.258 C 
ATOM     20  O   UNL     1       4.256   1.647   7.287  0.00  0.00    -0.271 OA
ATOM     21  N   UNL     1       4.890   2.970   5.622  0.00  0.00    -0.280 N 
ATOM     22  H   UNL     1       5.024   3.109   4.539  0.00  0.00    +0.155 HD
BRANCH  21  23
ATOM     23  C   UNL     1       5.311   3.965   6.514  0.00  0.00    +0.071 A 
ATOM     24  C   UNL     1       4.431   4.966   6.904  0.00  0.00    +0.065 A 
ATOM     25  C   UNL     1       4.848   5.945   7.788  0.00  0.00    +0.042 A 
ATOM     26  C   UNL     1       6.143   5.933   8.275  0.00  0.00    +0.044 A 
ATOM     27  C   UNL     1       7.023   4.939   7.884  0.00  0.00    +0.042 A 
ATOM     28  C   UNL     1       6.611   3.955   7.005  0.00  0.00    +0.065 A 
ATOM     29 CL   UNL     1       7.715   2.709   6.515  0.00  0.00    -0.082 Cl
ATOM     30 CL   UNL     1       6.665   7.167   9.379  0.00  0.00    -0.083 Cl
ATOM     31 CL   UNL     1       2.808   4.986   6.288  0.00  0.00    -0.082 Cl
ENDBRANCH  21  23
ENDBRANCH  17  19
ENDBRANCH   1  17
TORSDOF 8
