REMARK  Name = ZINC49372563
REMARK  3 active torsions:
REMARK  status: ('A' for Active; 'I' for Inactive)
REMARK    1  A    between atoms: C_3  and  C_6
REMARK    2  A    between atoms: N_8  and  C_12
REMARK    3  A    between atoms: C_12  and  C_13
REMARK                            x       y       z     vdW  Elec       q    Type
REMARK                         _______ _______ _______ _____ _____    ______ ____
ROOT
ATOM      1  C   UNL     1       3.568   0.618  -0.029  0.00  0.00    +0.285 A 
ATOM      2  N   UNL     1       4.299  -0.462  -0.047  0.00  0.00    -0.123 NA
ATOM      3  N   UNL     1       5.645  -0.066  -0.056  0.00  0.00    -0.190 N 
ATOM      4  C   UNL     1       5.656   1.284  -0.043  0.00  0.00    +0.439 A 
ATOM      5  O   UNL     1       6.644   1.995  -0.046  0.00  0.00    -0.221 OA
ATOM      6  O   UNL     1       4.379   1.700  -0.031  0.00  0.00    -0.385 OA
ENDROOT
BRANCH   1   9
ATOM      7  C   UNL     1      -0.016   1.344   0.009  0.00  0.00    +0.042 A 
ATOM      8  C   UNL     1       1.324   1.776  -0.001  0.00  0.00    +0.055 A 
ATOM      9  C   UNL     1       2.097   0.654  -0.015  0.00  0.00    +0.191 A 
ATOM     10  O   UNL     1       1.279  -0.418  -0.012  0.00  0.00    -0.458 OA
ATOM     11  C   UNL     1       0.002  -0.004   0.002  0.00  0.00    +0.196 A 
ENDBRANCH   1   9
BRANCH   3  12
ATOM     12  C   UNL     1       6.814  -0.948  -0.076  0.00  0.00    +0.188 C 
BRANCH  12  13
ATOM     13  C   UNL     1       7.229  -1.264   1.338  0.00  0.00    +0.010 A 
ATOM     14  C   UNL     1       8.281  -0.582   1.919  0.00  0.00    +0.023 A 
ATOM     15  C   UNL     1       8.661  -0.872   3.217  0.00  0.00    +0.018 A 
ATOM     16  C   UNL     1       7.989  -1.846   3.934  0.00  0.00    +0.018 A 
ATOM     17  C   UNL     1       6.937  -2.529   3.355  0.00  0.00    +0.040 A 
ATOM     18  C   UNL     1       6.552  -2.234   2.057  0.00  0.00    +0.128 A 
ATOM     19  F   UNL     1       5.519  -2.898   1.492  0.00  0.00    -0.205 F 
ATOM     20 BR   UNL     1      10.101   0.061   4.010  0.00  0.00    -0.050 Br
ENDBRANCH  12  13
ENDBRANCH   3  12
TORSDOF 3
