REMARK  Name = ZINC18330549
REMARK  6 active torsions:
REMARK  status: ('A' for Active; 'I' for Inactive)
REMARK    1  A    between atoms: C_1  and  C_2
REMARK    2  A    between atoms: C_2  and  C_4
REMARK    3  A    between atoms: C_2  and  S_20
REMARK    4  A    between atoms: C_10  and  C_15
REMARK    5  A    between atoms: S_20  and  C_21
REMARK    6  A    between atoms: N_26  and  C_27
REMARK                            x       y       z     vdW  Elec       q    Type
REMARK                         _______ _______ _______ _____ _____    ______ ____
ROOT
ATOM      1  C   UNL     1      -1.839   2.151   1.459  0.00  0.00    +0.027 C 
ATOM      2  C   UNL     1      -1.338   2.025   0.019  0.00  0.00    +0.116 C 
ENDROOT
BRANCH   2   3
ATOM      3  C   UNL     1      -0.016   1.302   0.009  0.00  0.00    +0.124 A 
ATOM      4  N   UNL     1       1.137   2.019   0.002  0.00  0.00    -0.309 N 
ATOM      5  H   UNL     1       1.094   2.988   0.007  0.00  0.00    +0.170 HD
ATOM      6  C   UNL     1       2.338   1.412  -0.012  0.00  0.00    +0.260 A 
ATOM      7  O   UNL     1       3.364   2.071  -0.018  0.00  0.00    -0.267 OA
ATOM      8  C   UNL     1       2.393  -0.017  -0.021  0.00  0.00    +0.083 A 
ATOM      9  C   UNL     1       3.558  -0.896  -0.037  0.00  0.00    +0.039 A 
ATOM     10  C   UNL     1       3.360  -2.239  -0.042  0.00  0.00    +0.059 A 
ATOM     11  S   UNL     1       1.584  -2.395  -0.026  0.00  0.00    -0.076 S 
ATOM     12  C   UNL     1       1.152  -0.674  -0.013  0.00  0.00    +0.116 A 
ATOM     13  N   UNL     1       0.002  -0.004   0.002  0.00  0.00    -0.225 NA
BRANCH   9  14
ATOM     14  C   UNL     1       4.924  -0.336  -0.046  0.00  0.00    +0.136 A 
ATOM     15  C   UNL     1       5.937  -0.689   0.790  0.00  0.00    +0.050 A 
ATOM     16  C   UNL     1       7.054   0.091   0.426  0.00  0.00    +0.042 A 
ATOM     17  C   UNL     1       6.670   0.877  -0.598  0.00  0.00    +0.196 A 
ATOM     18  O   UNL     1       5.382   0.617  -0.881  0.00  0.00    -0.463 OA
ENDBRANCH   9  14
ENDBRANCH   2   3
BRANCH   2  19
ATOM     19  S   UNL     1      -1.129   3.679  -0.696  0.00  0.00    -0.086 S 
BRANCH  19  20
ATOM     20  C   UNL     1      -2.765   4.330  -0.749  0.00  0.00    +0.161 A 
ATOM     21  N   UNL     1      -3.899   3.775  -0.368  0.00  0.00    -0.133 NA
ATOM     22  N   UNL     1      -5.079   4.469  -0.499  0.00  0.00    -0.125 NA
ATOM     23  C   UNL     1      -5.072   5.686  -1.005  0.00  0.00    +0.183 A 
ATOM     24  S   UNL     1      -3.331   5.923  -1.328  0.00  0.00    -0.025 S 
ATOM     25  N   UNL     1      -6.134   6.555  -1.225  0.00  0.00    -0.319 N 
ATOM     26  H   UNL     1      -5.973   7.431  -1.609  0.00  0.00    +0.148 HD
BRANCH  25  27
ATOM     27  C   UNL     1      -7.497   6.149  -0.875  0.00  0.00    +0.072 C 
ATOM     28  C   UNL     1      -8.103   5.350  -2.031  0.00  0.00    +0.022 C 
ATOM     29  C   UNL     1      -9.527   4.925  -1.666  0.00  0.00    +0.002 C 
ATOM     30  C   UNL     1     -10.379   6.169  -1.403  0.00  0.00    +0.000 C 
ATOM     31  C   UNL     1      -9.773   6.968  -0.248  0.00  0.00    +0.002 C 
ATOM     32  C   UNL     1      -8.349   7.393  -0.613  0.00  0.00    +0.022 C 
ENDBRANCH  25  27
ENDBRANCH  19  20
ENDBRANCH   2  19
TORSDOF 5
