REMARK  Name = ZINC27529089
REMARK  8 active torsions:
REMARK  status: ('A' for Active; 'I' for Inactive)
REMARK    1  A    between atoms: C_3  and  N_22
REMARK    2  A    between atoms: C_6  and  C_7
REMARK    3  A    between atoms: C_7  and  C_8
REMARK    4  A    between atoms: C_8  and  N_9
REMARK    5  A    between atoms: N_12  and  C_15
REMARK    6  A    between atoms: N_22  and  C_23
REMARK    7  A    between atoms: C_23  and  C_24
REMARK    8  A    between atoms: C_27  and  N_30
REMARK                            x       y       z     vdW  Elec       q    Type
REMARK                         _______ _______ _______ _____ _____    ______ ____
ROOT
ATOM      1  C   UNL     1      -0.017   1.377   0.010  0.00  0.00    +0.005 A 
ATOM      2  C   UNL     1       0.002  -0.004   0.002  0.00  0.00    +0.023 A 
ATOM      3  C   UNL     1       1.215  -0.681  -0.013  0.00  0.00    +0.027 A 
ATOM      4  C   UNL     1       2.406   0.035  -0.021  0.00  0.00    +0.023 A 
ATOM      5  C   UNL     1       2.380   1.416  -0.013  0.00  0.00    +0.005 A 
ATOM      6  C   UNL     1       1.171   2.086   0.002  0.00  0.00    -0.049 A 
ENDROOT
BRANCH   3   7
ATOM      7  N   UNL     1       1.238  -2.077  -0.021  0.00  0.00    -0.340 N 
ATOM      8  H   UNL     1       0.294  -2.643  -0.016  0.00  0.00    +0.146 HD
BRANCH   7   9
ATOM      9  C   UNL     1       2.518  -2.789  -0.037  0.00  0.00    +0.136 C 
BRANCH   9  10
ATOM     10  C   UNL     1       2.267  -4.275  -0.044  0.00  0.00    -0.030 A 
ATOM     11  C   UNL     1       2.168  -4.964   1.151  0.00  0.00    +0.007 A 
ATOM     12  C   UNL     1       1.933  -6.326   1.145  0.00  0.00    +0.033 A 
ATOM     13  C   UNL     1       1.806  -7.001  -0.055  0.00  0.00    +0.126 A 
ATOM     14  C   UNL     1       1.910  -6.312  -1.249  0.00  0.00    +0.033 A 
ATOM     15  C   UNL     1       2.140  -4.949  -1.244  0.00  0.00    +0.007 A 
BRANCH  13  16
ATOM     16  N   UNL     1       1.560  -8.460  -0.061  0.00  0.00    +0.056 N 
ATOM     17  O   UNL     1       1.447  -9.055  -1.118  0.00  0.00    -0.126 OA
ATOM     18  O   UNL     1       1.469  -9.067   0.991  0.00  0.00    -0.126 OA
ENDBRANCH  13  16
ENDBRANCH   9  10
ENDBRANCH   7   9
ENDBRANCH   3   7
BRANCH   6  19
ATOM     19  C   UNL     1       1.146   3.593   0.010  0.00  0.00    +0.016 C 
BRANCH  19  20
ATOM     20  C   UNL     1       1.151   4.095   1.455  0.00  0.00    -0.074 C 
BRANCH  20  21
ATOM     21  N   UNL     1       1.128   5.564   1.463  0.00  0.00    +0.382 N 
ATOM     22  C   UNL     1       2.369   6.114   0.900  0.00  0.00    -0.060 C 
ATOM     23  C   UNL     1       2.272   7.641   0.853  0.00  0.00    +0.086 C 
ATOM     24  N   UNL     1       2.038   8.156   2.209  0.00  0.00    -0.333 N 
ATOM     25  C   UNL     1       0.797   7.607   2.771  0.00  0.00    +0.086 C 
ATOM     26  C   UNL     1       0.893   6.080   2.819  0.00  0.00    -0.060 C 
ATOM     27  H   UNL     1       0.292   5.891   0.826  0.00  0.00    -0.082 HD
BRANCH  24  28
ATOM     28  C   UNL     1       2.015   9.555   2.216  0.00  0.00    +0.030 A 
ATOM     29  C   UNL     1       0.907  10.229   2.710  0.00  0.00    +0.026 A 
ATOM     30  C   UNL     1       0.888  11.611   2.720  0.00  0.00    +0.040 A 
ATOM     31  C   UNL     1       1.970  12.322   2.230  0.00  0.00    +0.124 A 
ATOM     32  C   UNL     1       3.075  11.651   1.732  0.00  0.00    +0.040 A 
ATOM     33  C   UNL     1       3.099  10.270   1.724  0.00  0.00    +0.026 A 
ATOM     34  F   UNL     1       1.948  13.673   2.237  0.00  0.00    -0.205 F 
ENDBRANCH  24  28
ENDBRANCH  20  21
ENDBRANCH  19  20
ENDBRANCH   6  19
TORSDOF 8
