REMARK  Name = ZINC20685943
REMARK  14 active torsions:
REMARK  status: ('A' for Active; 'I' for Inactive)
REMARK    1  A    between atoms: C_1  and  C_2
REMARK    2  A    between atoms: C_2  and  O_3
REMARK    3  A    between atoms: O_3  and  C_4
REMARK    4  A    between atoms: C_4  and  C_6
REMARK    5  A    between atoms: C_6  and  O_7
REMARK    6  A    between atoms: O_7  and  C_8
REMARK    7  A    between atoms: N_15  and  N_16
REMARK    8  A    between atoms: N_16  and  C_17
REMARK    9  A    between atoms: C_17  and  N_19
REMARK   10  A    between atoms: N_19  and  C_20
REMARK   11  A    between atoms: C_24  and  C_27
REMARK   12  A    between atoms: C_25  and  C_26
REMARK   13  A    between atoms: C_29  and  C_31
REMARK   14  A    between atoms: C_29  and  C_32
REMARK                            x       y       z     vdW  Elec       q    Type
REMARK                         _______ _______ _______ _____ _____    ______ ____
ROOT
ATOM      1  C   UNL     1       6.177   0.211  -1.179  0.00  0.00    +0.122 A 
ATOM      2  C   UNL     1       7.520  -0.121  -1.059  0.00  0.00    +0.049 A 
ATOM      3  C   UNL     1       8.166  -0.008   0.157  0.00  0.00    +0.050 A 
ATOM      4  C   UNL     1       7.476   0.441   1.273  0.00  0.00    +0.131 A 
ATOM      5  C   UNL     1       6.120   0.773   1.153  0.00  0.00    +0.043 A 
ATOM      6  C   UNL     1       5.473   0.659  -0.074  0.00  0.00    +0.059 A 
ATOM      7  C   UNL     1       5.390   1.246   2.350  0.00  0.00    +0.074 C 
ATOM      8  N   UNL     1       4.096   1.354   2.363  0.00  0.00    -0.185 NA
ATOM      9  C   UNL     1       6.234   1.606   3.561  0.00  0.00    +0.110 C 
ATOM     10  C   UNL     1       7.345   0.546   3.663  0.00  0.00    +0.140 C 
ATOM     11  O   UNL     1       8.117   0.556   2.463  0.00  0.00    -0.480 OA
ATOM     12  C   UNL     1       6.720  -0.837   3.857  0.00  0.00    +0.061 C 
ENDROOT
BRANCH  10  13
ATOM     13  C   UNL     1       8.236   0.865   4.837  0.00  0.00    +0.014 A 
ATOM     14  C   UNL     1       9.576   0.511   4.817  0.00  0.00    +0.010 A 
ATOM     15  C   UNL     1      10.358   0.828   5.917  0.00  0.00    +0.020 A 
ATOM     16  C   UNL     1       9.778   1.472   6.993  0.00  0.00    +0.111 A 
ATOM     17  N   UNL     1       8.498   1.789   6.979  0.00  0.00    -0.263 NA
ATOM     18  C   UNL     1       7.725   1.508   5.948  0.00  0.00    +0.118 A 
ENDBRANCH  10  13
BRANCH   8  19
ATOM     19  N   UNL     1       3.442   1.806   3.517  0.00  0.00    -0.218 N 
ATOM     20  H   UNL     1       4.025   2.070   4.412  0.00  0.00    +0.176 HD
BRANCH  19  21
ATOM     21  C   UNL     1       2.099   1.917   3.530  0.00  0.00    +0.154 C 
ATOM     22  S   UNL     1       1.300   2.469   4.940  0.00  0.00    -0.017 S 
BRANCH  21  23
ATOM     23  N   UNL     1       1.385   1.593   2.434  0.00  0.00    -0.295 N 
ATOM     24  H   UNL     1       1.891   1.171   1.553  0.00  0.00    +0.154 HD
BRANCH  23  25
ATOM     25  C   UNL     1       0.001   1.794   2.416  0.00  0.00    +0.036 A 
ATOM     26  C   UNL     1      -0.777   1.371   3.487  0.00  0.00    +0.023 A 
ATOM     27  C   UNL     1      -2.143   1.571   3.466  0.00  0.00    +0.002 A 
ATOM     28  C   UNL     1      -2.737   2.191   2.382  0.00  0.00    +0.004 A 
ATOM     29  C   UNL     1      -1.964   2.617   1.317  0.00  0.00    -0.046 A 
ATOM     30  C   UNL     1      -0.598   2.416   1.329  0.00  0.00    -0.026 A 
ATOM     31  C   UNL     1       0.242   2.876   0.166  0.00  0.00    +0.046 C 
ATOM     32  C   UNL     1      -2.615   3.298   0.140  0.00  0.00    +0.044 C 
ENDBRANCH  23  25
ENDBRANCH  21  23
ENDBRANCH  19  21
ENDBRANCH   8  19
BRANCH   1  33
ATOM     33  O   UNL     1       5.553   0.096  -2.382  0.00  0.00    -0.481 OA
BRANCH  33  34
ATOM     34  C   UNL     1       6.340  -0.373  -3.479  0.00  0.00    +0.349 C 
BRANCH  34  35
ATOM     35  C   UNL     1       5.487  -0.435  -4.719  0.00  0.00    +0.345 C 
ATOM     36  O   UNL     1       4.324  -0.112  -4.669  0.00  0.00    -0.247 OA
BRANCH  35  37
ATOM     37  O   UNL     1       6.018  -0.850  -5.880  0.00  0.00    -0.463 OA
BRANCH  37  39
ATOM     38  C   UNL     1       5.915  -1.380  -8.255  0.00  0.00    +0.048 C 
ATOM     39  C   UNL     1       5.137  -0.885  -7.034  0.00  0.00    +0.229 C 
ENDBRANCH  37  39
ENDBRANCH  35  37
ENDBRANCH  34  35
ENDBRANCH  33  34
ENDBRANCH   1  33
TORSDOF 10
