REMARK  Name = ZINC05018743
REMARK  4 active torsions:
REMARK  status: ('A' for Active; 'I' for Inactive)
REMARK    1  A    between atoms: C_1  and  C_2
REMARK    2  A    between atoms: C_2  and  C_3
REMARK    3  A    between atoms: N_7  and  N_8
REMARK    4  A    between atoms: C_9  and  C_11
REMARK                            x       y       z     vdW  Elec       q    Type
REMARK                         _______ _______ _______ _____ _____    ______ ____
ROOT
ATOM      1  N   UNL     1      -1.065   3.674   0.024  0.00  0.00    -0.203 N 
ATOM      2  C   UNL     1      -1.206   2.334   0.023  0.00  0.00    +0.265 C 
ATOM      3  O   UNL     1      -2.317   1.838   0.035  0.00  0.00    -0.268 OA
ATOM      4  H   UNL     1      -0.180   4.069   0.015  0.00  0.00    +0.178 HD
ENDROOT
BRANCH   2   5
ATOM      5  C   UNL     1      -0.017   1.471   0.009  0.00  0.00    +0.063 A 
ATOM      6  C   UNL     1       1.285   1.875  -0.010  0.00  0.00    +0.096 A 
ATOM      7  N   UNL     1       2.101   0.794  -0.024  0.00  0.00    -0.360 N 
ATOM      8  H   UNL     1       3.070   0.832  -0.038  0.00  0.00    +0.165 HD
ATOM      9  C   UNL     1       1.359  -0.369  -0.015  0.00  0.00    +0.047 A 
ATOM     10  C   UNL     1       0.003  -0.004   0.007  0.00  0.00    +0.012 A 
ATOM     11  C   UNL     1      -0.985  -0.985   0.020  0.00  0.00    +0.011 A 
ATOM     12  C   UNL     1      -0.625  -2.315   0.013  0.00  0.00    +0.001 A 
ATOM     13  C   UNL     1       0.713  -2.678  -0.008  0.00  0.00    +0.002 A 
ATOM     14  C   UNL     1       1.701  -1.717  -0.022  0.00  0.00    +0.026 A 
ENDBRANCH   2   5
BRANCH   1  19
ATOM     15  C   UNL     1      -1.753   8.330   1.335  0.00  0.00    -0.011 C 
ATOM     16  C   UNL     1      -3.080   7.583   1.476  0.00  0.00    +0.009 C 
ATOM     17  C   UNL     1      -3.279   6.664   0.266  0.00  0.00    +0.053 C 
ATOM     18  C   UNL     1      -2.068   5.766   0.140  0.00  0.00    +0.037 C 
ATOM     19  N   UNL     1      -2.199   4.497   0.037  0.00  0.00    -0.189 NA
ATOM     20  C   UNL     1      -0.697   6.406   0.145  0.00  0.00    +0.053 C 
ATOM     21  C   UNL     1      -0.592   7.335   1.355  0.00  0.00    +0.009 C 
BRANCH  15  23
ATOM     22  C   UNL     1      -0.334  10.151   2.289  0.00  0.00    +0.004 C 
ATOM     23  C   UNL     1      -1.598   9.315   2.495  0.00  0.00    +0.000 C 
ENDBRANCH  15  23
ENDBRANCH   1  19
TORSDOF 3
