REMARK  Name = ZINC55307933
REMARK  10 active torsions:
REMARK  status: ('A' for Active; 'I' for Inactive)
REMARK    1  A    between atoms: C_1  and  C_2
REMARK    2  A    between atoms: C_6  and  C_8
REMARK    3  A    between atoms: C_8  and  C_9
REMARK    4  A    between atoms: C_9  and  C_11
REMARK    5  A    between atoms: C_9  and  N_12
REMARK    6  A    between atoms: N_12  and  C_13
REMARK    7  A    between atoms: N_12  and  C_14
REMARK    8  A    between atoms: C_14  and  C_15
REMARK    9  A    between atoms: C_15  and  C_22
REMARK   10  A    between atoms: C_16  and  C_17
REMARK                            x       y       z     vdW  Elec       q    Type
REMARK                         _______ _______ _______ _____ _____    ______ ____
ROOT
ATOM      1  N   UNL     1      -0.725  -5.000   1.564  0.00  0.00    +0.382 N 
ATOM      2  C   UNL     1      -1.735  -6.066   1.559  0.00  0.00    -0.095 C 
ATOM      3  H   UNL     1       0.174  -5.390   1.805  0.00  0.00    -0.081 HD
ENDROOT
BRANCH   1   4
ATOM      4  C   UNL     1      -1.096  -3.978   2.551  0.00  0.00    -0.066 C 
ATOM      5  C   UNL     1      -1.072  -4.590   3.953  0.00  0.00    -0.013 C 
BRANCH   4   6
ATOM      6  C   UNL     1      -0.100  -2.818   2.483  0.00  0.00    +0.040 C 
BRANCH   6  12
ATOM      7  C   UNL     1       0.972   0.022   6.474  0.00  0.00    +0.044 C 
ATOM      8  C   UNL     1       0.028  -0.412   5.383  0.00  0.00    -0.047 A 
ATOM      9  C   UNL     1      -1.233   0.153   5.269  0.00  0.00    +0.023 A 
ATOM     10  C   UNL     1      -2.072  -0.271   4.255  0.00  0.00    +0.111 A 
ATOM     11  N   UNL     1      -1.685  -1.200   3.403  0.00  0.00    -0.260 NA
ATOM     12  C   UNL     1      -0.493  -1.760   3.482  0.00  0.00    +0.040 A 
ATOM     13  C   UNL     1       0.402  -1.382   4.465  0.00  0.00    +0.026 A 
ENDBRANCH   6  12
ENDBRANCH   4   6
ENDBRANCH   1   4
BRANCH   1  14
ATOM     14  C   UNL     1      -0.651  -4.389   0.230  0.00  0.00    -0.048 C 
BRANCH  14  15
ATOM     15  C   UNL     1      -0.173  -5.414  -0.766  0.00  0.00    -0.086 C 
ATOM     16  C   UNL     1      -1.054  -6.108  -1.481  0.00  0.00    +0.043 C 
ATOM     17  C   UNL     1       1.303  -5.653  -0.953  0.00  0.00    +0.037 C 
BRANCH  16  18
ATOM     18  C   UNL     1      -0.598  -7.206  -2.347  0.00  0.00    +0.128 A 
ATOM     19  C   UNL     1      -1.373  -7.919  -3.210  0.00  0.00    +0.049 A 
ATOM     20  C   UNL     1      -0.529  -8.863  -3.827  0.00  0.00    +0.042 A 
ATOM     21  C   UNL     1       0.706  -8.682  -3.318  0.00  0.00    +0.195 A 
ATOM     22  O   UNL     1       0.662  -7.677  -2.428  0.00  0.00    -0.464 OA
ENDBRANCH  16  18
ENDBRANCH  14  15
ENDBRANCH   1  14
TORSDOF 6
