REMARK  Name = ZINC39759602
REMARK  11 active torsions:
REMARK  status: ('A' for Active; 'I' for Inactive)
REMARK    1  A    between atoms: C_1  and  C_2
REMARK    2  A    between atoms: C_2  and  C_3
REMARK    3  A    between atoms: C_3  and  C_4
REMARK    4  A    between atoms: C_10  and  C_12
REMARK    5  A    between atoms: C_12  and  S_13
REMARK    6  A    between atoms: S_13  and  C_14
REMARK    7  A    between atoms: C_17  and  C_20
REMARK    8  A    between atoms: N_18  and  C_19
REMARK    9  A    between atoms: C_20  and  C_21
REMARK   10  A    between atoms: C_21  and  N_22
REMARK   11  A    between atoms: C_23  and  C_25
REMARK                            x       y       z     vdW  Elec       q    Type
REMARK                         _______ _______ _______ _____ _____    ______ ____
ROOT
ATOM      1  C   UNL     1      -1.294 -11.080   0.246  0.00  0.00    +0.192 A 
ATOM      2  N   UNL     1      -1.290 -11.369  -1.034  0.00  0.00    -0.123 NA
ATOM      3  N   UNL     1      -1.276 -12.644  -1.194  0.00  0.00    -0.133 NA
ATOM      4  C   UNL     1      -1.271 -13.240  -0.035  0.00  0.00    +0.135 A 
ATOM      5  N   UNL     1      -1.277 -12.265   0.924  0.00  0.00    -0.309 N 
ATOM      6  C   UNL     1      -1.269 -12.454   2.377  0.00  0.00    +0.152 C 
ENDROOT
BRANCH   1   7
ATOM      7  S   UNL     1      -1.313  -9.467   0.956  0.00  0.00    -0.077 S 
BRANCH   7   8
ATOM      8  C   UNL     1      -1.333  -8.357  -0.478  0.00  0.00    +0.173 C 
BRANCH   8  15
ATOM      9  C   UNL     1      -1.413  -2.041   0.005  0.00  0.00    +0.104 A 
ATOM     10  N   UNL     1      -1.398  -2.891   1.011  0.00  0.00    -0.145 NA
ATOM     11  N   UNL     1      -1.382  -4.131   0.768  0.00  0.00    -0.126 NA
ATOM     12  C   UNL     1      -1.381  -4.599  -0.465  0.00  0.00    +0.188 A 
ATOM     13  S   UNL     1      -1.410  -3.179  -1.373  0.00  0.00    -0.035 S 
ATOM     14  N   UNL     1      -1.366  -5.920  -0.901  0.00  0.00    -0.263 N 
ATOM     15  C   UNL     1      -1.349  -6.926  -0.004  0.00  0.00    +0.229 C 
ATOM     16  O   UNL     1      -1.348  -6.680   1.183  0.00  0.00    -0.275 OA
ATOM     17  H   UNL     1      -1.367  -6.117  -1.851  0.00  0.00    +0.157 HD
BRANCH   9  18
ATOM     18  C   UNL     1      -1.433  -0.534   0.013  0.00  0.00    +0.064 C 
BRANCH  18  20
ATOM     19  C   UNL     1      -0.019   1.526   0.010  0.00  0.00    +0.004 C 
ATOM     20  C   UNL     1       0.002  -0.004   0.002  0.00  0.00    +0.003 C 
ENDBRANCH  18  20
ENDBRANCH   9  18
ENDBRANCH   8  15
ENDBRANCH   7   8
ENDBRANCH   1   7
BRANCH   4  21
ATOM     21  C   UNL     1      -1.255 -14.728   0.203  0.00  0.00    +0.095 C 
BRANCH  21  22
ATOM     22  C   UNL     1       0.193 -15.216   0.287  0.00  0.00    +0.112 C 
BRANCH  22  23
ATOM     23  N   UNL     1       0.208 -16.662   0.519  0.00  0.00    -0.311 N 
ATOM     24  C   UNL     1       1.382 -17.315   0.628  0.00  0.00    +0.244 C 
ATOM     25  O   UNL     1       2.428 -16.703   0.533  0.00  0.00    -0.270 OA
ATOM     26  H   UNL     1      -0.627 -17.150   0.595  0.00  0.00    +0.149 HD
BRANCH  24  27
ATOM     27  C   UNL     1       1.397 -18.774   0.862  0.00  0.00    +0.038 A 
ATOM     28  C   UNL     1       0.197 -19.480   0.966  0.00  0.00    +0.014 A 
ATOM     29  C   UNL     1       0.217 -20.841   1.184  0.00  0.00    +0.022 A 
ATOM     30  C   UNL     1       1.425 -21.509   1.302  0.00  0.00    +0.059 A 
ATOM     31  C   UNL     1       2.620 -20.814   1.200  0.00  0.00    +0.060 A 
ATOM     32  C   UNL     1       2.612 -19.452   0.975  0.00  0.00    +0.034 A 
ATOM     33 CL   UNL     1       4.129 -21.659   1.349  0.00  0.00    -0.082 Cl
ATOM     34 CL   UNL     1       1.442 -23.223   1.578  0.00  0.00    -0.082 Cl
ENDBRANCH  24  27
ENDBRANCH  22  23
ENDBRANCH  21  22
ENDBRANCH   4  21
TORSDOF 9
