REMARK  Name = ZINC62438107
REMARK  9 active torsions:
REMARK  status: ('A' for Active; 'I' for Inactive)
REMARK    1  A    between atoms: C_1  and  C_2
REMARK    2  A    between atoms: C_2  and  C_3
REMARK    3  A    between atoms: C_3  and  C_5
REMARK    4  A    between atoms: C_3  and  N_6
REMARK    5  A    between atoms: N_9  and  C_10
REMARK    6  A    between atoms: C_10  and  C_12
REMARK    7  A    between atoms: C_10  and  C_23
REMARK    8  A    between atoms: C_12  and  C_13
REMARK    9  A    between atoms: C_28  and  C_31
REMARK                            x       y       z     vdW  Elec       q    Type
REMARK                         _______ _______ _______ _____ _____    ______ ____
ROOT
ATOM      1  C   UNL     1       4.999   0.511   3.473  0.00  0.00    +0.165 C 
ENDROOT
BRANCH   1   2
ATOM      2  C   UNL     1       5.968   1.661   3.370  0.00  0.00    +0.236 C 
ATOM      3  O   UNL     1       6.027   2.314   2.350  0.00  0.00    -0.274 OA
ATOM      4  N   UNL     1       6.768   1.963   4.411  0.00  0.00    -0.300 N 
ATOM      5  C   UNL     1       6.800   1.106   5.604  0.00  0.00    +0.108 C 
ATOM      6  C   UNL     1       6.535   1.971   6.840  0.00  0.00    +0.022 C 
ATOM      7  C   UNL     1       7.536   3.129   6.871  0.00  0.00    -0.011 C 
ATOM      8  C   UNL     1       7.351   3.998   5.625  0.00  0.00    +0.022 C 
ATOM      9  C   UNL     1       7.629   3.153   4.372  0.00  0.00    +0.108 C 
ATOM     10  C   UNL     1       7.297   3.976   8.123  0.00  0.00    +0.007 C 
ENDBRANCH   1   2
BRANCH   1  14
ATOM     11  N   UNL     1       1.788   0.319   1.694  0.00  0.00    -0.297 N 
ATOM     12  C   UNL     1       2.752   0.120   2.615  0.00  0.00    +0.300 C 
ATOM     13  O   UNL     1       2.510  -0.522   3.619  0.00  0.00    -0.253 OA
ATOM     14  N   UNL     1       3.984   0.632   2.423  0.00  0.00    -0.288 N 
ATOM     15  H   UNL     1       2.000   0.768   0.861  0.00  0.00    +0.151 HD
ATOM     16  H   UNL     1       4.198   1.081   1.591  0.00  0.00    +0.151 HD
BRANCH  11  17
ATOM     17  C   UNL     1       0.422  -0.142   1.952  0.00  0.00    +0.071 C 
ATOM     18  C   UNL     1       0.313  -1.629   1.608  0.00  0.00    +0.028 C 
BRANCH  17  20
ATOM     19  C   UNL     1      -0.538   2.123   1.516  0.00  0.00    +0.005 C 
ATOM     20  C   UNL     1      -0.557   0.654   1.087  0.00  0.00    +0.019 C 
ENDBRANCH  17  20
ENDBRANCH  11  17
ENDBRANCH   1  14
BRANCH   1  21
ATOM     21  C   UNL     1       5.754  -0.809   3.302  0.00  0.00    +0.069 C 
BRANCH  21  22
ATOM     22  C   UNL     1       6.544  -0.773   2.018  0.00  0.00    -0.020 A 
ATOM     23  C   UNL     1       6.126  -1.190   0.812  0.00  0.00    +0.087 A 
ATOM     24  N   UNL     1       7.115  -1.001  -0.114  0.00  0.00    -0.360 N 
ATOM     25  H   UNL     1       7.047  -1.226  -1.055  0.00  0.00    +0.165 HD
ATOM     26  C   UNL     1       8.222  -0.445   0.488  0.00  0.00    +0.047 A 
ATOM     27  C   UNL     1       7.910  -0.272   1.849  0.00  0.00    +0.003 A 
ATOM     28  C   UNL     1       8.853   0.284   2.715  0.00  0.00    +0.010 A 
ATOM     29  C   UNL     1      10.075   0.662   2.234  0.00  0.00    +0.001 A 
ATOM     30  C   UNL     1      10.386   0.497   0.891  0.00  0.00    +0.002 A 
ATOM     31  C   UNL     1       9.473  -0.059   0.021  0.00  0.00    +0.026 A 
ENDBRANCH  21  22
ENDBRANCH   1  21
TORSDOF 6
