REMARK  Name = ZINC47070176
REMARK  5 active torsions:
REMARK  status: ('A' for Active; 'I' for Inactive)
REMARK    1  A    between atoms: C_6  and  N_7
REMARK    2  A    between atoms: N_7  and  N_8
REMARK    3  A    between atoms: N_11  and  C_12
REMARK    4  A    between atoms: C_12  and  C_13
REMARK    5  A    between atoms: C_13  and  C_14
REMARK                            x       y       z     vdW  Elec       q    Type
REMARK                         _______ _______ _______ _____ _____    ______ ____
ROOT
ATOM      1  N   UNL     1      -1.178  -2.121   0.002  0.00  0.00    -0.220 N 
ATOM      2  C   UNL     1      -2.336  -2.812   0.010  0.00  0.00    +0.316 C 
ATOM      3  O   UNL     1      -2.318  -4.028   0.004  0.00  0.00    -0.251 OA
ATOM      4  N   UNL     1      -3.512  -2.155   0.025  0.00  0.00    -0.298 N 
ATOM      5  H   UNL     1      -0.331  -2.594  -0.009  0.00  0.00    +0.174 HD
ATOM      6  H   UNL     1      -3.526  -1.185   0.031  0.00  0.00    +0.150 HD
ENDROOT
BRANCH   1   7
ATOM      7  N   UNL     1      -1.198  -0.721   0.010  0.00  0.00    -0.263 N 
ATOM      8  H   UNL     1      -2.046  -0.248   0.021  0.00  0.00    +0.170 HD
BRANCH   7  14
ATOM      9  C   UNL     1      -0.017   1.385   0.010  0.00  0.00    +0.027 A 
ATOM     10  C   UNL     1       1.171   2.090   0.002  0.00  0.00    +0.040 A 
ATOM     11  C   UNL     1       2.379   1.414  -0.013  0.00  0.00    +0.124 A 
ATOM     12  C   UNL     1       2.400   0.030  -0.021  0.00  0.00    +0.040 A 
ATOM     13  C   UNL     1       1.215  -0.680  -0.014  0.00  0.00    +0.027 A 
ATOM     14  C   UNL     1       0.002  -0.004   0.002  0.00  0.00    +0.045 A 
ATOM     15  F   UNL     1       3.539   2.107  -0.020  0.00  0.00    -0.205 F 
ENDBRANCH   7  14
ENDBRANCH   1   7
BRANCH   4  16
ATOM     16  C   UNL     1      -4.770  -2.906   0.034  0.00  0.00    +0.110 C 
BRANCH  16  17
ATOM     17  C   UNL     1      -5.947  -1.929   0.051  0.00  0.00    +0.057 C 
BRANCH  17  18
ATOM     18  C   UNL     1      -7.242  -2.701   0.059  0.00  0.00    -0.001 A 
ATOM     19  C   UNL     1      -7.897  -2.964  -1.128  0.00  0.00    +0.045 A 
ATOM     20  C   UNL     1      -9.086  -3.673  -1.120  0.00  0.00    +0.124 A 
ATOM     21  C   UNL     1      -9.620  -4.117   0.077  0.00  0.00    +0.047 A 
ATOM     22  C   UNL     1      -8.966  -3.856   1.267  0.00  0.00    +0.023 A 
ATOM     23  C   UNL     1      -7.771  -3.153   1.260  0.00  0.00    +0.132 A 
ATOM     24  O   UNL     1      -7.112  -2.901   2.422  0.00  0.00    -0.466 OA
ATOM     25  C   UNL     1      -7.854  -3.059   3.635  0.00  0.00    +0.394 C 
ATOM     26  O   UNL     1      -8.551  -4.309   3.585  0.00  0.00    -0.339 OA
ATOM     27  C   UNL     1      -9.559  -4.341   2.565  0.00  0.00    +0.202 C 
ATOM     28  F   UNL     1      -9.726  -3.930  -2.282  0.00  0.00    -0.205 F 
ENDBRANCH  17  18
ENDBRANCH  16  17
ENDBRANCH   4  16
TORSDOF 5
