REMARK  Name = ZINC35130385
REMARK  14 active torsions:
REMARK  status: ('A' for Active; 'I' for Inactive)
REMARK    1  A    between atoms: C_1  and  C_2
REMARK    2  A    between atoms: C_2  and  C_3
REMARK    3  A    between atoms: C_3  and  N_4
REMARK    4  A    between atoms: N_4  and  C_5
REMARK    5  A    between atoms: N_4  and  S_25
REMARK    6  A    between atoms: C_5  and  C_6
REMARK    7  A    between atoms: N_8  and  C_9
REMARK    8  A    between atoms: C_11  and  C_21
REMARK    9  A    between atoms: N_13  and  C_14
REMARK   10  A    between atoms: C_21  and  C_22
REMARK   11  A    between atoms: C_21  and  C_23
REMARK   12  A    between atoms: C_21  and  C_24
REMARK   13  A    between atoms: S_25  and  C_28
REMARK   14  A    between atoms: C_29  and  C_30
REMARK                            x       y       z     vdW  Elec       q    Type
REMARK                         _______ _______ _______ _____ _____    ______ ____
ROOT
ATOM      1  C   UNL     1      -0.317  -2.781  -3.296  0.00  0.00    +0.234 C 
ATOM      2  O   UNL     1       0.660  -2.330  -3.856  0.00  0.00    -0.274 OA
ATOM      3  N   UNL     1      -1.259  -3.434  -4.006  0.00  0.00    -0.269 N 
ATOM      4  H   UNL     1      -2.040  -3.794  -3.558  0.00  0.00    +0.156 HD
ENDROOT
BRANCH   3   5
ATOM      5  C   UNL     1      -1.110  -3.591  -5.383  0.00  0.00    +0.129 A 
ATOM      6  C   UNL     1      -0.133  -3.041  -6.156  0.00  0.00    +0.069 A 
ATOM      7  C   UNL     1      -0.349  -3.448  -7.475  0.00  0.00    +0.071 A 
ATOM      8  N   UNL     1      -1.411  -4.213  -7.505  0.00  0.00    -0.169 NA
ATOM      9  N   UNL     1      -1.910  -4.327  -6.201  0.00  0.00    -0.217 N 
BRANCH   9  10
ATOM     10  C   UNL     1      -3.036  -5.065  -5.810  0.00  0.00    +0.086 A 
ATOM     11  C   UNL     1      -4.002  -4.484  -5.000  0.00  0.00    +0.029 A 
ATOM     12  C   UNL     1      -5.110  -5.213  -4.616  0.00  0.00    +0.002 A 
ATOM     13  C   UNL     1      -5.259  -6.522  -5.037  0.00  0.00    +0.002 A 
ATOM     14  C   UNL     1      -4.299  -7.105  -5.844  0.00  0.00    +0.022 A 
ATOM     15  C   UNL     1      -3.190  -6.378  -6.236  0.00  0.00    +0.066 A 
ATOM     16 CL   UNL     1      -1.989  -7.108  -7.254  0.00  0.00    -0.081 Cl
ENDBRANCH   9  10
BRANCH   7  17
ATOM     17  C   UNL     1       0.498  -3.070  -8.663  0.00  0.00    +0.006 C 
ATOM     18  C   UNL     1       1.807  -3.860  -8.628  0.00  0.00    +0.017 C 
ATOM     19  C   UNL     1      -0.259  -3.394  -9.953  0.00  0.00    +0.017 C 
ATOM     20  C   UNL     1       0.804  -1.572  -8.615  0.00  0.00    +0.017 C 
ENDBRANCH   7  17
ENDBRANCH   3   5
BRANCH   1  21
ATOM     21  C   UNL     1      -0.478  -2.611  -1.808  0.00  0.00    +0.205 C 
BRANCH  21  22
ATOM     22  N   UNL     1       0.669  -1.874  -1.273  0.00  0.00    -0.168 NA
BRANCH  22  23
ATOM     23  S   UNL     1       1.960  -2.696  -0.641  0.00  0.00    +0.055 S 
ATOM     24  O   UNL     1       1.949  -3.987  -1.233  0.00  0.00    -0.153 OA
ATOM     25  O   UNL     1       3.080  -1.826  -0.733  0.00  0.00    -0.153 OA
BRANCH  23  26
ATOM     26  C   UNL     1       1.641  -2.926   1.077  0.00  0.00    +0.153 C 
ATOM     27  C   UNL     1       1.471  -4.148   1.561  0.00  0.00    +0.028 C 
BRANCH  27  28
ATOM     28  C   UNL     1       1.203  -4.341   3.002  0.00  0.00    -0.024 A 
ATOM     29  C   UNL     1       1.123  -3.239   3.853  0.00  0.00    +0.008 A 
ATOM     30  C   UNL     1       0.873  -3.426   5.197  0.00  0.00    +0.001 A 
ATOM     31  C   UNL     1       0.702  -4.703   5.701  0.00  0.00    +0.000 A 
ATOM     32  C   UNL     1       0.781  -5.800   4.862  0.00  0.00    +0.001 A 
ATOM     33  C   UNL     1       1.024  -5.626   3.515  0.00  0.00    +0.008 A 
ENDBRANCH  27  28
ENDBRANCH  23  26
ENDBRANCH  22  23
BRANCH  22  34
ATOM     34  C   UNL     1       0.674  -0.409  -1.298  0.00  0.00    +0.110 C 
BRANCH  34  36
ATOM     35  C   UNL     1      -0.051   1.655  -0.090  0.00  0.00    +0.005 C 
ATOM     36  C   UNL     1      -0.057   0.125  -0.064  0.00  0.00    +0.014 C 
ENDBRANCH  34  36
ENDBRANCH  22  34
ENDBRANCH  21  22
ENDBRANCH   1  21
TORSDOF 10
