REMARK  Name = ZINC09144927
REMARK  13 active torsions:
REMARK  status: ('A' for Active; 'I' for Inactive)
REMARK    1  A    between atoms: C_1  and  C_2
REMARK    2  A    between atoms: C_2  and  C_3
REMARK    3  A    between atoms: C_2  and  C_4
REMARK    4  A    between atoms: C_2  and  O_5
REMARK    5  A    between atoms: O_5  and  C_6
REMARK    6  A    between atoms: C_15  and  C_27
REMARK    7  A    between atoms: C_17  and  C_23
REMARK    8  A    between atoms: C_17  and  C_25
REMARK    9  A    between atoms: C_18  and  N_22
REMARK   10  A    between atoms: C_19  and  C_20
REMARK   11  A    between atoms: C_30  and  C_33
REMARK   12  A    between atoms: C_33  and  O_35
REMARK   13  A    between atoms: O_35  and  C_36
REMARK                            x       y       z     vdW  Elec       q    Type
REMARK                         _______ _______ _______ _____ _____    ______ ____
ROOT
ATOM      1  C   UNL     1      -3.380   4.435  -2.970  0.00  0.00    +0.404 C 
ATOM      2  O   UNL     1      -2.994   5.576  -3.127  0.00  0.00    -0.226 OA
ATOM      3  N   UNL     1      -3.231   3.832  -1.774  0.00  0.00    -0.263 N 
ATOM      4  C   UNL     1      -3.689   2.449  -1.548  0.00  0.00    +0.138 C 
ATOM      5  C   UNL     1      -2.498   1.663  -1.062  0.00  0.00    -0.003 C 
ATOM      6  C   UNL     1      -1.514   2.248  -0.410  0.00  0.00    -0.026 C 
ATOM      7  C   UNL     1      -1.488   3.703  -0.045  0.00  0.00    +0.048 C 
ATOM      8  C   UNL     1      -2.608   4.524  -0.641  0.00  0.00    +0.120 C 
ATOM      9  C   UNL     1      -0.110   4.261  -0.404  0.00  0.00    +0.068 C 
ATOM     10  C   UNL     1       0.946   3.556   0.448  0.00  0.00    +0.188 C 
ATOM     11  C   UNL     1       0.799   2.066   0.392  0.00  0.00    +0.054 C 
ATOM     12  C   UNL     1      -0.340   1.436   0.010  0.00  0.00    +0.074 C 
ENDROOT
BRANCH   9  13
ATOM     13  C   UNL     1      -0.075   5.742  -0.129  0.00  0.00    -0.041 A 
ATOM     14  C   UNL     1       0.497   6.601  -1.051  0.00  0.00    +0.005 A 
ATOM     15  C   UNL     1       0.528   7.958  -0.808  0.00  0.00    +0.015 A 
ATOM     16  C   UNL     1      -0.009   8.464   0.378  0.00  0.00    +0.059 A 
ATOM     17  C   UNL     1      -0.580   7.591   1.306  0.00  0.00    +0.015 A 
ATOM     18  C   UNL     1      -0.609   6.237   1.048  0.00  0.00    +0.005 A 
BRANCH  16  19
ATOM     19  C   UNL     1       0.026   9.916   0.648  0.00  0.00    +0.339 C 
ATOM     20  O   UNL     1      -0.442  10.353   1.681  0.00  0.00    -0.245 OA
BRANCH  19  21
ATOM     21  O   UNL     1       0.578  10.755  -0.250  0.00  0.00    -0.464 OA
ATOM     22  C   UNL     1       0.578  12.169   0.082  0.00  0.00    +0.280 C 
ENDBRANCH  19  21
ENDBRANCH  16  19
ENDBRANCH   9  13
BRANCH  11  23
ATOM     23  N   UNL     1       1.873   1.298   0.745  0.00  0.00    -0.358 N 
ATOM     24  H   UNL     1       1.799   0.201   0.715  0.00  0.00    +0.142 HD
ATOM     25  H   UNL     1       2.812   1.777   1.059  0.00  0.00    +0.142 HD
ENDBRANCH  11  23
BRANCH  12  26
ATOM     26  C   UNL     1      -0.410   0.005   0.005  0.00  0.00    +0.101 C 
ATOM     27  N   UNL     1      -0.465  -1.129   0.001  0.00  0.00    -0.191 NA
ENDBRANCH  12  26
BRANCH  10  28
ATOM     28  C   UNL     1       0.810   3.999   1.845  0.00  0.00    +0.091 C 
ATOM     29  N   UNL     1       0.705   4.342   2.923  0.00  0.00    -0.194 NA
ENDBRANCH  10  28
BRANCH  10  30
ATOM     30  C   UNL     1       2.283   3.925  -0.045  0.00  0.00    +0.091 C 
ATOM     31  N   UNL     1       3.315   4.211  -0.425  0.00  0.00    -0.194 NA
ENDBRANCH  10  30
BRANCH   1  32
ATOM     32  O   UNL     1      -3.957   3.772  -3.990  0.00  0.00    -0.445 OA
BRANCH  32  34
ATOM     33  C   UNL     1      -2.695   4.884  -5.752  0.00  0.00    +0.055 C 
ATOM     34  C   UNL     1      -4.084   4.483  -5.250  0.00  0.00    +0.107 C 
ATOM     35  C   UNL     1      -4.758   3.577  -6.282  0.00  0.00    +0.055 C 
ATOM     36  C   UNL     1      -4.933   5.739  -5.043  0.00  0.00    +0.055 C 
ENDBRANCH  32  34
ENDBRANCH   1  32
TORSDOF 9
