REMARK  Name = ZINC63732007
REMARK  7 active torsions:
REMARK  status: ('A' for Active; 'I' for Inactive)
REMARK    1  A    between atoms: C_7  and  C_10
REMARK    2  A    between atoms: C_10  and  C_11
REMARK    3  A    between atoms: C_11  and  C_13
REMARK    4  A    between atoms: C_11  and  N_23
REMARK    5  A    between atoms: N_15  and  C_16
REMARK    6  A    between atoms: N_23  and  S_24
REMARK    7  A    between atoms: S_24  and  C_27
REMARK                            x       y       z     vdW  Elec       q    Type
REMARK                         _______ _______ _______ _____ _____    ______ ____
ROOT
ATOM      1  C   UNL     1       0.333  -3.669  -1.476  0.00  0.00    +0.166 C 
ENDROOT
BRANCH   1   2
ATOM      2  C   UNL     1      -0.738  -4.725  -1.578  0.00  0.00    +0.232 C 
ATOM      3  O   UNL     1      -0.495  -5.786  -2.114  0.00  0.00    -0.274 OA
ATOM      4  N   UNL     1      -1.966  -4.490  -1.074  0.00  0.00    -0.311 N 
ATOM      5  H   UNL     1      -2.160  -3.642  -0.645  0.00  0.00    +0.149 HD
BRANCH   4   6
ATOM      6  C   UNL     1      -3.007  -5.517  -1.173  0.00  0.00    +0.073 C 
ATOM      7  C   UNL     1      -3.651  -5.441  -2.572  0.00  0.00    +0.022 C 
ATOM      8  C   UNL     1      -4.320  -6.758  -2.862  0.00  0.00    +0.002 C 
ATOM      9  C   UNL     1      -5.815  -6.754  -2.488  0.00  0.00    +0.000 C 
ATOM     10  C   UNL     1      -6.093  -6.049  -1.146  0.00  0.00    +0.000 C 
ATOM     11  C   UNL     1      -5.075  -6.392  -0.093  0.00  0.00    +0.002 C 
ATOM     12  C   UNL     1      -3.974  -5.311  -0.105  0.00  0.00    +0.022 C 
ENDBRANCH   4   6
ENDBRANCH   1   2
BRANCH   1  13
ATOM     13  N   UNL     1       1.566  -4.163  -2.094  0.00  0.00    -0.178 NA
ATOM     14  H   UNL     1       2.183  -4.706  -1.579  0.00  0.00    +0.149 HD
BRANCH  13  15
ATOM     15  S   UNL     1       1.906  -3.796  -3.673  0.00  0.00    +0.059 S 
ATOM     16  O   UNL     1       3.162  -4.391  -3.966  0.00  0.00    -0.153 OA
ATOM     17  O   UNL     1       0.732  -4.087  -4.419  0.00  0.00    -0.153 OA
BRANCH  15  18
ATOM     18  C   UNL     1       2.141  -2.052  -3.763  0.00  0.00    +0.106 A 
ATOM     19  C   UNL     1       1.051  -1.217  -3.925  0.00  0.00    +0.030 A 
ATOM     20  C   UNL     1       1.231   0.151  -3.996  0.00  0.00    +0.025 A 
ATOM     21  C   UNL     1       2.509   0.686  -3.904  0.00  0.00    +0.037 A 
ATOM     22  C   UNL     1       3.601  -0.156  -3.741  0.00  0.00    -0.024 A 
ATOM     23  C   UNL     1       3.414  -1.522  -3.666  0.00  0.00    +0.034 A 
ATOM     24  C   UNL     1       4.987   0.425  -3.641  0.00  0.00    +0.046 C 
ATOM     25  C   UNL     1       5.084   1.672  -4.521  0.00  0.00    +0.101 C 
ATOM     26  C   UNL     1       3.912   2.578  -4.258  0.00  0.00    +0.218 C 
ATOM     27  O   UNL     1       4.062   3.781  -4.301  0.00  0.00    -0.275 OA
ATOM     28  N   UNL     1       2.699   2.070  -3.975  0.00  0.00    -0.285 N 
ATOM     29  H   UNL     1       1.950   2.667  -3.819  0.00  0.00    +0.155 HD
ENDBRANCH  15  18
ENDBRANCH  13  15
ENDBRANCH   1  13
BRANCH   1  30
ATOM     30  C   UNL     1       0.593  -3.348  -0.004  0.00  0.00    +0.063 C 
BRANCH  30  37
ATOM     31  C   UNL     1       0.188   1.206   0.385  0.00  0.00    +0.001 A 
ATOM     32  C   UNL     1       1.418   1.877   0.447  0.00  0.00    +0.002 A 
ATOM     33  C   UNL     1       2.603   1.232   0.398  0.00  0.00    +0.026 A 
ATOM     34  C   UNL     1       2.646  -0.184   0.277  0.00  0.00    +0.043 A 
ATOM     35  N   UNL     1       3.651  -1.024   0.209  0.00  0.00    -0.380 N 
ATOM     36  C   UNL     1       3.116  -2.385   0.090  0.00  0.00    +0.144 C 
ATOM     37  C   UNL     1       1.610  -2.240   0.096  0.00  0.00    -0.040 C 
ATOM     38  C   UNL     1       1.361  -0.915   0.209  0.00  0.00    -0.001 A 
ATOM     39  C   UNL     1       0.117  -0.139   0.270  0.00  0.00    +0.010 A 
ATOM     40  H   UNL     1       4.591  -0.785   0.233  0.00  0.00    +0.160 HD
ENDBRANCH  30  37
ENDBRANCH   1  30
TORSDOF 7
