REMARK  Name = ZINC21874817
REMARK  12 active torsions:
REMARK  status: ('A' for Active; 'I' for Inactive)
REMARK    1  A    between atoms: C_1  and  C_2
REMARK    2  A    between atoms: C_2  and  O_3
REMARK    3  A    between atoms: O_3  and  C_4
REMARK    4  A    between atoms: C_6  and  C_16
REMARK    5  A    between atoms: C_8  and  O_13
REMARK    6  A    between atoms: C_9  and  O_10
REMARK    7  A    between atoms: O_10  and  C_11
REMARK    8  A    between atoms: C_11  and  C_12
REMARK    9  A    between atoms: O_13  and  C_14
REMARK   10  A    between atoms: C_14  and  C_15
REMARK   11  A    between atoms: N_18  and  N_19
REMARK   12  A    between atoms: C_20  and  C_22
REMARK                            x       y       z     vdW  Elec       q    Type
REMARK                         _______ _______ _______ _____ _____    ______ ____
ROOT
ATOM      1  C   UNL     1      -1.126   7.541   1.859  0.00  0.00    +0.260 C 
ATOM      2  O   UNL     1      -2.090   8.133   1.415  0.00  0.00    -0.269 OA
ATOM      3  N   UNL     1      -0.162   8.218   2.514  0.00  0.00    -0.230 N 
ATOM      4  H   UNL     1       0.710   7.683   2.917  0.00  0.00    +0.173 HD
ENDROOT
BRANCH   1   7
ATOM      5  C   UNL     1       0.200   4.030   2.030  0.00  0.00    +0.166 A 
ATOM      6  C   UNL     1       0.097   5.399   2.192  0.00  0.00    +0.062 A 
ATOM      7  C   UNL     1      -1.010   6.080   1.682  0.00  0.00    +0.045 A 
ATOM      8  C   UNL     1      -2.008   5.377   1.003  0.00  0.00    +0.062 A 
ATOM      9  C   UNL     1      -1.898   4.008   0.838  0.00  0.00    +0.166 A 
ATOM     10  C   UNL     1      -0.793   3.332   1.349  0.00  0.00    +0.204 A 
BRANCH   5  11
ATOM     11  O   UNL     1       1.275   3.365   2.532  0.00  0.00    -0.488 OA
BRANCH  11  13
ATOM     12  C   UNL     1       3.382   3.229   3.708  0.00  0.00    +0.048 C 
ATOM     13  C   UNL     1       2.256   4.144   3.219  0.00  0.00    +0.226 C 
ENDBRANCH  11  13
ENDBRANCH   5  11
BRANCH  10  14
ATOM     14  O   UNL     1      -0.688   1.987   1.186  0.00  0.00    -0.485 OA
BRANCH  14  15
ATOM     15  C   UNL     1      -0.019   1.526   0.010  0.00  0.00    +0.226 C 
ATOM     16  C   UNL     1       0.002  -0.004   0.002  0.00  0.00    +0.048 C 
ENDBRANCH  14  15
ENDBRANCH  10  14
BRANCH   9  17
ATOM     17  O   UNL     1      -2.869   3.323   0.178  0.00  0.00    -0.488 OA
BRANCH  17  18
ATOM     18  C   UNL     1      -3.974   4.081  -0.319  0.00  0.00    +0.226 C 
ATOM     19  C   UNL     1      -4.957   3.146  -1.027  0.00  0.00    +0.048 C 
ENDBRANCH  17  18
ENDBRANCH   9  17
ENDBRANCH   1   7
BRANCH   3  20
ATOM     20  N   UNL     1      -0.272   9.605   2.683  0.00  0.00    -0.230 N 
ATOM     21  C   UNL     1       0.692  10.282   3.338  0.00  0.00    +0.260 C 
ATOM     22  O   UNL     1       1.656   9.690   3.782  0.00  0.00    -0.269 OA
ATOM     23  H   UNL     1      -1.145  10.140   2.281  0.00  0.00    +0.173 HD
BRANCH  21  24
ATOM     24  C   UNL     1       0.576  11.744   3.516  0.00  0.00    +0.039 A 
ATOM     25  C   UNL     1      -0.534  12.427   2.998  0.00  0.00    +0.015 A 
ATOM     26  C   UNL     1      -0.658  13.774   3.161  0.00  0.00    +0.027 A 
ATOM     27  C   UNL     1       0.326  14.495   3.834  0.00  0.00    +0.047 A 
ATOM     28  C   UNL     1       1.451  13.821   4.354  0.00  0.00    +0.004 A 
ATOM     29  C   UNL     1       1.571  12.442   4.192  0.00  0.00    +0.023 A 
ATOM     30  C   UNL     1       2.274  14.848   4.986  0.00  0.00    -0.019 A 
ATOM     31  C   UNL     1       1.638  16.024   4.827  0.00  0.00    +0.020 A 
ATOM     32  N   UNL     1       0.473  15.827   4.140  0.00  0.00    -0.358 N 
ATOM     33  H   UNL     1      -0.295  16.550   3.830  0.00  0.00    +0.166 HD
ATOM     34  C   UNL     1       2.170  17.340   5.347  0.00  0.00    +0.053 C 
ATOM     35  C   UNL     1       3.252  17.050   6.393  0.00  0.00    +0.006 C 
ATOM     36  C   UNL     1       4.260  16.049   5.821  0.00  0.00    +0.005 C 
ATOM     37  C   UNL     1       3.593  14.674   5.693  0.00  0.00    +0.037 C 
ENDBRANCH  21  24
ENDBRANCH   3  20
TORSDOF 9
