REMARK  Name = ZINC58993106
REMARK  10 active torsions:
REMARK  status: ('A' for Active; 'I' for Inactive)
REMARK    1  A    between atoms: C_4  and  C_7
REMARK    2  A    between atoms: C_7  and  S_8
REMARK    3  A    between atoms: S_8  and  C_9
REMARK    4  A    between atoms: C_14  and  N_15
REMARK    5  A    between atoms: C_16  and  C_18
REMARK    6  A    between atoms: C_18  and  S_19
REMARK    7  A    between atoms: S_19  and  C_20
REMARK    8  A    between atoms: N_25  and  N_26
REMARK    9  A    between atoms: C_27  and  C_28
REMARK   10  A    between atoms: C_32  and  N_34
REMARK                            x       y       z     vdW  Elec       q    Type
REMARK                         _______ _______ _______ _____ _____    ______ ____
ROOT
ATOM      1  S   UNL     1       7.165  -3.018   7.583  0.00  0.00    -0.075 S 
ENDROOT
BRANCH   1   2
ATOM      2  C   UNL     1       6.351  -2.705   9.114  0.00  0.00    +0.211 A 
ATOM      3  N   UNL     1       6.796  -3.073  10.320  0.00  0.00    -0.186 NA
ATOM      4  C   UNL     1       5.945  -2.680  11.245  0.00  0.00    +0.232 A 
ATOM      5  N   UNL     1       4.926  -2.043  10.630  0.00  0.00    -0.245 N 
ATOM      6  N   UNL     1       5.213  -2.068   9.256  0.00  0.00    -0.144 NA
ATOM      7  N   UNL     1       6.073  -2.884  12.607  0.00  0.00    -0.205 N 
ATOM      8  H   UNL     1       5.391  -2.555  13.212  0.00  0.00    +0.177 HD
ATOM      9  H   UNL     1       4.150  -1.645  11.054  0.00  0.00    +0.192 HD
BRANCH   7  10
ATOM     10  N   UNL     1       7.189  -3.564  13.111  0.00  0.00    -0.188 NA
ATOM     11  C   UNL     1       7.309  -3.756  14.389  0.00  0.00    +0.138 C 
BRANCH  11  12
ATOM     12  C   UNL     1       8.484  -4.472  14.921  0.00  0.00    -0.003 A 
ATOM     13  C   UNL     1       9.472  -4.941  14.052  0.00  0.00    +0.009 A 
ATOM     14  C   UNL     1      10.568  -5.610  14.555  0.00  0.00    +0.003 A 
ATOM     15  C   UNL     1      10.690  -5.817  15.918  0.00  0.00    +0.033 A 
ATOM     16  C   UNL     1       9.715  -5.355  16.785  0.00  0.00    +0.127 A 
ATOM     17  C   UNL     1       8.616  -4.680  16.296  0.00  0.00    +0.042 A 
BRANCH  16  18
ATOM     18  N   UNL     1       9.854  -5.582  18.241  0.00  0.00    +0.056 N 
ATOM     19  O   UNL     1      10.819  -6.170  18.672  0.00  0.00    -0.126 OA
ATOM     20  O   UNL     1       9.003  -5.179  19.000  0.00  0.00    -0.126 OA
ENDBRANCH  16  18
ENDBRANCH  11  12
ENDBRANCH   7  10
ENDBRANCH   1   2
BRANCH   1  21
ATOM     21  C   UNL     1       6.072  -2.270   6.343  0.00  0.00    +0.173 C 
BRANCH  21  23
ATOM     22  N   UNL     1       6.015  -1.993   3.886  0.00  0.00    -0.284 N 
ATOM     23  C   UNL     1       6.660  -2.469   4.970  0.00  0.00    +0.228 C 
ATOM     24  O   UNL     1       7.712  -3.058   4.840  0.00  0.00    -0.275 OA
ATOM     25  H   UNL     1       5.216  -1.454   3.995  0.00  0.00    +0.155 HD
BRANCH  22  31
ATOM     26  C   UNL     1       6.198  -1.429   1.537  0.00  0.00    +0.029 A 
ATOM     27  C   UNL     1       6.686  -1.713   0.269  0.00  0.00    +0.016 A 
ATOM     28  C   UNL     1       7.463  -2.838   0.064  0.00  0.00    +0.001 A 
ATOM     29  C   UNL     1       7.756  -3.682   1.119  0.00  0.00    +0.002 A 
ATOM     30  C   UNL     1       7.275  -3.406   2.386  0.00  0.00    +0.024 A 
ATOM     31  C   UNL     1       6.500  -2.277   2.602  0.00  0.00    +0.047 A 
BRANCH  26  32
ATOM     32  S   UNL     1       5.208   0.004   1.802  0.00  0.00    -0.119 S 
BRANCH  32  33
ATOM     33  C   UNL     1       5.095   0.769   0.161  0.00  0.00    +0.109 C 
BRANCH  33  37
ATOM     34  C   UNL     1       2.736   4.322   0.402  0.00  0.00    +0.000 A 
ATOM     35  C   UNL     1       4.103   4.386   0.594  0.00  0.00    +0.000 A 
ATOM     36  C   UNL     1       4.867   3.236   0.516  0.00  0.00    +0.004 A 
ATOM     37  C   UNL     1       4.263   2.023   0.247  0.00  0.00    -0.037 A 
ATOM     38  C   UNL     1       2.895   1.959   0.056  0.00  0.00    +0.004 A 
ATOM     39  C   UNL     1       2.132   3.109   0.132  0.00  0.00    +0.000 A 
ENDBRANCH  33  37
ENDBRANCH  32  33
ENDBRANCH  26  32
ENDBRANCH  22  31
ENDBRANCH  21  23
ENDBRANCH   1  21
TORSDOF 10
