REMARK  Name = ZINC04631453
REMARK  11 active torsions:
REMARK  status: ('A' for Active; 'I' for Inactive)
REMARK    1  A    between atoms: C_1  and  C_2
REMARK    2  A    between atoms: C_2  and  C_3
REMARK    3  A    between atoms: C_2  and  O_4
REMARK    4  A    between atoms: O_4  and  C_5
REMARK    5  A    between atoms: C_8  and  C_11
REMARK    6  A    between atoms: C_14  and  C_25
REMARK    7  A    between atoms: C_20  and  N_24
REMARK    8  A    between atoms: C_21  and  C_22
REMARK    9  A    between atoms: C_25  and  C_26
REMARK   10  A    between atoms: C_25  and  C_27
REMARK   11  A    between atoms: C_25  and  C_28
REMARK                            x       y       z     vdW  Elec       q    Type
REMARK                         _______ _______ _______ _____ _____    ______ ____
ROOT
ATOM      1  C   UNL     1      -2.600  -1.040   6.252  0.00  0.00    +0.101 C 
ATOM      2  C   UNL     1      -2.161  -2.427   6.649  0.00  0.00    +0.050 A 
ATOM      3  C   UNL     1      -2.458  -3.611   6.092  0.00  0.00    +0.049 A 
ATOM      4  N   UNL     1      -1.823  -4.570   6.805  0.00  0.00    -0.277 N 
ATOM      5  H   UNL     1      -1.855  -5.524   6.631  0.00  0.00    +0.189 HD
ATOM      6  N   UNL     1      -1.109  -3.944   7.839  0.00  0.00    -0.135 NA
ATOM      7  C   UNL     1      -1.309  -2.661   7.750  0.00  0.00    +0.245 A 
ATOM      8  O   UNL     1      -0.835  -1.647   8.523  0.00  0.00    -0.421 OA
ATOM      9  C   UNL     1      -1.410  -0.437   8.381  0.00  0.00    +0.201 C 
ATOM     10  C   UNL     1      -2.231  -0.093   7.365  0.00  0.00    +0.098 C 
ENDROOT
BRANCH   1  14
ATOM     11  C   UNL     1      -0.618   0.126   2.650  0.00  0.00    +0.121 A 
ATOM     12  C   UNL     1      -1.971   0.385   2.814  0.00  0.00    +0.046 A 
ATOM     13  C   UNL     1      -2.610   0.007   3.979  0.00  0.00    +0.008 A 
ATOM     14  C   UNL     1      -1.901  -0.629   4.982  0.00  0.00    -0.034 A 
ATOM     15  C   UNL     1      -0.553  -0.888   4.821  0.00  0.00    +0.008 A 
ATOM     16  C   UNL     1       0.089  -0.517   3.655  0.00  0.00    +0.046 A 
BRANCH  11  17
ATOM     17  O   UNL     1       0.012   0.497   1.505  0.00  0.00    -0.489 OA
BRANCH  17  19
ATOM     18  C   UNL     1      -0.765   2.711   0.929  0.00  0.00    +0.051 C 
ATOM     19  C   UNL     1      -0.757   1.229   0.549  0.00  0.00    +0.167 C 
ATOM     20  C   UNL     1      -0.137   1.063  -0.840  0.00  0.00    +0.051 C 
ENDBRANCH  17  19
ENDBRANCH  11  17
ENDBRANCH   1  14
BRANCH   3  21
ATOM     21  C   UNL     1      -3.341  -3.833   4.891  0.00  0.00    +0.004 C 
ATOM     22  C   UNL     1      -3.558  -5.334   4.688  0.00  0.00    +0.017 C 
ATOM     23  C   UNL     1      -4.690  -3.148   5.116  0.00  0.00    +0.017 C 
ATOM     24  C   UNL     1      -2.670  -3.242   3.649  0.00  0.00    +0.017 C 
ENDBRANCH   3  21
BRANCH   9  25
ATOM     25  N   UNL     1      -1.143   0.513   9.335  0.00  0.00    -0.328 N 
ATOM     26  H   UNL     1      -0.558   0.302  10.079  0.00  0.00    +0.145 HD
ATOM     27  H   UNL     1      -1.540   1.396   9.265  0.00  0.00    +0.145 HD
ENDBRANCH   9  25
BRANCH  10  28
ATOM     28  C   UNL     1      -2.776   1.231   7.344  0.00  0.00    +0.101 C 
ATOM     29  N   UNL     1      -3.208   2.281   7.328  0.00  0.00    -0.191 NA
ENDBRANCH  10  28
TORSDOF 6
