REMARK  Name = ZINC39664149
REMARK  9 active torsions:
REMARK  status: ('A' for Active; 'I' for Inactive)
REMARK    1  A    between atoms: C_1  and  C_2
REMARK    2  A    between atoms: C_7  and  C_8
REMARK    3  A    between atoms: C_12  and  C_21
REMARK    4  A    between atoms: N_23  and  C_24
REMARK    5  A    between atoms: C_24  and  C_25
REMARK    6  A    between atoms: C_25  and  C_27
REMARK    7  A    between atoms: C_25  and  N_35
REMARK    8  A    between atoms: C_30  and  O_33
REMARK    9  A    between atoms: O_33  and  C_34
REMARK                            x       y       z     vdW  Elec       q    Type
REMARK                         _______ _______ _______ _____ _____    ______ ____
ROOT
ATOM      1  C   UNL     1       0.064   0.435   2.672  0.00  0.00    +0.247 C 
ATOM      2  O   UNL     1      -0.144   1.632   2.709  0.00  0.00    -0.270 OA
ATOM      3  N   UNL     1       0.247  -0.253   3.817  0.00  0.00    -0.296 N 
ATOM      4  C   UNL     1       0.609  -1.681   3.970  0.00  0.00    +0.121 C 
ATOM      5  C   UNL     1       1.602  -1.707   5.154  0.00  0.00    +0.100 C 
ATOM      6  C   UNL     1       1.280  -0.439   5.963  0.00  0.00    -0.004 C 
ATOM      7  C   UNL     1       0.136   0.251   5.207  0.00  0.00    +0.115 C 
ATOM      8  C   UNL     1       0.835  -0.811   7.374  0.00  0.00    -0.010 C 
ATOM      9  C   UNL     1       0.577   0.467   8.177  0.00  0.00    -0.082 C 
ATOM     10  N   UNL     1       1.803   1.272   8.226  0.00  0.00    +0.379 N 
ATOM     11  C   UNL     1       2.174   1.704   6.872  0.00  0.00    -0.082 C 
ATOM     12  C   UNL     1       2.499   0.477   6.015  0.00  0.00    -0.010 C 
ATOM     13  H   UNL     1       1.649   2.083   8.806  0.00  0.00    -0.086 HD
ATOM     14  H   UNL     1       2.551   0.720   8.618  0.00  0.00    -0.086 HD
ENDROOT
BRANCH   1  21
ATOM     15  C   UNL     1      -2.098   0.764   0.780  0.00  0.00    +0.044 C 
ATOM     16  C   UNL     1      -0.919  -0.115   0.451  0.00  0.00    -0.038 A 
ATOM     17  C   UNL     1      -0.861  -0.768  -0.764  0.00  0.00    +0.007 A 
ATOM     18  C   UNL     1       0.220  -1.575  -1.068  0.00  0.00    +0.038 A 
ATOM     19  C   UNL     1       1.251  -1.735  -0.157  0.00  0.00    +0.124 A 
ATOM     20  C   UNL     1       1.204  -1.087   1.063  0.00  0.00    +0.051 A 
ATOM     21  C   UNL     1       0.118  -0.267   1.372  0.00  0.00    +0.043 A 
ATOM     22  F   UNL     1       2.304  -2.525  -0.461  0.00  0.00    -0.205 F 
ENDBRANCH   1  21
BRANCH   5  23
ATOM     23  C   UNL     1       1.383  -2.938   5.996  0.00  0.00    +0.218 C 
ATOM     24  O   UNL     1       0.265  -3.390   6.130  0.00  0.00    -0.275 OA
ATOM     25  N   UNL     1       2.429  -3.537   6.599  0.00  0.00    -0.316 N 
ATOM     26  H   UNL     1       3.322  -3.176   6.492  0.00  0.00    +0.149 HD
BRANCH  25  27
ATOM     27  C   UNL     1       2.216  -4.734   7.417  0.00  0.00    +0.093 C 
BRANCH  27  28
ATOM     28  C   UNL     1       3.535  -5.141   8.077  0.00  0.00    -0.020 C 
BRANCH  28  29
ATOM     29  C   UNL     1       4.514  -5.577   7.017  0.00  0.00    -0.059 A 
ATOM     30  C   UNL     1       4.426  -6.846   6.476  0.00  0.00    +0.005 A 
ATOM     31  C   UNL     1       5.322  -7.248   5.505  0.00  0.00    +0.046 A 
ATOM     32  C   UNL     1       6.311  -6.377   5.072  0.00  0.00    +0.120 A 
ATOM     33  C   UNL     1       6.397  -5.104   5.616  0.00  0.00    +0.046 A 
ATOM     34  C   UNL     1       5.495  -4.705   6.584  0.00  0.00    +0.005 A 
BRANCH  32  35
ATOM     35  O   UNL     1       7.194  -6.770   4.117  0.00  0.00    -0.495 OA
ATOM     36  C   UNL     1       8.186  -5.820   3.720  0.00  0.00    +0.277 C 
ENDBRANCH  32  35
ENDBRANCH  28  29
BRANCH  28  37
ATOM     37  N   UNL     1       3.294  -6.253   9.007  0.00  0.00    +0.385 N 
ATOM     38  C   UNL     1       4.530  -6.558   9.771  0.00  0.00    -0.078 C 
ATOM     39  C   UNL     1       3.998  -7.291  11.028  0.00  0.00    -0.020 C 
ATOM     40  C   UNL     1       2.688  -6.532  11.341  0.00  0.00    -0.020 C 
ATOM     41  C   UNL     1       2.283  -5.864  10.015  0.00  0.00    -0.078 C 
ATOM     42  H   UNL     1       2.985  -7.069   8.502  0.00  0.00    -0.081 HD
ENDBRANCH  28  37
ENDBRANCH  27  28
ENDBRANCH  25  27
ENDBRANCH   5  23
TORSDOF 7
