REMARK  Name = ZINC01588433
REMARK  3 active torsions:
REMARK  status: ('A' for Active; 'I' for Inactive)
REMARK    1  A    between atoms: C_6  and  C_7
REMARK    2  A    between atoms: C_9  and  C_14
REMARK    3  A    between atoms: C_16  and  C_21
REMARK                            x       y       z     vdW  Elec       q    Type
REMARK                         _______ _______ _______ _____ _____    ______ ____
ROOT
ATOM      1  C   UNL     1       3.699  -0.686  -0.038  0.00  0.00    +0.077 A 
ATOM      2  C   UNL     1       4.903   0.021  -0.046  0.00  0.00    +0.058 A 
ATOM      3  C   UNL     1       6.095  -0.701  -0.062  0.00  0.00    +0.095 A 
ATOM      4  N   UNL     1       6.045  -2.031  -0.069  0.00  0.00    -0.213 NA
ATOM      5  C   UNL     1       4.885  -2.668  -0.061  0.00  0.00    +0.214 A 
ATOM      6  N   UNL     1       3.732  -2.017  -0.041  0.00  0.00    -0.215 NA
ATOM      7  N   UNL     1       4.876  -4.052  -0.069  0.00  0.00    -0.327 N 
ATOM      8  H   UNL     1       5.713  -4.542  -0.079  0.00  0.00    +0.145 HD
ATOM      9  H   UNL     1       4.033  -4.532  -0.063  0.00  0.00    +0.145 HD
ENDROOT
BRANCH   3  10
ATOM     10  C   UNL     1       7.402   0.004  -0.070  0.00  0.00    +0.095 A 
ATOM     11  C   UNL     1       8.594  -0.718  -0.086  0.00  0.00    +0.058 A 
ATOM     12  C   UNL     1       9.797  -0.011  -0.093  0.00  0.00    +0.077 A 
ATOM     13  N   UNL     1       9.765   1.320  -0.085  0.00  0.00    -0.215 NA
ATOM     14  C   UNL     1       8.612   1.971  -0.070  0.00  0.00    +0.214 A 
ATOM     15  N   UNL     1       7.451   1.334  -0.068  0.00  0.00    -0.213 NA
ATOM     16  N   UNL     1       8.620   3.355  -0.062  0.00  0.00    -0.327 N 
ATOM     17  H   UNL     1       9.463   3.835  -0.067  0.00  0.00    +0.145 HD
ATOM     18  H   UNL     1       7.783   3.845  -0.051  0.00  0.00    +0.145 HD
BRANCH  12  19
ATOM     19  C   UNL     1      11.093  -0.731  -0.111  0.00  0.00    +0.002 A 
ATOM     20  C   UNL     1      12.290  -0.017  -0.118  0.00  0.00    +0.011 A 
ATOM     21  C   UNL     1      13.494  -0.692  -0.134  0.00  0.00    +0.022 A 
ATOM     22  C   UNL     1      13.515  -2.076  -0.143  0.00  0.00    +0.059 A 
ATOM     23  C   UNL     1      12.328  -2.791  -0.136  0.00  0.00    +0.060 A 
ATOM     24  C   UNL     1      11.118  -2.125  -0.114  0.00  0.00    +0.031 A 
ATOM     25 CL   UNL     1      12.361  -4.527  -0.148  0.00  0.00    -0.082 Cl
ATOM     26 CL   UNL     1      15.032  -2.918  -0.165  0.00  0.00    -0.082 Cl
ENDBRANCH  12  19
ENDBRANCH   3  10
BRANCH   1  32
ATOM     27  C   UNL     1       2.378   1.428  -0.013  0.00  0.00    +0.011 A 
ATOM     28  C   UNL     1       1.170   2.094   0.002  0.00  0.00    +0.022 A 
ATOM     29  C   UNL     1      -0.017   1.381   0.010  0.00  0.00    +0.059 A 
ATOM     30  C   UNL     1       0.002  -0.004   0.002  0.00  0.00    +0.060 A 
ATOM     31  C   UNL     1       1.206  -0.680  -0.014  0.00  0.00    +0.031 A 
ATOM     32  C   UNL     1       2.403   0.034  -0.021  0.00  0.00    +0.002 A 
ATOM     33 CL   UNL     1      -1.490  -0.891   0.012  0.00  0.00    -0.082 Cl
ATOM     34 CL   UNL     1      -1.533   2.226   0.021  0.00  0.00    -0.082 Cl
ENDBRANCH   1  32
TORSDOF 3
