REMARK  Name = ZINC06227000
REMARK  7 active torsions:
REMARK  status: ('A' for Active; 'I' for Inactive)
REMARK    1  A    between atoms: C_1  and  N_2
REMARK    2  A    between atoms: C_5  and  N_8
REMARK    3  A    between atoms: N_8  and  C_9
REMARK    4  A    between atoms: N_8  and  C_19
REMARK    5  A    between atoms: C_9  and  C_10
REMARK    6  A    between atoms: C_19  and  N_21
REMARK    7  A    between atoms: N_21  and  C_22
REMARK                            x       y       z     vdW  Elec       q    Type
REMARK                         _______ _______ _______ _____ _____    ______ ____
ROOT
ATOM      1  N   UNL     1       1.228  -4.037  -0.036  0.00  0.00    -0.305 N 
ENDROOT
BRANCH   1   6
ATOM      2  C   UNL     1      -0.020   1.464  -0.022  0.00  0.00    -0.096 C 
ATOM      3  N   UNL     1       0.001  -0.004  -0.024  0.00  0.00    +0.378 N 
ATOM      4  C   UNL     1       0.687  -0.481  -1.230  0.00  0.00    -0.077 C 
ATOM      5  C   UNL     1       0.640  -2.010  -1.277  0.00  0.00    +0.004 C 
ATOM      6  C   UNL     1       1.335  -2.575  -0.035  0.00  0.00    +0.072 C 
ATOM      7  C   UNL     1       0.658  -2.013   1.217  0.00  0.00    +0.004 C 
ATOM      8  C   UNL     1       0.704  -0.484   1.172  0.00  0.00    -0.077 C 
ATOM      9  H   UNL     1      -0.946  -0.353  -0.018  0.00  0.00    -0.082 HD
ENDBRANCH   1   6
BRANCH   1  10
ATOM     10  C   UNL     1       0.020  -4.623   0.083  0.00  0.00    +0.134 C 
ATOM     11  S   UNL     1      -0.095  -6.327   0.205  0.00  0.00    -0.019 S 
BRANCH  10  12
ATOM     12  N   UNL     1      -1.096  -3.869   0.105  0.00  0.00    -0.324 N 
ATOM     13  H   UNL     1      -1.038  -2.911  -0.036  0.00  0.00    +0.148 HD
BRANCH  12  14
ATOM     14  C   UNL     1      -2.399  -4.495   0.344  0.00  0.00    +0.072 C 
ATOM     15  C   UNL     1      -2.960  -5.024  -0.978  0.00  0.00    +0.022 C 
ATOM     16  C   UNL     1      -4.096  -6.008  -0.693  0.00  0.00    +0.002 C 
ATOM     17  C   UNL     1      -3.686  -6.946   0.444  0.00  0.00    +0.000 C 
ATOM     18  C   UNL     1      -4.557  -6.672   1.671  0.00  0.00    +0.000 C 
ATOM     19  C   UNL     1      -4.089  -5.384   2.350  0.00  0.00    +0.000 C 
ATOM     20  C   UNL     1      -4.569  -4.177   1.541  0.00  0.00    +0.002 C 
ATOM     21  C   UNL     1      -3.363  -3.461   0.929  0.00  0.00    +0.022 C 
ENDBRANCH  12  14
ENDBRANCH  10  12
ENDBRANCH   1  10
BRANCH   1  22
ATOM     22  C   UNL     1       2.433  -4.860  -0.166  0.00  0.00    +0.142 C 
BRANCH  22  23
ATOM     23  C   UNL     1       2.990  -5.153   1.203  0.00  0.00    -0.026 A 
ATOM     24  C   UNL     1       3.912  -4.294   1.771  0.00  0.00    +0.009 A 
ATOM     25  C   UNL     1       4.426  -4.558   3.026  0.00  0.00    +0.050 A 
ATOM     26  C   UNL     1       4.019  -5.687   3.718  0.00  0.00    +0.166 A 
ATOM     27  C   UNL     1       3.091  -6.553   3.146  0.00  0.00    +0.167 A 
ATOM     28  C   UNL     1       2.575  -6.279   1.890  0.00  0.00    +0.054 A 
ATOM     29  O   UNL     1       2.856  -7.579   4.016  0.00  0.00    -0.453 OA
ATOM     30  C   UNL     1       3.952  -7.549   4.950  0.00  0.00    +0.466 C 
ATOM     31  O   UNL     1       4.366  -6.170   4.947  0.00  0.00    -0.453 OA
ENDBRANCH  22  23
ENDBRANCH   1  22
TORSDOF 6
