REMARK  Name = ZINC11730228
REMARK  4 active torsions:
REMARK  status: ('A' for Active; 'I' for Inactive)
REMARK    1  A    between atoms: C_1  and  C_2
REMARK    2  A    between atoms: C_4  and  C_18
REMARK    3  A    between atoms: C_14  and  C_16
REMARK    4  A    between atoms: C_14  and  C_17
REMARK                            x       y       z     vdW  Elec       q    Type
REMARK                         _______ _______ _______ _____ _____    ______ ____
ROOT
ATOM      1  C   UNL     1      -0.045  -4.297  -0.088  0.00  0.00    +0.044 C 
ATOM      2  C   UNL     1      -0.016  -2.790  -0.054  0.00  0.00    -0.049 A 
ATOM      3  C   UNL     1      -1.004  -2.093   0.619  0.00  0.00    +0.010 A 
ATOM      4  C   UNL     1      -1.001  -0.712   0.650  0.00  0.00    -0.008 A 
ATOM      5  C   UNL     1       0.002  -0.004   0.002  0.00  0.00    +0.134 A 
ATOM      6  C   UNL     1       1.012  -0.719  -0.655  0.00  0.00    +0.044 A 
ATOM      7  C   UNL     1       0.998  -2.102  -0.696  0.00  0.00    +0.017 A 
ATOM      8  C   UNL     1       2.123   0.072  -1.272  0.00  0.00    +0.091 A 
ATOM      9  C   UNL     1       2.168   1.407  -0.926  0.00  0.00    +0.062 A 
ATOM     10  S   UNL     1       3.568   1.993  -1.829  0.00  0.00    -0.053 S 
ATOM     11  C   UNL     1       4.006   0.429  -2.583  0.00  0.00    +0.156 A 
ATOM     12  N   UNL     1       3.073  -0.371  -2.096  0.00  0.00    -0.225 NA
ATOM     13  N   UNL     1       5.047   0.135  -3.449  0.00  0.00    -0.337 N 
ATOM     14  C   UNL     1       1.220   2.078   0.002  0.00  0.00    +0.138 C 
ATOM     15  O   UNL     1      -0.016   1.353   0.009  0.00  0.00    -0.480 OA
ATOM     16  C   UNL     1       0.970   3.512  -0.471  0.00  0.00    +0.061 C 
ATOM     17  C   UNL     1       1.812   2.098   1.413  0.00  0.00    +0.061 C 
ATOM     18  C   UNL     1      -2.088   0.027   1.387  0.00  0.00    +0.047 C 
ATOM     19  H   UNL     1       5.162  -0.769  -3.780  0.00  0.00    +0.144 HD
ATOM     20  H   UNL     1       5.661   0.834  -3.723  0.00  0.00    +0.144 HD
ENDROOT
TORSDOF 0
