REMARK  Name = ZINC15870313
REMARK  7 active torsions:
REMARK  status: ('A' for Active; 'I' for Inactive)
REMARK    1  A    between atoms: C_1  and  C_2
REMARK    2  A    between atoms: C_2  and  C_3
REMARK    3  A    between atoms: C_2  and  C_4
REMARK    4  A    between atoms: C_11  and  N_16
REMARK    5  A    between atoms: N_16  and  S_17
REMARK    6  A    between atoms: S_17  and  C_20
REMARK    7  A    between atoms: C_23  and  C_26
REMARK                            x       y       z     vdW  Elec       q    Type
REMARK                         _______ _______ _______ _____ _____    ______ ____
ROOT
ATOM      1  N   UNL     1      -7.234   2.050   0.047  0.00  0.00    -0.216 N 
ATOM      2  H   UNL     1      -7.512   1.333   0.639  0.00  0.00    +0.174 HD
ENDROOT
BRANCH   1  10
ATOM      3  C   UNL     1       1.147   1.655   0.000  0.00  0.00    +0.221 C 
ATOM      4  O   UNL     1       1.130   2.868   0.007  0.00  0.00    -0.275 OA
ATOM      5  N   UNL     1      -0.011   0.966   0.007  0.00  0.00    -0.264 N 
ATOM      6  C   UNL     1      -1.220   1.642   0.017  0.00  0.00    +0.165 A 
ATOM      7  N   UNL     1      -2.438   1.152   0.020  0.00  0.00    -0.225 NA
ATOM      8  C   UNL     1      -3.537   1.937   0.029  0.00  0.00    +0.082 A 
ATOM      9  C   UNL     1      -4.893   1.538   0.034  0.00  0.00    +0.053 A 
ATOM     10  C   UNL     1      -5.901   2.476   0.043  0.00  0.00    +0.050 A 
ATOM     11  C   UNL     1      -5.621   3.841   0.050  0.00  0.00    +0.026 A 
ATOM     12  C   UNL     1      -4.304   4.260   0.045  0.00  0.00    +0.019 A 
ATOM     13  C   UNL     1      -3.294   3.330   0.036  0.00  0.00    +0.041 A 
ATOM     14  S   UNL     1      -1.519   3.404   0.036  0.00  0.00    -0.052 S 
ATOM     15  H   UNL     1       0.002  -0.004   0.002  0.00  0.00    +0.157 HD
BRANCH   3  17
ATOM     16  C   UNL     1       2.543   0.048  -1.271  0.00  0.00    +0.017 C 
ATOM     17  C   UNL     1       2.462   0.920  -0.017  0.00  0.00    +0.069 C 
ATOM     18  C   UNL     1       3.611   1.930  -0.022  0.00  0.00    +0.017 C 
ENDBRANCH   3  17
ENDBRANCH   1  10
BRANCH   1  19
ATOM     19  S   UNL     1      -8.336   2.769  -0.958  0.00  0.00    +0.072 S 
ATOM     20  O   UNL     1      -9.575   2.107  -0.742  0.00  0.00    -0.150 OA
ATOM     21  O   UNL     1      -8.183   4.172  -0.791  0.00  0.00    -0.150 OA
BRANCH  19  22
ATOM     22  C   UNL     1      -7.850   2.402  -2.611  0.00  0.00    +0.109 A 
ATOM     23  C   UNL     1      -6.995   3.253  -3.285  0.00  0.00    +0.029 A 
ATOM     24  C   UNL     1      -6.610   2.963  -4.581  0.00  0.00    +0.006 A 
ATOM     25  C   UNL     1      -7.089   1.827  -5.206  0.00  0.00    -0.044 A 
ATOM     26  C   UNL     1      -7.948   0.978  -4.534  0.00  0.00    +0.006 A 
ATOM     27  C   UNL     1      -8.329   1.266  -3.236  0.00  0.00    +0.029 A 
BRANCH  25  28
ATOM     28  C   UNL     1      -6.674   1.513  -6.620  0.00  0.00    +0.019 C 
ATOM     29  C   UNL     1      -5.153   1.357  -6.683  0.00  0.00    +0.008 C 
ATOM     30  C   UNL     1      -4.732   1.039  -8.119  0.00  0.00    +0.001 C 
ATOM     31  C   UNL     1      -5.166   2.179  -9.042  0.00  0.00    +0.000 C 
ATOM     32  C   UNL     1      -6.686   2.335  -8.980  0.00  0.00    +0.001 C 
ATOM     33  C   UNL     1      -7.108   2.654  -7.544  0.00  0.00    +0.008 C 
ENDBRANCH  25  28
ENDBRANCH  19  22
ENDBRANCH   1  19
TORSDOF 5
