REMARK  Name = ZINC40317281
REMARK  10 active torsions:
REMARK  status: ('A' for Active; 'I' for Inactive)
REMARK    1  A    between atoms: C_1  and  C_2
REMARK    2  A    between atoms: C_4  and  O_9
REMARK    3  A    between atoms: O_9  and  C_10
REMARK    4  A    between atoms: C_10  and  C_11
REMARK    5  A    between atoms: C_11  and  C_13
REMARK    6  A    between atoms: C_11  and  O_34
REMARK    7  A    between atoms: C_13  and  N_14
REMARK    8  A    between atoms: N_14  and  C_15
REMARK    9  A    between atoms: N_14  and  C_26
REMARK   10  A    between atoms: C_15  and  C_16
REMARK                            x       y       z     vdW  Elec       q    Type
REMARK                         _______ _______ _______ _____ _____    ______ ____
ROOT
ATOM      1  N   UNL     1      -0.707  -6.803  -4.873  0.00  0.00    +0.387 N 
ATOM      2  H   UNL     1      -1.604  -6.486  -5.210  0.00  0.00    -0.081 HD
ENDROOT
BRANCH   1   3
ATOM      3  C   UNL     1       0.361  -6.210  -5.689  0.00  0.00    -0.045 C 
ATOM      4  C   UNL     1       0.131  -6.549  -7.171  0.00  0.00    +0.009 C 
ATOM      5  C   UNL     1       1.399  -6.212  -7.992  0.00  0.00    +0.164 C 
ATOM      6  S   UNL     1       2.746  -6.408  -6.754  0.00  0.00    -0.033 S 
ATOM      7  O   UNL     1       3.384  -5.153  -6.563  0.00  0.00    -0.174 OA
ATOM      8  O   UNL     1       3.526  -7.545  -7.096  0.00  0.00    -0.174 OA
ATOM      9  C   UNL     1       1.736  -6.800  -5.264  0.00  0.00    +0.151 C 
ENDBRANCH   1   3
BRANCH   1  10
ATOM     10  C   UNL     1      -0.539  -6.393  -3.472  0.00  0.00    -0.043 C 
BRANCH  10  11
ATOM     11  C   UNL     1      -0.818  -4.894  -3.343  0.00  0.00    +0.135 C 
BRANCH  11  12
ATOM     12  O   UNL     1       0.216  -4.158  -3.999  0.00  0.00    -0.390 OA
ATOM     13  H   UNL     1       1.107  -4.371  -3.689  0.00  0.00    +0.210 HD
ENDBRANCH  11  12
BRANCH  11  14
ATOM     14  C   UNL     1      -0.858  -4.509  -1.863  0.00  0.00    +0.258 C 
BRANCH  14  15
ATOM     15  O   UNL     1      -1.233  -3.135  -1.738  0.00  0.00    -0.489 OA
BRANCH  15  19
ATOM     16  C   UNL     1      -2.150   0.646   1.209  0.00  0.00    +0.045 C 
ATOM     17  C   UNL     1      -1.760  -0.794   0.997  0.00  0.00    -0.029 A 
ATOM     18  C   UNL     1      -1.675  -1.305  -0.284  0.00  0.00    +0.050 A 
ATOM     19  C   UNL     1      -1.316  -2.631  -0.478  0.00  0.00    +0.121 A 
ATOM     20  C   UNL     1      -1.042  -3.441   0.614  0.00  0.00    +0.047 A 
ATOM     21  C   UNL     1      -1.128  -2.926   1.893  0.00  0.00    +0.024 A 
ATOM     22  C   UNL     1      -1.481  -1.602   2.085  0.00  0.00    +0.044 A 
ATOM     23 CL   UNL     1      -1.580  -0.955   3.693  0.00  0.00    -0.083 Cl
ENDBRANCH  15  19
ENDBRANCH  14  15
ENDBRANCH  11  14
ENDBRANCH  10  11
ENDBRANCH   1  10
BRANCH   1  24
ATOM     24  C   UNL     1      -0.639  -8.267  -4.966  0.00  0.00    -0.042 C 
BRANCH  24  25
ATOM     25  C   UNL     1      -1.055  -8.703  -6.347  0.00  0.00    -0.056 A 
ATOM     26  C   UNL     1      -2.358  -8.613  -6.729  0.00  0.00    +0.002 A 
ATOM     27  C   UNL     1      -2.762  -9.011  -8.002  0.00  0.00    +0.001 A 
ATOM     28  C   UNL     1      -1.865  -9.502  -8.900  0.00  0.00    +0.008 A 
ATOM     29  C   UNL     1      -0.510  -9.609  -8.542  0.00  0.00    -0.018 A 
ATOM     30  C   UNL     1      -0.099  -9.198  -7.249  0.00  0.00    -0.017 A 
ATOM     31  C   UNL     1       1.257  -9.301  -6.893  0.00  0.00    +0.009 A 
ATOM     32  C   UNL     1       2.155  -9.786  -7.793  0.00  0.00    +0.001 A 
ATOM     33  C   UNL     1       1.751 -10.184  -9.067  0.00  0.00    +0.001 A 
ATOM     34  C   UNL     1       0.445 -10.111  -9.442  0.00  0.00    +0.008 A 
ENDBRANCH  24  25
ENDBRANCH   1  24
TORSDOF 9
