REMARK  Name = ZINC20885061
REMARK  3 active torsions:
REMARK  status: ('A' for Active; 'I' for Inactive)
REMARK    1  A    between atoms: C_1  and  C_2
REMARK    2  A    between atoms: C_5  and  C_8
REMARK    3  A    between atoms: C_13  and  C_19
REMARK                            x       y       z     vdW  Elec       q    Type
REMARK                         _______ _______ _______ _____ _____    ______ ____
ROOT
ATOM      1  C   UNL     1      -2.514   0.980   0.019  0.00  0.00    +0.032 C 
ATOM      2  C   UNL     1      -3.330   1.343  -1.223  0.00  0.00    +0.059 C 
ATOM      3  C   UNL     1      -4.648   0.609  -1.196  0.00  0.00    +0.018 C 
ATOM      4  C   UNL     1      -5.242   0.298  -0.025  0.00  0.00    +0.020 C 
ATOM      5  C   UNL     1      -6.564  -0.432  -0.022  0.00  0.00    +0.063 C 
ATOM      6  C   UNL     1      -6.604  -1.414  -1.194  0.00  0.00    +0.109 C 
ATOM      7  C   UNL     1      -6.165  -0.705  -2.449  0.00  0.00    +0.218 C 
ATOM      8  O   UNL     1      -6.652  -1.007  -3.517  0.00  0.00    -0.275 OA
ATOM      9  N   UNL     1      -5.234   0.263  -2.387  0.00  0.00    -0.289 N 
ATOM     10  C   UNL     1      -4.655   0.636   1.206  0.00  0.00    +0.162 C 
ATOM     11  O   UNL     1      -5.226   0.351   2.239  0.00  0.00    -0.292 OA
ATOM     12  C   UNL     1      -3.329   1.346   1.264  0.00  0.00    +0.088 C 
ATOM     13  H   UNL     1      -4.945   0.780  -3.313  0.00  0.00    +0.155 HD
ENDROOT
BRANCH   5  14
ATOM     14  C   UNL     1      -7.688   0.563  -0.162  0.00  0.00    -0.039 A 
ATOM     15  C   UNL     1      -7.744   1.382  -1.289  0.00  0.00    +0.005 A 
ATOM     16  C   UNL     1      -8.747   2.287  -1.448  0.00  0.00    +0.009 A 
ATOM     17  C   UNL     1      -9.738   2.408  -0.459  0.00  0.00    -0.018 A 
ATOM     18  C   UNL     1     -10.787   3.335  -0.586  0.00  0.00    +0.008 A 
ATOM     19  C   UNL     1     -11.729   3.424   0.392  0.00  0.00    +0.001 A 
ATOM     20  C   UNL     1     -11.670   2.609   1.522  0.00  0.00    +0.001 A 
ATOM     21  C   UNL     1     -10.669   1.700   1.679  0.00  0.00    +0.008 A 
ATOM     22  C   UNL     1      -9.679   1.579   0.689  0.00  0.00    -0.018 A 
ATOM     23  C   UNL     1      -8.630   0.652   0.816  0.00  0.00    +0.012 A 
ENDBRANCH   5  14
BRANCH   1  28
ATOM     24  C   UNL     1       2.451   3.937  -0.001  0.00  0.00    +0.044 C 
ATOM     25  C   UNL     1       1.156   3.165   0.008  0.00  0.00    -0.050 A 
ATOM     26  C   UNL     1       1.175   1.783   0.000  0.00  0.00    +0.003 A 
ATOM     27  C   UNL     1      -0.013   1.076   0.008  0.00  0.00    +0.004 A 
ATOM     28  C   UNL     1      -1.219   1.751   0.017  0.00  0.00    -0.043 A 
ATOM     29  C   UNL     1      -1.238   3.133   0.030  0.00  0.00    +0.004 A 
ATOM     30  C   UNL     1      -0.050   3.840   0.022  0.00  0.00    +0.003 A 
ENDBRANCH   1  28
TORSDOF 2
