REMARK  Name = ZINC09606988
REMARK  7 active torsions:
REMARK  status: ('A' for Active; 'I' for Inactive)
REMARK    1  A    between atoms: C_1  and  C_2
REMARK    2  A    between atoms: C_2  and  C_4
REMARK    3  A    between atoms: C_2  and  O_16
REMARK    4  A    between atoms: N_6  and  C_7
REMARK    5  A    between atoms: C_10  and  N_13
REMARK    6  A    between atoms: O_16  and  C_17
REMARK    7  A    between atoms: C_17  and  C_19
REMARK                            x       y       z     vdW  Elec       q    Type
REMARK                         _______ _______ _______ _____ _____    ______ ____
ROOT
ATOM      1  C   UNL     1       6.980   0.379   0.650  0.00  0.00    +0.258 C 
ATOM      2  O   UNL     1       6.552  -0.688   1.037  0.00  0.00    -0.271 OA
ATOM      3  N   UNL     1       8.274   0.697   0.850  0.00  0.00    -0.282 N 
ATOM      4  H   UNL     1       8.634   1.520   0.483  0.00  0.00    +0.155 HD
ENDROOT
BRANCH   3   5
ATOM      5  C   UNL     1       9.100  -0.159   1.588  0.00  0.00    +0.034 A 
ATOM      6  C   UNL     1      10.097   0.365   2.400  0.00  0.00    +0.025 A 
ATOM      7  C   UNL     1      10.907  -0.482   3.130  0.00  0.00    +0.034 A 
ATOM      8  C   UNL     1      10.732  -1.851   3.046  0.00  0.00    +0.126 A 
ATOM      9  C   UNL     1       9.743  -2.376   2.235  0.00  0.00    +0.034 A 
ATOM     10  C   UNL     1       8.927  -1.534   1.506  0.00  0.00    +0.025 A 
BRANCH   8  11
ATOM     11  N   UNL     1      11.605  -2.757   3.826  0.00  0.00    +0.056 N 
ATOM     12  O   UNL     1      11.452  -3.963   3.753  0.00  0.00    -0.126 OA
ATOM     13  O   UNL     1      12.477  -2.296   4.541  0.00  0.00    -0.126 OA
ENDBRANCH   8  11
ENDBRANCH   3   5
BRANCH   1  15
ATOM     14  C   UNL     1       6.530   1.527  -1.501  0.00  0.00    +0.062 C 
ATOM     15  C   UNL     1       6.066   1.347  -0.054  0.00  0.00    +0.259 C 
BRANCH  15  16
ATOM     16  O   UNL     1       4.731   0.838  -0.042  0.00  0.00    -0.448 OA
BRANCH  16  17
ATOM     17  C   UNL     1       3.730   1.742  -0.034  0.00  0.00    +0.347 C 
ATOM     18  O   UNL     1       3.985   2.932  -0.039  0.00  0.00    -0.244 OA
BRANCH  17  19
ATOM     19  C   UNL     1       2.338   1.292  -0.022  0.00  0.00    +0.097 A 
ATOM     20  C   UNL     1       1.175   2.049  -0.013  0.00  0.00    +0.024 A 
ATOM     21  C   UNL     1      -0.015   1.365  -0.001  0.00  0.00    +0.024 A 
ATOM     22  C   UNL     1       0.001   0.005   0.002  0.00  0.00    +0.056 A 
ATOM     23  S   UNL     1       1.694  -0.371  -0.013  0.00  0.00    -0.075 S 
ATOM     24 BR   UNL     1      -1.467  -1.187   0.017  0.00  0.00    -0.043 Br
ENDBRANCH  17  19
ENDBRANCH  16  17
ENDBRANCH  15  16
ENDBRANCH   1  15
TORSDOF 6
