REMARK  Name = ZINC01122898
REMARK  10 active torsions:
REMARK  status: ('A' for Active; 'I' for Inactive)
REMARK    1  A    between atoms: C_1  and  C_2
REMARK    2  A    between atoms: C_2  and  O_3
REMARK    3  A    between atoms: O_3  and  C_4
REMARK    4  A    between atoms: C_7  and  C_12
REMARK    5  A    between atoms: C_9  and  O_10
REMARK    6  A    between atoms: O_10  and  C_11
REMARK    7  A    between atoms: C_17  and  C_27
REMARK    8  A    between atoms: C_30  and  O_34
REMARK    9  A    between atoms: C_31  and  O_33
REMARK   10  A    between atoms: O_34  and  C_35
REMARK                            x       y       z     vdW  Elec       q    Type
REMARK                         _______ _______ _______ _____ _____    ______ ____
ROOT
ATOM      1  C   UNL     1       4.786  -1.245   1.558  0.00  0.00    +0.032 C 
ATOM      2  C   UNL     1       4.342   0.195   1.308  0.00  0.00    +0.059 C 
ATOM      3  C   UNL     1       2.875   0.223   0.906  0.00  0.00    +0.017 C 
ATOM      4  C   UNL     1       2.018  -0.680   1.408  0.00  0.00    +0.036 C 
ATOM      5  C   UNL     1       0.536  -0.750   1.122  0.00  0.00    +0.136 C 
ATOM      6  N   UNL     1       0.100   0.093   0.029  0.00  0.00    -0.331 N 
ATOM      7  C   UNL     1       0.198   1.480   0.108  0.00  0.00    +0.049 A 
ATOM      8  C   UNL     1      -0.933   2.282   0.140  0.00  0.00    +0.025 A 
ATOM      9  C   UNL     1      -0.792   3.652   0.268  0.00  0.00    +0.002 A 
ATOM     10  C   UNL     1       0.464   4.222   0.368  0.00  0.00    +0.002 A 
ATOM     11  C   UNL     1       1.596   3.427   0.318  0.00  0.00    +0.025 A 
ATOM     12  C   UNL     1       1.457   2.059   0.167  0.00  0.00    +0.052 A 
ATOM     13  N   UNL     1       2.551   1.210   0.032  0.00  0.00    -0.316 N 
ATOM     14  C   UNL     1       2.477  -1.688   2.288  0.00  0.00    +0.163 C 
ATOM     15  O   UNL     1       1.674  -2.482   2.738  0.00  0.00    -0.292 OA
ATOM     16  C   UNL     1       3.917  -1.811   2.687  0.00  0.00    +0.088 C 
ATOM     17  H   UNL     1      -0.265  -0.315  -0.772  0.00  0.00    +0.147 HD
ATOM     18  H   UNL     1       3.123   1.333  -0.741  0.00  0.00    +0.152 HD
ENDROOT
BRANCH   1  22
ATOM     19  C   UNL     1       8.899  -1.312   2.727  0.00  0.00    +0.162 A 
ATOM     20  C   UNL     1       7.977  -0.588   3.467  0.00  0.00    +0.050 A 
ATOM     21  C   UNL     1       6.648  -0.568   3.086  0.00  0.00    +0.008 A 
ATOM     22  C   UNL     1       6.236  -1.269   1.968  0.00  0.00    -0.040 A 
ATOM     23  C   UNL     1       7.149  -1.998   1.230  0.00  0.00    +0.053 A 
ATOM     24  C   UNL     1       8.483  -2.018   1.603  0.00  0.00    +0.162 A 
BRANCH  24  25
ATOM     25  O   UNL     1       9.384  -2.729   0.874  0.00  0.00    -0.491 OA
ATOM     26  C   UNL     1       8.886  -3.430  -0.268  0.00  0.00    +0.277 C 
ENDBRANCH  24  25
BRANCH  19  27
ATOM     27  O   UNL     1      10.206  -1.332   3.101  0.00  0.00    -0.489 OA
BRANCH  27  29
ATOM     28  C   UNL     1      12.061  -0.727   4.527  0.00  0.00    +0.048 C 
ATOM     29  C   UNL     1      10.560  -0.585   4.266  0.00  0.00    +0.226 C 
ENDBRANCH  27  29
ENDBRANCH  19  27
ENDBRANCH   1  22
BRANCH   5  30
ATOM     30  C   UNL     1      -0.209  -0.341   2.367  0.00  0.00    -0.019 A 
ATOM     31  C   UNL     1      -0.098   0.952   2.844  0.00  0.00    +0.009 A 
ATOM     32  C   UNL     1      -0.783   1.332   3.983  0.00  0.00    +0.050 A 
ATOM     33  C   UNL     1      -1.574   0.414   4.655  0.00  0.00    +0.161 A 
ATOM     34  C   UNL     1      -1.681  -0.888   4.178  0.00  0.00    +0.159 A 
ATOM     35  C   UNL     1      -0.996  -1.262   3.033  0.00  0.00    +0.055 A 
BRANCH  34  36
ATOM     36  O   UNL     1      -2.455  -1.793   4.835  0.00  0.00    -0.503 OA
ATOM     37  H   UNL     1      -1.985  -2.292   5.517  0.00  0.00    +0.292 HD
ENDBRANCH  34  36
BRANCH  33  38
ATOM     38  O   UNL     1      -2.244   0.786   5.779  0.00  0.00    -0.491 OA
ATOM     39  C   UNL     1      -2.087   2.139   6.210  0.00  0.00    +0.277 C 
ENDBRANCH  33  38
ENDBRANCH   5  30
TORSDOF 7
