REMARK  Name = ZINC20444847
REMARK  2 active torsions:
REMARK  status: ('A' for Active; 'I' for Inactive)
REMARK    1  A    between atoms: C_3  and  N_14
REMARK    2  A    between atoms: C_4  and  N_8
REMARK                            x       y       z     vdW  Elec       q    Type
REMARK                         _______ _______ _______ _____ _____    ______ ____
ROOT
ATOM      1  C   UNL     1      -0.017   1.358  -0.173  0.00  0.00    +0.022 A 
ATOM      2  C   UNL     1       1.164   2.078  -0.188  0.00  0.00    +0.027 A 
ATOM      3  C   UNL     1       2.376   1.427  -0.021  0.00  0.00    +0.057 A 
ATOM      4  C   UNL     1       2.401   0.044   0.162  0.00  0.00    +0.053 A 
ATOM      5  C   UNL     1       1.213  -0.671   0.177  0.00  0.00    +0.045 A 
ATOM      6  C   UNL     1       0.007  -0.013   0.009  0.00  0.00    +0.043 A 
ATOM      7 CL   UNL     1      -1.478  -0.910   0.028  0.00  0.00    -0.083 Cl
ENDROOT
BRANCH   3   8
ATOM      8  N   UNL     1       3.573   2.156  -0.037  0.00  0.00    -0.274 N 
ATOM      9  C   UNL     1       4.166   2.624   1.190  0.00  0.00    +0.116 C 
ATOM     10  C   UNL     1       3.191   3.366   2.103  0.00  0.00    +0.190 C 
ATOM     11  S   UNL     1       3.841   5.084   2.120  0.00  0.00    -0.028 S 
ATOM     12  O   UNL     1       4.283   5.395   3.434  0.00  0.00    -0.174 OA
ATOM     13  O   UNL     1       2.903   5.937   1.478  0.00  0.00    -0.174 OA
ATOM     14  C   UNL     1       5.306   4.883   1.032  0.00  0.00    +0.182 C 
ATOM     15  C   UNL     1       5.502   3.362   1.007  0.00  0.00    +0.097 C 
ATOM     16  S   UNL     1       5.862   2.907  -0.746  0.00  0.00    -0.086 S 
ATOM     17  C   UNL     1       4.213   2.435  -1.229  0.00  0.00    +0.133 C 
ATOM     18  N   UNL     1       3.719   2.384  -2.435  0.00  0.00    -0.381 N 
ATOM     19  H   UNL     1       2.795   2.124  -2.570  0.00  0.00    +0.158 HD
ATOM     20  H   UNL     1       4.277   2.605  -3.197  0.00  0.00    +0.158 HD
ENDBRANCH   3   8
BRANCH   4  21
ATOM     21  N   UNL     1       3.622  -0.619   0.331  0.00  0.00    -0.328 N 
ATOM     22  C   UNL     1       4.134  -0.914   1.676  0.00  0.00    +0.105 C 
ATOM     23  C   UNL     1       4.444  -2.412   1.768  0.00  0.00    +0.019 C 
ATOM     24  C   UNL     1       5.395  -2.802   0.634  0.00  0.00    +0.003 C 
ATOM     25  C   UNL     1       4.723  -2.529  -0.714  0.00  0.00    +0.019 C 
ATOM     26  C   UNL     1       4.412  -1.039  -0.834  0.00  0.00    +0.105 C 
ENDBRANCH   4  21
TORSDOF 2
