REMARK  Name = ZINC06737892
REMARK  6 active torsions:
REMARK  status: ('A' for Active; 'I' for Inactive)
REMARK    1  A    between atoms: C_1  and  C_2
REMARK    2  A    between atoms: C_2  and  C_3
REMARK    3  A    between atoms: C_2  and  C_4
REMARK    4  A    between atoms: C_4  and  N_5
REMARK    5  A    between atoms: N_5  and  C_6
REMARK    6  A    between atoms: C_8  and  N_23
REMARK                            x       y       z     vdW  Elec       q    Type
REMARK                         _______ _______ _______ _____ _____    ______ ____
ROOT
ATOM      1  C   UNL     1       3.502   3.692  -0.014  0.00  0.00    +0.059 A 
ATOM      2  C   UNL     1       3.588   2.314  -0.024  0.00  0.00    +0.049 A 
ATOM      3  C   UNL     1       2.492   1.443  -0.017  0.00  0.00    +0.043 A 
ATOM      4  C   UNL     1       1.187   1.961   0.001  0.00  0.00    +0.056 A 
ATOM      5  C   UNL     1       1.058   3.392   0.013  0.00  0.00    +0.063 A 
ATOM      6  C   UNL     1       2.178   4.327   0.007  0.00  0.00    +0.135 A 
ATOM      7  N   UNL     1       1.583   5.486   0.022  0.00  0.00    -0.076 NA
ATOM      8  O   UNL     1       0.357   5.400   0.037  0.00  0.00    -0.353 OA
ATOM      9  C   UNL     1      -0.092   4.139   0.030  0.00  0.00    +0.176 A 
ATOM     10  C   UNL     1      -1.340   3.377   0.035  0.00  0.00    +0.031 A 
ATOM     11  C   UNL     1      -2.576   4.029   0.050  0.00  0.00    +0.012 A 
ATOM     12  C   UNL     1      -3.741   3.296   0.052  0.00  0.00    +0.001 A 
ATOM     13  C   UNL     1      -3.698   1.908   0.040  0.00  0.00    +0.001 A 
ATOM     14  C   UNL     1      -2.495   1.243   0.026  0.00  0.00    +0.012 A 
ATOM     15  C   UNL     1      -1.293   1.961   0.019  0.00  0.00    +0.033 A 
ATOM     16  C   UNL     1      -0.015   1.216   0.009  0.00  0.00    +0.196 C 
ATOM     17  O   UNL     1       0.002  -0.004   0.002  0.00  0.00    -0.287 OA
ENDROOT
BRANCH   3  18
ATOM     18  N   UNL     1       2.693   0.079  -0.027  0.00  0.00    -0.329 N 
ATOM     19  C   UNL     1       3.375  -0.361   1.197  0.00  0.00    +0.105 C 
ATOM     20  C   UNL     1       3.451  -1.890   1.219  0.00  0.00    +0.019 C 
ATOM     21  C   UNL     1       4.215  -2.375  -0.016  0.00  0.00    +0.003 C 
ATOM     22  C   UNL     1       3.512  -1.863  -1.276  0.00  0.00    +0.019 C 
ATOM     23  C   UNL     1       3.434  -0.335  -1.225  0.00  0.00    +0.105 C 
ENDBRANCH   3  18
BRANCH   1  24
ATOM     24  N   UNL     1       4.646   4.463  -0.022  0.00  0.00    -0.342 N 
ATOM     25  H   UNL     1       4.578   5.431  -0.014  0.00  0.00    +0.146 HD
BRANCH  24  26
ATOM     26  C   UNL     1       5.962   3.821  -0.042  0.00  0.00    +0.104 C 
BRANCH  26  28
ATOM     27  C   UNL     1       7.005   5.677   1.266  0.00  0.00    +0.009 C 
ATOM     28  C   UNL     1       7.053   4.894  -0.048  0.00  0.00    -0.000 C 
ATOM     29  C   UNL     1       8.423   4.228  -0.194  0.00  0.00    +0.009 C 
ENDBRANCH  26  28
ENDBRANCH  24  26
ENDBRANCH   1  24
TORSDOF 4
