REMARK  Name = ZINC41023568
REMARK  17 active torsions:
REMARK  status: ('A' for Active; 'I' for Inactive)
REMARK    1  A    between atoms: C_1  and  C_2
REMARK    2  A    between atoms: C_2  and  S_3
REMARK    3  A    between atoms: S_3  and  C_4
REMARK    4  A    between atoms: C_9  and  C_26
REMARK    5  A    between atoms: C_11  and  C_15
REMARK    6  A    between atoms: C_12  and  C_14
REMARK    7  A    between atoms: N_17  and  C_18
REMARK    8  A    between atoms: C_22  and  C_25
REMARK    9  A    between atoms: C_23  and  C_24
REMARK   10  A    between atoms: C_29  and  O_34
REMARK   11  A    between atoms: C_30  and  O_32
REMARK   12  A    between atoms: O_32  and  C_33
REMARK   13  A    between atoms: O_34  and  C_35
REMARK   14  A    between atoms: C_35  and  C_36
REMARK   15  A    between atoms: C_36  and  C_37
REMARK   16  A    between atoms: C_37  and  C_38
REMARK   17  A    between atoms: C_37  and  C_39
REMARK                            x       y       z     vdW  Elec       q    Type
REMARK                         _______ _______ _______ _____ _____    ______ ____
ROOT
ATOM      1  C   UNL     1       2.200  -2.752   1.283  0.00  0.00    +0.210 A 
ATOM      2  N   UNL     1       1.132  -3.304   0.688  0.00  0.00    -0.187 NA
ATOM      3  C   UNL     1       1.071  -4.572   0.993  0.00  0.00    +0.219 A 
ATOM      4  N   UNL     1       2.121  -4.863   1.799  0.00  0.00    -0.220 N 
ATOM      5  N   UNL     1       2.834  -3.677   1.970  0.00  0.00    -0.141 NA
ATOM      6  C   UNL     1       2.385  -6.197   2.333  0.00  0.00    +0.177 C 
ATOM      7  C   UNL     1       1.184  -7.075   2.103  0.00  0.00    +0.060 C 
ATOM      8  C   UNL     1       0.171  -6.732   1.294  0.00  0.00    +0.018 C 
ATOM      9  N   UNL     1       0.146  -5.537   0.618  0.00  0.00    -0.287 N 
ATOM     10  C   UNL     1      -0.979  -7.691   1.121  0.00  0.00    +0.061 C 
ATOM     11  H   UNL     1      -0.493  -5.374  -0.093  0.00  0.00    +0.155 HD
ENDROOT
BRANCH   6  12
ATOM     12  C   UNL     1       3.583  -6.789   1.637  0.00  0.00    -0.015 A 
ATOM     13  C   UNL     1       3.550  -7.005   0.272  0.00  0.00    +0.010 A 
ATOM     14  C   UNL     1       4.647  -7.548  -0.371  0.00  0.00    +0.050 A 
ATOM     15  C   UNL     1       5.782  -7.877   0.352  0.00  0.00    +0.162 A 
ATOM     16  C   UNL     1       5.814  -7.660   1.726  0.00  0.00    +0.162 A 
ATOM     17  C   UNL     1       4.714  -7.110   2.364  0.00  0.00    +0.055 A 
BRANCH  16  18
ATOM     18  O   UNL     1       6.926  -7.981   2.441  0.00  0.00    -0.491 OA
ATOM     19  C   UNL     1       6.858  -7.811   3.858  0.00  0.00    +0.277 C 
ENDBRANCH  16  18
BRANCH  15  20
ATOM     20  O   UNL     1       6.861  -8.412  -0.279  0.00  0.00    -0.488 OA
BRANCH  20  21
ATOM     21  C   UNL     1       6.756  -8.608  -1.691  0.00  0.00    +0.229 C 
BRANCH  21  22
ATOM     22  C   UNL     1       8.057  -9.214  -2.220  0.00  0.00    +0.044 C 
BRANCH  22  23
ATOM     23  C   UNL     1       7.944  -9.423  -3.731  0.00  0.00    -0.014 C 
ATOM     24  C   UNL     1       7.818  -8.066  -4.426  0.00  0.00    +0.007 C 
ATOM     25  C   UNL     1       9.195 -10.143  -4.241  0.00  0.00    +0.007 C 
ENDBRANCH  22  23
ENDBRANCH  21  22
ENDBRANCH  20  21
ENDBRANCH  15  20
ENDBRANCH   6  12
BRANCH   7  26
ATOM     26  C   UNL     1       1.123  -8.322   2.769  0.00  0.00    +0.248 C 
ATOM     27  O   UNL     1       0.814  -8.368   3.946  0.00  0.00    -0.270 OA
ATOM     28  N   UNL     1       1.406  -9.458   2.102  0.00  0.00    -0.281 N 
ATOM     29  H   UNL     1       1.577  -9.430   1.147  0.00  0.00    +0.155 HD
BRANCH  28  30
ATOM     30  C   UNL     1       1.454 -10.677   2.785  0.00  0.00    +0.037 A 
ATOM     31  C   UNL     1       0.483 -10.983   3.730  0.00  0.00    +0.023 A 
ATOM     32  C   UNL     1       0.533 -12.188   4.403  0.00  0.00    +0.002 A 
ATOM     33  C   UNL     1       1.548 -13.089   4.137  0.00  0.00    +0.004 A 
ATOM     34  C   UNL     1       2.515 -12.787   3.197  0.00  0.00    -0.046 A 
ATOM     35  C   UNL     1       2.468 -11.586   2.516  0.00  0.00    -0.026 A 
ATOM     36  C   UNL     1       3.520 -11.261   1.487  0.00  0.00    +0.046 C 
ATOM     37  C   UNL     1       3.620 -13.772   2.911  0.00  0.00    +0.044 C 
ENDBRANCH  28  30
ENDBRANCH   7  26
BRANCH   1  38
ATOM     38  S   UNL     1       2.680  -1.061   1.158  0.00  0.00    -0.085 S 
BRANCH  38  40
ATOM     39  C   UNL     1       1.716   1.164  -0.108  0.00  0.00    +0.016 C 
ATOM     40  C   UNL     1       1.415  -0.324   0.087  0.00  0.00    +0.074 C 
ENDBRANCH  38  40
ENDBRANCH   1  38
TORSDOF 10
