REMARK  Name = ZINC63818134
REMARK  6 active torsions:
REMARK  status: ('A' for Active; 'I' for Inactive)
REMARK    1  A    between atoms: C_4  and  C_7
REMARK    2  A    between atoms: N_12  and  C_14
REMARK    3  A    between atoms: C_14  and  C_15
REMARK    4  A    between atoms: N_17  and  C_18
REMARK    5  A    between atoms: C_18  and  C_19
REMARK    6  A    between atoms: C_19  and  C_20
REMARK                            x       y       z     vdW  Elec       q    Type
REMARK                         _______ _______ _______ _____ _____    ______ ____
ROOT
ATOM      1  C   UNL     1       4.687  -4.299  -2.293  0.00  0.00    +0.232 C 
ATOM      2  O   UNL     1       4.654  -3.303  -2.984  0.00  0.00    -0.274 OA
ATOM      3  N   UNL     1       4.611  -5.518  -2.864  0.00  0.00    -0.314 N 
ATOM      4  H   UNL     1       4.638  -6.314  -2.312  0.00  0.00    +0.149 HD
ENDROOT
BRANCH   1   5
ATOM      5  C   UNL     1       4.814  -4.175  -0.797  0.00  0.00    +0.226 C 
BRANCH   5  11
ATOM      6  C   UNL     1       3.697  -0.687  -0.038  0.00  0.00    +0.048 C 
ATOM      7  C   UNL     1       4.832   0.002  -0.041  0.00  0.00    +0.007 C 
ATOM      8  C   UNL     1       6.173  -0.671  -0.051  0.00  0.00    +0.126 C 
ATOM      9  C   UNL     1       6.056  -2.112  -0.453  0.00  0.00    +0.236 C 
ATOM     10  O   UNL     1       7.050  -2.709  -0.810  0.00  0.00    -0.274 OA
ATOM     11  N   UNL     1       4.878  -2.758  -0.428  0.00  0.00    -0.213 N 
ATOM     12  N   UNL     1       3.711  -2.081  -0.046  0.00  0.00    -0.261 N 
ATOM     13  H   UNL     1       2.918  -2.579   0.208  0.00  0.00    +0.170 HD
BRANCH   6  17
ATOM     14  C   UNL     1      -0.017   1.379   0.010  0.00  0.00    +0.000 A 
ATOM     15  C   UNL     1       1.169   2.093   0.002  0.00  0.00    +0.001 A 
ATOM     16  C   UNL     1       2.377   1.427  -0.013  0.00  0.00    +0.010 A 
ATOM     17  C   UNL     1       2.403   0.033  -0.021  0.00  0.00    -0.003 A 
ATOM     18  C   UNL     1       1.205  -0.680  -0.013  0.00  0.00    +0.010 A 
ATOM     19  C   UNL     1       0.002  -0.004   0.002  0.00  0.00    +0.001 A 
ENDBRANCH   6  17
ENDBRANCH   5  11
ENDBRANCH   1   5
BRANCH   3  20
ATOM     20  C   UNL     1       4.488  -5.639  -4.319  0.00  0.00    +0.108 C 
BRANCH  20  21
ATOM     21  C   UNL     1       4.421  -7.118  -4.704  0.00  0.00    +0.052 C 
BRANCH  21  22
ATOM     22  C   UNL     1       4.295  -7.243  -6.200  0.00  0.00    -0.040 C 
ATOM     23  C   UNL     1       5.297  -7.435  -7.088  0.00  0.00    +0.000 A 
ATOM     24  C   UNL     1       6.749  -7.579  -6.931  0.00  0.00    +0.030 A 
ATOM     25  C   UNL     1       7.513  -7.764  -8.033  0.00  0.00    +0.042 A 
ATOM     26  C   UNL     1       6.952  -7.821  -9.318  0.00  0.00    +0.022 A 
ATOM     27  C   UNL     1       5.627  -7.697  -9.540  0.00  0.00    +0.027 A 
ATOM     28  C   UNL     1       4.730  -7.499  -8.454  0.00  0.00    +0.043 A 
ATOM     29  N   UNL     1       3.428  -7.352  -8.412  0.00  0.00    -0.380 N 
ATOM     30  C   UNL     1       3.021  -7.185  -7.013  0.00  0.00    +0.144 C 
ATOM     31 CL   UNL     1       9.231  -7.935  -7.852  0.00  0.00    -0.084 Cl
ATOM     32  H   UNL     1       2.833  -7.358  -9.178  0.00  0.00    +0.160 HD
ENDBRANCH  21  22
ENDBRANCH  20  21
ENDBRANCH   3  20
TORSDOF 6
