REMARK  Name = ZINC12049223
REMARK  6 active torsions:
REMARK  status: ('A' for Active; 'I' for Inactive)
REMARK    1  A    between atoms: C_1  and  O_2
REMARK    2  A    between atoms: O_2  and  C_3
REMARK    3  A    between atoms: C_8  and  N_9
REMARK    4  A    between atoms: C_10  and  C_12
REMARK    5  A    between atoms: C_20  and  C_21
REMARK    6  A    between atoms: C_20  and  N_58
REMARK                            x       y       z     vdW  Elec       q    Type
REMARK                         _______ _______ _______ _____ _____    ______ ____
ROOT
ATOM      1  C   UNL     1      -0.094  -4.280   0.068  0.00  0.00    +0.082 C 
ATOM      2  C   UNL     1      -0.583  -4.996  -1.193  0.00  0.00    +0.020 C 
ATOM      3  C   UNL     1      -1.484  -4.914   0.038  0.00  0.00    -0.021 C 
ATOM      4  C   UNL     1      -2.695  -3.978  -0.023  0.00  0.00    -0.011 C 
ATOM      5  C   UNL     1      -3.191  -3.726   1.406  0.00  0.00    -0.078 C 
ATOM      6  C   UNL     1      -2.256  -5.811   2.228  0.00  0.00    -0.078 C 
ATOM      7  C   UNL     1      -1.702  -6.194   0.851  0.00  0.00    -0.011 C 
ATOM      8  N   UNL     1      -3.497  -5.026   2.041  0.00  0.00    +0.383 N 
ATOM      9  H   UNL     1      -4.133  -5.552   1.431  0.00  0.00    -0.081 HD
ENDROOT
BRANCH   1  11
ATOM     10  N   UNL     1       0.503  -2.100   1.073  0.00  0.00    -0.282 N 
ATOM     11  C   UNL     1      -0.015  -2.776   0.028  0.00  0.00    +0.221 C 
ATOM     12  O   UNL     1      -0.417  -2.173  -0.945  0.00  0.00    -0.275 OA
ATOM     13  H   UNL     1       0.897  -2.583   1.815  0.00  0.00    +0.155 HD
BRANCH  10  19
ATOM     14  C   UNL     1       1.405   0.014   1.835  0.00  0.00    +0.141 A 
ATOM     15  C   UNL     1       1.369   1.399   1.844  0.00  0.00    +0.047 A 
ATOM     16  C   UNL     1       0.408   2.071   1.111  0.00  0.00    +0.004 A 
ATOM     17  C   UNL     1      -0.519   1.364   0.367  0.00  0.00    +0.002 A 
ATOM     18  C   UNL     1      -0.490  -0.018   0.353  0.00  0.00    +0.027 A 
ATOM     19  C   UNL     1       0.471  -0.699   1.086  0.00  0.00    +0.076 A 
BRANCH  14  21
ATOM     20  C   UNL     1       3.273   0.148   3.300  0.00  0.00    +0.277 C 
ATOM     21  O   UNL     1       2.349  -0.648   2.555  0.00  0.00    -0.493 OA
ENDBRANCH  14  21
ENDBRANCH  10  19
ENDBRANCH   1  11
BRANCH   8  22
ATOM     22  C   UNL     1      -4.155  -4.807   3.345  0.00  0.00    -0.038 C 
BRANCH  22  23
ATOM     23  C   UNL     1      -5.513  -4.200   3.105  0.00  0.00    +0.001 A 
ATOM     24  C   UNL     1      -6.604  -5.000   3.015  0.00  0.00    +0.017 A 
ATOM     25  C   UNL     1      -7.910  -4.379   2.786  0.00  0.00    -0.001 A 
ATOM     26  C   UNL     1      -9.072  -5.152   2.689  0.00  0.00    +0.010 A 
ATOM     27  C   UNL     1     -10.275  -4.542   2.470  0.00  0.00    +0.001 A 
ATOM     28  C   UNL     1     -10.354  -3.162   2.343  0.00  0.00    +0.002 A 
ATOM     29  C   UNL     1      -9.223  -2.381   2.434  0.00  0.00    +0.026 A 
ATOM     30  C   UNL     1      -7.987  -2.979   2.657  0.00  0.00    +0.049 A 
ATOM     31  N   UNL     1      -6.839  -2.222   2.753  0.00  0.00    -0.322 N 
ATOM     32  H   UNL     1      -6.893  -1.258   2.663  0.00  0.00    +0.169 HD
ATOM     33  C   UNL     1      -5.644  -2.801   2.968  0.00  0.00    +0.251 A 
ATOM     34  O   UNL     1      -4.650  -2.101   3.047  0.00  0.00    -0.268 OA
ENDBRANCH  22  23
ENDBRANCH   8  22
TORSDOF 5
