REMARK  Name = ZINC11718912
REMARK  7 active torsions:
REMARK  status: ('A' for Active; 'I' for Inactive)
REMARK    1  A    between atoms: C_1  and  N_2
REMARK    2  A    between atoms: C_6  and  C_8
REMARK    3  A    between atoms: C_8  and  C_10
REMARK    4  A    between atoms: C_8  and  N_53
REMARK    5  A    between atoms: C_18  and  N_21
REMARK    6  A    between atoms: N_21  and  S_22
REMARK    7  A    between atoms: S_22  and  C_25
REMARK                            x       y       z     vdW  Elec       q    Type
REMARK                         _______ _______ _______ _____ _____    ______ ____
ROOT
ATOM      1  C   UNL     1       0.115   3.368  -0.788  0.00  0.00    -0.076 C 
ATOM      2  C   UNL     1       1.080   4.514  -1.103  0.00  0.00    +0.002 C 
ATOM      3  C   UNL     1       1.989   4.104  -2.264  0.00  0.00    +0.073 C 
ATOM      4  C   UNL     1       2.738   2.822  -1.889  0.00  0.00    +0.002 C 
ATOM      5  C   UNL     1       1.725   1.726  -1.551  0.00  0.00    -0.076 C 
ATOM      6  N   UNL     1       0.897   2.172  -0.411  0.00  0.00    +0.390 N 
ATOM      7  H   UNL     1       1.514   2.412   0.375  0.00  0.00    -0.080 HD
ENDROOT
BRANCH   3   8
ATOM      8  N   UNL     1       2.954   5.174  -2.532  0.00  0.00    -0.187 NA
ATOM      9  H   UNL     1       3.777   5.223  -2.022  0.00  0.00    +0.148 HD
BRANCH   8  10
ATOM     10  S   UNL     1       2.638   6.299  -3.706  0.00  0.00    +0.065 S 
ATOM     11  O   UNL     1       3.733   7.204  -3.705  0.00  0.00    -0.153 OA
ATOM     12  O   UNL     1       2.247   5.577  -4.865  0.00  0.00    -0.153 OA
BRANCH  10  13
ATOM     13  C   UNL     1       1.226   7.215  -3.183  0.00  0.00    +0.142 A 
ATOM     14  C   UNL     1       1.171   8.347  -2.439  0.00  0.00    +0.036 A 
ATOM     15  C   UNL     1      -0.063   8.898  -2.148  0.00  0.00    +0.010 A 
ATOM     16  C   UNL     1      -1.181   8.290  -2.615  0.00  0.00    +0.047 A 
ATOM     17  S   UNL     1      -0.501   6.898  -3.502  0.00  0.00    -0.077 S 
ENDBRANCH  10  13
ENDBRANCH   8  10
ENDBRANCH   3   8
BRANCH   6  18
ATOM     18  C   UNL     1      -0.013   1.086   0.008  0.00  0.00    +0.050 C 
BRANCH  18  24
ATOM     19  C   UNL     1      -4.712   1.357   3.934  0.00  0.00    +0.129 C 
ATOM     20  N   UNL     1      -3.944   0.910   2.769  0.00  0.00    -0.302 N 
ATOM     21  C   UNL     1      -2.727   1.433   2.523  0.00  0.00    +0.306 C 
ATOM     22  O   UNL     1      -2.266   2.276   3.268  0.00  0.00    -0.252 OA
ATOM     23  N   UNL     1      -2.020   1.022   1.452  0.00  0.00    -0.241 N 
ATOM     24  C   UNL     1      -0.803   1.546   1.206  0.00  0.00    +0.211 C 
ATOM     25  O   UNL     1      -0.343   2.386   1.949  0.00  0.00    -0.277 OA
ATOM     26  H   UNL     1      -4.312   0.238   2.175  0.00  0.00    +0.150 HD
ATOM     27  H   UNL     1      -2.388   0.350   0.857  0.00  0.00    +0.159 HD
ENDBRANCH  18  24
BRANCH  18  28
ATOM     28  C   UNL     1       0.807  -0.122   0.381  0.00  0.00    -0.052 A 
ATOM     29  C   UNL     1       1.940   0.025   1.159  0.00  0.00    +0.002 A 
ATOM     30  C   UNL     1       2.690  -1.084   1.504  0.00  0.00    +0.000 A 
ATOM     31  C   UNL     1       2.312  -2.339   1.063  0.00  0.00    +0.000 A 
ATOM     32  C   UNL     1       1.182  -2.485   0.281  0.00  0.00    +0.000 A 
ATOM     33  C   UNL     1       0.430  -1.377  -0.061  0.00  0.00    +0.002 A 
ENDBRANCH  18  28
ENDBRANCH   6  18
TORSDOF 6
