REMARK  Name = ZINC14530947
REMARK  14 active torsions:
REMARK  status: ('A' for Active; 'I' for Inactive)
REMARK    1  A    between atoms: C_1  and  C_2
REMARK    2  A    between atoms: C_2  and  C_3
REMARK    3  A    between atoms: C_2  and  N_4
REMARK    4  A    between atoms: C_12  and  C_13
REMARK    5  A    between atoms: C_12  and  N_73
REMARK    6  A    between atoms: C_14  and  O_21
REMARK    7  A    between atoms: C_18  and  O_19
REMARK    8  A    between atoms: O_19  and  C_20
REMARK    9  A    between atoms: O_21  and  C_22
REMARK   10  A    between atoms: N_23  and  C_26
REMARK   11  A    between atoms: C_26  and  C_27
REMARK   12  A    between atoms: C_27  and  C_28
REMARK   13  A    between atoms: C_31  and  O_34
REMARK   14  A    between atoms: O_34  and  C_35
REMARK                            x       y       z     vdW  Elec       q    Type
REMARK                         _______ _______ _______ _____ _____    ______ ____
ROOT
ATOM      1  N   UNL     1      -1.758   3.000   2.043  0.00  0.00    -0.222 N 
ATOM      2  C   UNL     1      -2.777   3.875   1.910  0.00  0.00    +0.247 C 
ATOM      3  O   UNL     1      -3.960   3.621   1.851  0.00  0.00    -0.273 OA
ATOM      4  C   UNL     1      -2.130   5.240   1.853  0.00  0.00    +0.112 C 
ATOM      5  C   UNL     1      -2.444   5.920   0.524  0.00  0.00    +0.017 C 
ATOM      6  C   UNL     1      -1.800   7.309   0.501  0.00  0.00    -0.076 C 
ATOM      7  C   UNL     1      -1.948   7.489   2.914  0.00  0.00    -0.076 C 
ATOM      8  C   UNL     1      -2.598   6.106   3.018  0.00  0.00    +0.017 C 
ATOM      9  N   UNL     1      -0.693   4.960   1.962  0.00  0.00    -0.271 N 
ATOM     10  C   UNL     1      -0.573   3.623   2.070  0.00  0.00    +0.312 C 
ATOM     11  O   UNL     1       0.491   3.046   2.178  0.00  0.00    -0.252 OA
ATOM     12  N   UNL     1      -2.337   8.104   1.627  0.00  0.00    +0.383 N 
ATOM     13  H   UNL     1      -3.361   8.122   1.562  0.00  0.00    -0.081 HD
ENDROOT
BRANCH   1  15
ATOM     14  C   UNL     1      -1.195   0.871   0.981  0.00  0.00    +0.028 C 
ATOM     15  C   UNL     1      -1.928   1.548   2.140  0.00  0.00    +0.080 C 
ATOM     16  C   UNL     1      -1.349   1.055   3.467  0.00  0.00    +0.028 C 
ENDBRANCH   1  15
BRANCH  12  17
ATOM     17  C   UNL     1      -1.826   9.488   1.555  0.00  0.00    -0.036 C 
BRANCH  17  18
ATOM     18  C   UNL     1      -2.526  10.202   0.427  0.00  0.00    +0.019 A 
ATOM     19  C   UNL     1      -1.914  10.313  -0.811  0.00  0.00    +0.125 A 
ATOM     20  C   UNL     1      -2.563  10.966  -1.849  0.00  0.00    +0.046 A 
ATOM     21  C   UNL     1      -3.814  11.516  -1.646  0.00  0.00    +0.007 A 
ATOM     22  C   UNL     1      -4.424  11.412  -0.410  0.00  0.00    +0.046 A 
ATOM     23  C   UNL     1      -3.782  10.755   0.629  0.00  0.00    +0.125 A 
BRANCH  23  24
ATOM     24  O   UNL     1      -4.383  10.653   1.844  0.00  0.00    -0.495 OA
ATOM     25  C   UNL     1      -5.676  11.246   1.980  0.00  0.00    +0.277 C 
ENDBRANCH  23  24
BRANCH  19  26
ATOM     26  O   UNL     1      -0.681   9.777  -1.010  0.00  0.00    -0.495 OA
ATOM     27  C   UNL     1      -0.110   9.928  -2.312  0.00  0.00    +0.277 C 
ENDBRANCH  19  26
ENDBRANCH  17  18
ENDBRANCH  12  17
BRANCH   9  28
ATOM     28  C   UNL     1       0.395   5.941   1.955  0.00  0.00    +0.115 C 
BRANCH  28  29
ATOM     29  C   UNL     1       1.077   5.956   3.325  0.00  0.00    +0.054 C 
BRANCH  29  30
ATOM     30  C   UNL     1       2.150   7.014   3.340  0.00  0.00    -0.046 A 
ATOM     31  C   UNL     1       3.418   6.717   2.877  0.00  0.00    +0.007 A 
ATOM     32  C   UNL     1       4.402   7.687   2.884  0.00  0.00    +0.046 A 
ATOM     33  C   UNL     1       4.120   8.956   3.368  0.00  0.00    +0.120 A 
ATOM     34  C   UNL     1       2.848   9.249   3.838  0.00  0.00    +0.046 A 
ATOM     35  C   UNL     1       1.866   8.278   3.823  0.00  0.00    +0.007 A 
BRANCH  33  36
ATOM     36  O   UNL     1       5.088   9.910   3.381  0.00  0.00    -0.495 OA
ATOM     37  C   UNL     1       6.374   9.537   2.882  0.00  0.00    +0.277 C 
ENDBRANCH  33  36
ENDBRANCH  29  30
ENDBRANCH  28  29
ENDBRANCH   9  28
TORSDOF 9
