REMARK  Name = ZINC38700812
REMARK  12 active torsions:
REMARK  status: ('A' for Active; 'I' for Inactive)
REMARK    1  A    between atoms: C_1  and  C_2
REMARK    2  A    between atoms: C_2  and  C_3
REMARK    3  A    between atoms: C_3  and  C_4
REMARK    4  A    between atoms: C_4  and  O_5
REMARK    5  A    between atoms: O_5  and  C_6
REMARK    6  A    between atoms: C_11  and  C_12
REMARK    7  A    between atoms: C_17  and  O_26
REMARK    8  A    between atoms: C_21  and  N_25
REMARK    9  A    between atoms: C_22  and  C_23
REMARK   10  A    between atoms: O_26  and  C_27
REMARK   11  A    between atoms: C_27  and  C_29
REMARK   12  A    between atoms: C_30  and  C_39
REMARK                            x       y       z     vdW  Elec       q    Type
REMARK                         _______ _______ _______ _____ _____    ______ ____
ROOT
ATOM      1  C   UNL     1       2.784  -3.427  -4.787  0.00  0.00    +0.101 C 
ATOM      2  C   UNL     1       2.103  -3.681  -6.106  0.00  0.00    +0.008 A 
ATOM      3  C   UNL     1       0.789  -3.284  -6.280  0.00  0.00    +0.012 A 
ATOM      4  C   UNL     1       0.149  -3.509  -7.483  0.00  0.00    +0.047 A 
ATOM      5  C   UNL     1       0.824  -4.135  -8.522  0.00  0.00    +0.136 A 
ATOM      6  C   UNL     1       2.139  -4.534  -8.350  0.00  0.00    +0.093 A 
ATOM      7  C   UNL     1       2.782  -4.308  -7.139  0.00  0.00    +0.138 A 
ATOM      8  O   UNL     1       4.069  -4.704  -6.987  0.00  0.00    -0.441 OA
ATOM      9  C   UNL     1       4.823  -4.172  -6.011  0.00  0.00    +0.199 C 
ATOM     10  C   UNL     1       4.274  -3.555  -4.942  0.00  0.00    +0.098 C 
ENDROOT
BRANCH   1  16
ATOM     11  C   UNL     1       1.659  -4.002  -2.621  0.00  0.00    +0.125 A 
ATOM     12  C   UNL     1       1.209  -4.930  -1.693  0.00  0.00    +0.046 A 
ATOM     13  C   UNL     1       1.406  -6.279  -1.915  0.00  0.00    +0.004 A 
ATOM     14  C   UNL     1       2.051  -6.705  -3.062  0.00  0.00    +0.001 A 
ATOM     15  C   UNL     1       2.500  -5.782  -3.988  0.00  0.00    +0.008 A 
ATOM     16  C   UNL     1       2.300  -4.432  -3.773  0.00  0.00    +0.007 A 
BRANCH  11  17
ATOM     17  O   UNL     1       1.465  -2.674  -2.405  0.00  0.00    -0.492 OA
BRANCH  17  18
ATOM     18  C   UNL     1       0.797  -2.304  -1.198  0.00  0.00    +0.229 C 
BRANCH  18  19
ATOM     19  C   UNL     1       0.672  -0.780  -1.130  0.00  0.00    +0.041 C 
BRANCH  19  21
ATOM     20  C   UNL     1      -0.169   1.139   0.230  0.00  0.00    +0.004 C 
ATOM     21  C   UNL     1      -0.043  -0.384   0.163  0.00  0.00    -0.000 C 
ENDBRANCH  19  21
ENDBRANCH  18  19
ENDBRANCH  17  18
ENDBRANCH  11  17
ENDBRANCH   1  16
BRANCH   9  22
ATOM     22  N   UNL     1       6.190  -4.260  -6.102  0.00  0.00    -0.328 N 
ATOM     23  H   UNL     1       6.598  -4.701  -6.863  0.00  0.00    +0.145 HD
ATOM     24  H   UNL     1       6.748  -3.880  -5.404  0.00  0.00    +0.145 HD
ENDBRANCH   9  22
BRANCH  10  25
ATOM     25  C   UNL     1       5.133  -3.009  -3.934  0.00  0.00    +0.101 C 
ATOM     26  N   UNL     1       5.815  -2.577  -3.135  0.00  0.00    -0.191 NA
ENDBRANCH  10  25
BRANCH   5  27
ATOM     27  O   UNL     1       0.194  -4.357  -9.706  0.00  0.00    -0.420 OA
BRANCH  27  28
ATOM     28  C   UNL     1      -0.098  -5.631 -10.038  0.00  0.00    +0.380 C 
ATOM     29  O   UNL     1       0.105  -6.529  -9.243  0.00  0.00    -0.241 OA
BRANCH  28  30
ATOM     30  C   UNL     1      -0.662  -5.934 -11.359  0.00  0.00    +0.216 A 
ATOM     31  C   UNL     1      -1.000  -7.175 -11.800  0.00  0.00    +0.010 A 
ATOM     32  C   UNL     1      -1.514  -6.997 -13.157  0.00  0.00    +0.027 A 
ATOM     33  C   UNL     1      -2.014  -7.866 -14.130  0.00  0.00    +0.050 A 
ATOM     34  C   UNL     1      -2.429  -7.362 -15.343  0.00  0.00    +0.124 A 
ATOM     35  C   UNL     1      -2.351  -5.998 -15.599  0.00  0.00    +0.042 A 
ATOM     36  C   UNL     1      -1.860  -5.130 -14.648  0.00  0.00    +0.050 A 
ATOM     37  C   UNL     1      -1.436  -5.616 -13.416  0.00  0.00    +0.136 A 
ATOM     38  O   UNL     1      -0.929  -5.023 -12.317  0.00  0.00    -0.448 OA
ATOM     39  F   UNL     1      -2.914  -8.197 -16.288  0.00  0.00    -0.205 F 
ATOM     40  C   UNL     1      -0.869  -8.472 -11.043  0.00  0.00    +0.048 C 
ENDBRANCH  28  30
ENDBRANCH  27  28
ENDBRANCH   5  27
TORSDOF 10
