REMARK  Name = ZINC35675863
REMARK  3 active torsions:
REMARK  status: ('A' for Active; 'I' for Inactive)
REMARK    1  A    between atoms: C_3  and  O_9
REMARK    2  A    between atoms: O_9  and  C_10
REMARK    3  A    between atoms: C_13  and  N_19
REMARK                            x       y       z     vdW  Elec       q    Type
REMARK                         _______ _______ _______ _____ _____    ______ ____
ROOT
ATOM      1  C   UNL     1       3.379   3.454  -0.005  0.00  0.00    +0.159 A 
ATOM      2  C   UNL     1       2.131   3.986   0.073  0.00  0.00    +0.050 A 
ATOM      3  C   UNL     1       1.903   5.363   0.093  0.00  0.00    +0.029 A 
ATOM      4  C   UNL     1       2.915   6.270   0.035  0.00  0.00    +0.056 A 
ATOM      5  C   UNL     1       4.302   5.801  -0.051  0.00  0.00    +0.158 A 
ATOM      6  C   UNL     1       4.541   4.344  -0.066  0.00  0.00    +0.178 A 
ATOM      7  N   UNL     1       5.835   4.144  -0.141  0.00  0.00    -0.045 NA
ATOM      8  O   UNL     1       6.471   5.411  -0.170  0.00  0.00    -0.241 OA
ATOM      9  N   UNL     1       5.462   6.406  -0.119  0.00  0.00    -0.047 NA
ENDROOT
BRANCH   4  10
ATOM     10  N   UNL     1       2.635   7.638   0.058  0.00  0.00    -0.356 N 
ATOM     11  H   UNL     1       1.717   7.944   0.115  0.00  0.00    +0.142 HD
ATOM     12  H   UNL     1       3.360   8.281   0.016  0.00  0.00    +0.142 HD
ENDBRANCH   4  10
BRANCH   1  13
ATOM     13  O   UNL     1       3.548   2.106  -0.021  0.00  0.00    -0.453 OA
BRANCH  13  16
ATOM     14  C   UNL     1       4.200   1.583   3.520  0.00  0.00    +0.023 A 
ATOM     15  C   UNL     1       3.958   2.222   2.319  0.00  0.00    +0.049 A 
ATOM     16  C   UNL     1       3.787   1.479   1.161  0.00  0.00    +0.143 A 
ATOM     17  C   UNL     1       3.861   0.093   1.210  0.00  0.00    +0.061 A 
ATOM     18  C   UNL     1       4.103  -0.542   2.413  0.00  0.00    +0.039 A 
ATOM     19  C   UNL     1       4.273   0.202   3.568  0.00  0.00    +0.042 A 
ATOM     20 CL   UNL     1       4.579  -0.598   5.078  0.00  0.00    -0.084 Cl
ATOM     21 BR   UNL     1       3.628  -0.924  -0.367  0.00  0.00    -0.046 Br
ENDBRANCH  13  16
ENDBRANCH   1  13
TORSDOF 3
