REMARK  Name = ZINC28864152
REMARK  10 active torsions:
REMARK  status: ('A' for Active; 'I' for Inactive)
REMARK    1  A    between atoms: C_1  and  C_2
REMARK    2  A    between atoms: C_10  and  C_11
REMARK    3  A    between atoms: C_11  and  N_12
REMARK    4  A    between atoms: N_19  and  C_23
REMARK    5  A    between atoms: C_23  and  C_24
REMARK    6  A    between atoms: C_24  and  N_25
REMARK    7  A    between atoms: N_25  and  C_26
REMARK    8  A    between atoms: N_25  and  C_27
REMARK    9  A    between atoms: C_27  and  C_28
REMARK   10  A    between atoms: C_28  and  C_29
REMARK                            x       y       z     vdW  Elec       q    Type
REMARK                         _______ _______ _______ _____ _____    ______ ____
ROOT
ATOM      1  N   UNL     1      -5.928  11.810  -6.000  0.00  0.00    +0.386 N 
ATOM      2  C   UNL     1      -5.472  11.167  -7.243  0.00  0.00    -0.072 C 
ATOM      3  C   UNL     1      -3.944  11.206  -7.274  0.00  0.00    +0.037 C 
ATOM      4  C   UNL     1      -3.388  10.686  -5.974  0.00  0.00    +0.051 A 
ATOM      5  C   UNL     1      -4.142  10.589  -4.865  0.00  0.00    +0.022 A 
ATOM      6  C   UNL     1      -3.549  10.108  -3.669  0.00  0.00    +0.258 A 
ATOM      7  O   UNL     1      -4.210  10.019  -2.650  0.00  0.00    -0.267 OA
ATOM      8  N   UNL     1      -2.250   9.750  -3.666  0.00  0.00    -0.261 N 
ATOM      9  C   UNL     1      -1.519   9.855  -4.791  0.00  0.00    +0.351 A 
ATOM     10  O   UNL     1      -0.347   9.531  -4.777  0.00  0.00    -0.244 OA
ATOM     11  N   UNL     1      -2.069  10.308  -5.930  0.00  0.00    -0.198 NA
ATOM     12  C   UNL     1      -5.598  10.967  -4.846  0.00  0.00    -0.035 C 
ATOM     13  H   UNL     1      -5.405  12.771  -5.888  0.00  0.00    -0.081 HD
ENDROOT
BRANCH   1  14
ATOM     14  C   UNL     1      -7.369  12.092  -6.051  0.00  0.00    -0.035 C 
BRANCH  14  24
ATOM     15  C   UNL     1      -7.456  14.939  -4.997  0.00  0.00    +0.045 C 
ATOM     16  C   UNL     1      -7.904  13.757  -4.177  0.00  0.00    -0.034 A 
ATOM     17  C   UNL     1      -8.403  13.948  -2.823  0.00  0.00    -0.008 A 
ATOM     18  C   UNL     1      -8.549  15.152  -2.095  0.00  0.00    +0.009 A 
ATOM     19  C   UNL     1      -9.038  15.142  -0.826  0.00  0.00    +0.001 A 
ATOM     20  C   UNL     1      -9.411  13.960  -0.201  0.00  0.00    +0.001 A 
ATOM     21  C   UNL     1      -9.284  12.763  -0.878  0.00  0.00    +0.015 A 
ATOM     22  C   UNL     1      -8.789  12.760  -2.165  0.00  0.00    +0.020 A 
ATOM     23  S   UNL     1      -8.476  11.495  -3.369  0.00  0.00    -0.095 S 
ATOM     24  C   UNL     1      -7.846  12.518  -4.687  0.00  0.00    -0.023 A 
ENDBRANCH  14  24
ENDBRANCH   1  14
BRANCH   8  25
ATOM     25  C   UNL     1      -1.631   9.252  -2.435  0.00  0.00    +0.111 C 
BRANCH  25  26
ATOM     26  C   UNL     1      -1.786   7.732  -2.365  0.00  0.00    -0.057 C 
BRANCH  26  27
ATOM     27  N   UNL     1      -1.166   7.233  -1.130  0.00  0.00    +0.379 N 
ATOM     28  C   UNL     1      -1.890   7.712   0.054  0.00  0.00    -0.096 C 
ATOM     29  H   UNL     1      -0.141   7.629  -1.083  0.00  0.00    -0.082 HD
BRANCH  27  30
ATOM     30  C   UNL     1      -1.083   5.766  -1.139  0.00  0.00    -0.073 C 
BRANCH  30  31
ATOM     31  C   UNL     1      -0.217   5.298   0.032  0.00  0.00    +0.037 C 
BRANCH  31  32
ATOM     32  C   UNL     1      -0.132   3.793   0.024  0.00  0.00    +0.040 A 
ATOM     33  C   UNL     1       1.107   3.179   0.009  0.00  0.00    +0.023 A 
ATOM     34  C   UNL     1       1.174   1.794   0.001  0.00  0.00    +0.003 A 
ATOM     35  C   UNL     1      -0.013   1.076   0.008  0.00  0.00    +0.020 A 
ATOM     36  C   UNL     1      -1.214   1.759   0.017  0.00  0.00    +0.111 A 
ATOM     37  N   UNL     1      -1.239   3.078   0.030  0.00  0.00    -0.260 NA
ENDBRANCH  31  32
ENDBRANCH  30  31
ENDBRANCH  27  30
ENDBRANCH  26  27
ENDBRANCH  25  26
ENDBRANCH   8  25
TORSDOF 8
