REMARK  Name = ZINC34906022
REMARK  14 active torsions:
REMARK  status: ('A' for Active; 'I' for Inactive)
REMARK    1  A    between atoms: C_1  and  C_2
REMARK    2  A    between atoms: C_5  and  C_33
REMARK    3  A    between atoms: C_6  and  O_8
REMARK    4  A    between atoms: O_8  and  C_9
REMARK    5  A    between atoms: C_9  and  C_10
REMARK    6  A    between atoms: C_12  and  C_15
REMARK    7  A    between atoms: N_17  and  C_18
REMARK    8  A    between atoms: C_18  and  C_19
REMARK    9  A    between atoms: C_19  and  C_20
REMARK   10  A    between atoms: C_20  and  N_21
REMARK   11  A    between atoms: C_22  and  C_24
REMARK   12  A    between atoms: C_28  and  N_30
REMARK   13  A    between atoms: C_33  and  C_34
REMARK   14  A    between atoms: C_33  and  C_35
REMARK                            x       y       z     vdW  Elec       q    Type
REMARK                         _______ _______ _______ _____ _____    ______ ____
ROOT
ATOM      1  C   UNL     1       2.000  -4.805   7.195  0.00  0.00    +0.263 C 
ATOM      2  O   UNL     1       1.768  -5.541   8.135  0.00  0.00    -0.269 OA
ATOM      3  N   UNL     1       3.275  -4.523   6.859  0.00  0.00    -0.310 N 
ATOM      4  H   UNL     1       3.460  -3.936   6.110  0.00  0.00    +0.149 HD
ENDROOT
BRANCH   1   7
ATOM      5  C   UNL     1       0.063  -2.932   4.751  0.00  0.00    +0.116 A 
ATOM      6  N   UNL     1       1.099  -3.409   5.385  0.00  0.00    -0.236 NA
ATOM      7  C   UNL     1       0.889  -4.222   6.425  0.00  0.00    +0.133 A 
ATOM      8  C   UNL     1      -0.420  -4.481   6.731  0.00  0.00    +0.080 A 
ATOM      9  S   UNL     1      -1.246  -3.585   5.574  0.00  0.00    -0.076 S 
BRANCH   5  10
ATOM     10  C   UNL     1       0.045  -2.006   3.562  0.00  0.00    +0.291 C 
BRANCH  10  11
ATOM     11  O   UNL     1       0.050  -2.776   2.358  0.00  0.00    -0.485 OA
BRANCH  11  17
ATOM     12  C   UNL     1      -0.018   1.503   0.010  0.00  0.00    +0.044 C 
ATOM     13  C   UNL     1       0.002  -0.004   0.002  0.00  0.00    -0.047 A 
ATOM     14  C   UNL     1       0.006  -0.688  -1.200  0.00  0.00    +0.004 A 
ATOM     15  C   UNL     1       0.024  -2.071  -1.211  0.00  0.00    +0.008 A 
ATOM     16  C   UNL     1       0.039  -2.772  -0.020  0.00  0.00    -0.003 A 
ATOM     17  C   UNL     1       0.035  -2.088   1.186  0.00  0.00    +0.125 A 
ATOM     18  C   UNL     1       0.023  -0.700   1.195  0.00  0.00    +0.049 A 
BRANCH  16  19
ATOM     19  C   UNL     1       0.059  -4.279  -0.033  0.00  0.00    +0.016 C 
ATOM     20  C   UNL     1      -1.188  -4.799  -0.753  0.00  0.00    +0.012 C 
ATOM     21  C   UNL     1       1.311  -4.766  -0.764  0.00  0.00    +0.012 C 
ENDBRANCH  16  19
ENDBRANCH  11  17
ENDBRANCH  10  11
ENDBRANCH   5  10
ENDBRANCH   1   7
BRANCH   3  22
ATOM     22  C   UNL     1       4.380  -5.103   7.626  0.00  0.00    +0.106 C 
BRANCH  22  23
ATOM     23  C   UNL     1       5.711  -4.627   7.042  0.00  0.00    +0.037 C 
BRANCH  23  24
ATOM     24  C   UNL     1       6.865  -5.232   7.843  0.00  0.00    +0.106 C 
BRANCH  24  25
ATOM     25  N   UNL     1       8.140  -4.776   7.284  0.00  0.00    -0.311 N 
ATOM     26  C   UNL     1       9.302  -5.185   7.832  0.00  0.00    +0.244 C 
ATOM     27  O   UNL     1       9.291  -5.932   8.791  0.00  0.00    -0.270 OA
ATOM     28  H   UNL     1       8.149  -4.180   6.519  0.00  0.00    +0.149 HD
BRANCH  26  29
ATOM     29  C   UNL     1      10.588  -4.725   7.268  0.00  0.00    +0.039 A 
ATOM     30  C   UNL     1      10.604  -3.862   6.170  0.00  0.00    +0.013 A 
ATOM     31  C   UNL     1      11.807  -3.435   5.649  0.00  0.00    +0.003 A 
ATOM     32  C   UNL     1      12.998  -3.862   6.211  0.00  0.00    +0.033 A 
ATOM     33  C   UNL     1      12.990  -4.717   7.298  0.00  0.00    +0.127 A 
ATOM     34  C   UNL     1      11.793  -5.146   7.833  0.00  0.00    +0.045 A 
BRANCH  33  35
ATOM     35  N   UNL     1      14.268  -5.168   7.892  0.00  0.00    +0.056 N 
ATOM     36  O   UNL     1      15.318  -4.789   7.427  0.00  0.00    -0.126 OA
ATOM     37  O   UNL     1      14.262  -5.916   8.842  0.00  0.00    -0.126 OA
ENDBRANCH  33  35
ENDBRANCH  26  29
ENDBRANCH  24  25
ENDBRANCH  23  24
ENDBRANCH  22  23
ENDBRANCH   3  22
TORSDOF 11
