REMARK  Name = ZINC02967843
REMARK  8 active torsions:
REMARK  status: ('A' for Active; 'I' for Inactive)
REMARK    1  A    between atoms: C_9  and  C_27
REMARK    2  A    between atoms: C_14  and  S_16
REMARK    3  A    between atoms: S_16  and  C_17
REMARK    4  A    between atoms: C_17  and  C_18
REMARK    5  A    between atoms: N_20  and  C_21
REMARK    6  A    between atoms: C_27  and  C_28
REMARK    7  A    between atoms: N_30  and  C_31
REMARK    8  A    between atoms: C_31  and  C_32
REMARK                            x       y       z     vdW  Elec       q    Type
REMARK                         _______ _______ _______ _____ _____    ______ ____
ROOT
ATOM      1  C   UNL     1       1.621  -4.128  -0.035  0.00  0.00    +0.001 A 
ATOM      2  C   UNL     1       3.002  -4.255  -0.048  0.00  0.00    +0.002 A 
ATOM      3  C   UNL     1       3.812  -3.141  -0.050  0.00  0.00    +0.028 A 
ATOM      4  C   UNL     1       3.238  -1.867  -0.038  0.00  0.00    +0.077 A 
ATOM      5  C   UNL     1       1.834  -1.744  -0.024  0.00  0.00    +0.041 A 
ATOM      6  C   UNL     1       1.032  -2.881  -0.022  0.00  0.00    +0.013 A 
ATOM      7  C   UNL     1       1.248  -0.386  -0.012  0.00  0.00    +0.139 C 
ATOM      8  N   UNL     1       0.002  -0.004   0.002  0.00  0.00    -0.255 NA
ATOM      9  C   UNL     1      -0.018   1.465   0.010  0.00  0.00    +0.202 C 
ATOM     10  C   UNL     1       1.446   1.851  -0.002  0.00  0.00    +0.252 C 
ATOM     11  O   UNL     1       1.909   2.971   0.000  0.00  0.00    -0.272 OA
ATOM     12  N   UNL     1       2.128   0.683  -0.015  0.00  0.00    -0.200 N 
ATOM     13  C   UNL     1       3.487   0.450  -0.028  0.00  0.00    +0.169 C 
ATOM     14  N   UNL     1       4.005  -0.748  -0.039  0.00  0.00    -0.225 NA
ENDROOT
BRANCH  13  15
ATOM     15  S   UNL     1       4.576   1.835  -0.031  0.00  0.00    -0.080 S 
BRANCH  15  16
ATOM     16  C   UNL     1       6.172   0.981  -0.051  0.00  0.00    +0.172 C 
BRANCH  16  17
ATOM     17  C   UNL     1       7.285   1.996  -0.056  0.00  0.00    +0.224 C 
ATOM     18  O   UNL     1       7.026   3.181  -0.047  0.00  0.00    -0.275 OA
ATOM     19  N   UNL     1       8.569   1.588  -0.070  0.00  0.00    -0.312 N 
ATOM     20  H   UNL     1       8.805   0.513  -0.078  0.00  0.00    +0.149 HD
BRANCH  19  21
ATOM     21  C   UNL     1       9.652   2.575  -0.075  0.00  0.00    +0.073 C 
ATOM     22  C   UNL     1       9.930   3.019  -1.513  0.00  0.00    +0.022 C 
ATOM     23  C   UNL     1      11.061   4.050  -1.518  0.00  0.00    +0.002 C 
ATOM     24  C   UNL     1      12.324   3.424  -0.924  0.00  0.00    +0.000 C 
ATOM     25  C   UNL     1      12.046   2.980   0.513  0.00  0.00    +0.002 C 
ATOM     26  C   UNL     1      10.915   1.949   0.519  0.00  0.00    +0.022 C 
ENDBRANCH  19  21
ENDBRANCH  16  17
ENDBRANCH  15  16
ENDBRANCH  13  15
BRANCH   9  27
ATOM     27  C   UNL     1      -0.700   1.985   1.277  0.00  0.00    +0.132 C 
BRANCH  27  28
ATOM     28  C   UNL     1      -2.159   1.610   1.253  0.00  0.00    +0.216 C 
ATOM     29  O   UNL     1      -2.609   0.988   0.314  0.00  0.00    -0.276 OA
ATOM     30  N   UNL     1      -2.963   1.966   2.274  0.00  0.00    -0.308 N 
ATOM     31  H   UNL     1      -2.555   2.530   3.125  0.00  0.00    +0.149 HD
BRANCH  30  32
ATOM     32  C   UNL     1      -4.382   1.601   2.250  0.00  0.00    +0.178 C 
BRANCH  32  33
ATOM     33  C   UNL     1      -5.054   2.114   3.498  0.00  0.00    +0.122 A 
ATOM     34  C   UNL     1      -5.636   3.318   3.640  0.00  0.00    +0.046 A 
ATOM     35  C   UNL     1      -6.135   3.378   4.962  0.00  0.00    +0.041 A 
ATOM     36  C   UNL     1      -5.826   2.208   5.548  0.00  0.00    +0.195 A 
ATOM     37  O   UNL     1      -5.177   1.444   4.655  0.00  0.00    -0.466 OA
ENDBRANCH  32  33
ENDBRANCH  30  32
ENDBRANCH  27  28
ENDBRANCH   9  27
TORSDOF 8
