REMARK  Name = ZINC09778668
REMARK  7 active torsions:
REMARK  status: ('A' for Active; 'I' for Inactive)
REMARK    1  A    between atoms: C_1  and  C_2
REMARK    2  A    between atoms: C_2  and  C_4
REMARK    3  A    between atoms: C_2  and  N_57
REMARK    4  A    between atoms: N_6  and  C_7
REMARK    5  A    between atoms: C_8  and  C_17
REMARK    6  A    between atoms: N_21  and  S_24
REMARK    7  A    between atoms: S_24  and  C_27
REMARK                            x       y       z     vdW  Elec       q    Type
REMARK                         _______ _______ _______ _____ _____    ______ ____
ROOT
ATOM      1  C   UNL     1       1.091   1.472  -5.120  0.00  0.00    -0.004 C 
ATOM      2  C   UNL     1       2.488   1.309  -5.723  0.00  0.00    +0.017 C 
ENDROOT
BRANCH   2   8
ATOM      3  C   UNL     1       4.847   1.194  -5.189  0.00  0.00    -0.060 C 
ATOM      4  C   UNL     1       5.841   0.986  -4.042  0.00  0.00    +0.091 C 
ATOM      5  N   UNL     1       5.636   2.050  -3.047  0.00  0.00    -0.180 NA
ATOM      6  C   UNL     1       4.272   2.286  -2.551  0.00  0.00    +0.091 C 
ATOM      7  C   UNL     1       3.339   2.447  -3.762  0.00  0.00    -0.060 C 
ATOM      8  N   UNL     1       3.480   1.256  -4.629  0.00  0.00    +0.389 N 
ATOM      9  H   UNL     1       3.312   0.414  -4.066  0.00  0.00    -0.081 HD
BRANCH   5  10
ATOM     10  S   UNL     1       6.909   2.956  -2.497  0.00  0.00    +0.067 S 
ATOM     11  O   UNL     1       8.078   2.171  -2.689  0.00  0.00    -0.152 OA
ATOM     12  O   UNL     1       6.529   3.458  -1.223  0.00  0.00    -0.152 OA
BRANCH  10  13
ATOM     13  C   UNL     1       7.056   4.350  -3.564  0.00  0.00    +0.143 A 
ATOM     14  C   UNL     1       6.473   5.569  -3.461  0.00  0.00    +0.036 A 
ATOM     15  C   UNL     1       6.733   6.520  -4.430  0.00  0.00    +0.010 A 
ATOM     16  C   UNL     1       7.572   6.209  -5.448  0.00  0.00    +0.047 A 
ATOM     17  S   UNL     1       8.014   4.524  -5.061  0.00  0.00    -0.077 S 
ENDBRANCH  10  13
ENDBRANCH   5  10
ENDBRANCH   2   8
BRANCH   2  18
ATOM     18  C   UNL     1       2.553   0.019  -6.500  0.00  0.00    +0.204 C 
ATOM     19  O   UNL     1       2.941  -0.995  -5.960  0.00  0.00    -0.277 OA
ATOM     20  N   UNL     1       2.178  -0.007  -7.794  0.00  0.00    -0.280 N 
ATOM     21  H   UNL     1       1.867   0.804  -8.226  0.00  0.00    +0.155 HD
BRANCH  20  22
ATOM     22  C   UNL     1       2.238  -1.194  -8.510  0.00  0.00    +0.090 A 
ATOM     23  C   UNL     1       1.900  -1.420  -9.834  0.00  0.00    +0.084 A 
ATOM     24  C   UNL     1       2.057  -2.771 -10.354  0.00  0.00    -0.018 A 
ATOM     25  C   UNL     1       2.516  -3.674  -9.461  0.00  0.00    -0.004 A 
ATOM     26  S   UNL     1       2.760  -2.754  -7.966  0.00  0.00    -0.077 S 
ATOM     27  C   UNL     1       2.767  -5.133  -9.681  0.00  0.00    +0.043 C 
ATOM     28  C   UNL     1       3.591  -5.317 -10.963  0.00  0.00    +0.005 C 
ATOM     29  C   UNL     1       2.630  -5.453 -12.140  0.00  0.00    +0.001 C 
ATOM     30  C   UNL     1       1.379  -4.611 -11.898  0.00  0.00    +0.005 C 
ATOM     31  C   UNL     1       1.741  -3.133 -11.800  0.00  0.00    +0.037 C 
BRANCH  23  32
ATOM     32  C   UNL     1       1.413  -0.359 -10.664  0.00  0.00    +0.102 C 
ATOM     33  N   UNL     1       1.027   0.482 -11.323  0.00  0.00    -0.191 NA
ENDBRANCH  23  32
ENDBRANCH  20  22
ENDBRANCH   2  18
TORSDOF 6
