REMARK  Name = ZINC09746254
REMARK  8 active torsions:
REMARK  status: ('A' for Active; 'I' for Inactive)
REMARK    1  A    between atoms: C_6  and  N_7
REMARK    2  A    between atoms: C_13  and  C_15
REMARK    3  A    between atoms: C_15  and  C_16
REMARK    4  A    between atoms: C_16  and  C_17
REMARK    5  A    between atoms: N_26  and  C_27
REMARK    6  A    between atoms: C_27  and  C_28
REMARK    7  A    between atoms: C_28  and  C_29
REMARK    8  A    between atoms: C_29  and  N_30
REMARK                            x       y       z     vdW  Elec       q    Type
REMARK                         _______ _______ _______ _____ _____    ______ ____
ROOT
ATOM      1  C   UNL     1      -5.927  -6.117  -1.355  0.00  0.00    +0.156 A 
ATOM      2  N   UNL     1      -5.967  -6.807  -2.469  0.00  0.00    -0.132 NA
ATOM      3  N   UNL     1      -5.935  -8.068  -2.211  0.00  0.00    -0.128 NA
ATOM      4  C   UNL     1      -5.872  -8.243  -0.900  0.00  0.00    +0.178 A 
ATOM      5  N   UNL     1      -5.860  -6.994  -0.332  0.00  0.00    -0.195 N 
ATOM      6  N   UNL     1      -5.792  -6.858   1.057  0.00  0.00    -0.148 NA
ATOM      7  C   UNL     1      -5.736  -7.918   1.828  0.00  0.00    +0.140 A 
ATOM      8  C   UNL     1      -5.742  -9.214   1.276  0.00  0.00    +0.049 A 
ATOM      9  C   UNL     1      -5.816  -9.380  -0.071  0.00  0.00    +0.053 A 
ATOM     10  N   UNL     1      -5.668  -7.760   3.208  0.00  0.00    -0.328 N 
ATOM     11  H   UNL     1      -5.626  -8.540   3.784  0.00  0.00    +0.147 HD
ENDROOT
BRANCH   1  12
ATOM     12  C   UNL     1      -5.945  -4.614  -1.239  0.00  0.00    +0.087 C 
BRANCH  12  13
ATOM     13  C   UNL     1      -4.511  -4.083  -1.274  0.00  0.00    +0.104 C 
BRANCH  13  20
ATOM     14  N   UNL     1      -1.198  -0.721   0.010  0.00  0.00    -0.327 N 
ATOM     15  C   UNL     1      -2.486  -0.022   0.131  0.00  0.00    +0.124 C 
ATOM     16  C   UNL     1      -3.375  -0.424  -1.053  0.00  0.00    +0.126 C 
ATOM     17  N   UNL     1      -3.372  -1.889  -1.165  0.00  0.00    -0.298 N 
ATOM     18  C   UNL     1      -2.085  -2.588  -1.286  0.00  0.00    +0.126 C 
ATOM     19  C   UNL     1      -1.196  -2.186  -0.108  0.00  0.00    +0.124 C 
ATOM     20  C   UNL     1      -4.529  -2.580  -1.157  0.00  0.00    +0.216 C 
ATOM     21  O   UNL     1      -5.585  -1.993  -1.057  0.00  0.00    -0.276 OA
BRANCH  14  27
ATOM     22  C   UNL     1       1.215  -0.680   0.003  0.00  0.00    +0.026 A 
ATOM     23  C   UNL     1       2.400   0.030  -0.005  0.00  0.00    +0.040 A 
ATOM     24  C   UNL     1       2.379   1.414  -0.015  0.00  0.00    +0.124 A 
ATOM     25  C   UNL     1       1.170   2.090  -0.016  0.00  0.00    +0.040 A 
ATOM     26  C   UNL     1      -0.017   1.385  -0.007  0.00  0.00    +0.026 A 
ATOM     27  C   UNL     1       0.002  -0.004   0.002  0.00  0.00    +0.030 A 
ATOM     28  F   UNL     1       3.539   2.107  -0.023  0.00  0.00    -0.205 F 
ENDBRANCH  14  27
ENDBRANCH  13  20
ENDBRANCH  12  13
ENDBRANCH   1  12
BRANCH  10  29
ATOM     29  C   UNL     1      -5.661  -6.417   3.793  0.00  0.00    +0.104 C 
BRANCH  29  30
ATOM     30  C   UNL     1      -5.582  -6.524   5.317  0.00  0.00    +0.038 C 
BRANCH  30  31
ATOM     31  C   UNL     1      -5.574  -5.121   5.927  0.00  0.00    +0.109 C 
BRANCH  31  32
ATOM     32  N   UNL     1      -5.498  -5.224   7.386  0.00  0.00    -0.301 N 
ATOM     33  C   UNL     1      -6.665  -5.307   8.272  0.00  0.00    +0.108 C 
ATOM     34  C   UNL     1      -6.123  -5.830   9.621  0.00  0.00    +0.028 C 
ATOM     35  C   UNL     1      -4.646  -5.374   9.565  0.00  0.00    +0.097 C 
ATOM     36  C   UNL     1      -4.351  -5.259   8.086  0.00  0.00    +0.216 C 
ATOM     37  O   UNL     1      -3.240  -5.204   7.602  0.00  0.00    -0.276 OA
ENDBRANCH  31  32
ENDBRANCH  30  31
ENDBRANCH  29  30
ENDBRANCH  10  29
TORSDOF 8
