REMARK  Name = ZINC33306591
REMARK  12 active torsions:
REMARK  status: ('A' for Active; 'I' for Inactive)
REMARK    1  A    between atoms: C_1  and  C_2
REMARK    2  A    between atoms: C_3  and  N_28
REMARK    3  A    between atoms: C_4  and  C_7
REMARK    4  A    between atoms: C_8  and  C_9
REMARK    5  A    between atoms: C_12  and  S_14
REMARK    6  A    between atoms: S_14  and  N_17
REMARK    7  A    between atoms: N_17  and  C_18
REMARK    8  A    between atoms: C_21  and  O_26
REMARK    9  A    between atoms: C_23  and  O_24
REMARK   10  A    between atoms: O_24  and  C_25
REMARK   11  A    between atoms: O_26  and  C_27
REMARK   12  A    between atoms: C_29  and  C_31
REMARK                            x       y       z     vdW  Elec       q    Type
REMARK                         _______ _______ _______ _____ _____    ______ ____
ROOT
ATOM      1  C   UNL     1       1.418   2.034  -5.203  0.00  0.00    +0.014 A 
ATOM      2  C   UNL     1       2.662   2.568  -4.903  0.00  0.00    +0.017 A 
ATOM      3  C   UNL     1       2.959   2.832  -3.587  0.00  0.00    +0.037 A 
ATOM      4  C   UNL     1       2.037   2.553  -2.628  0.00  0.00    +0.146 A 
ATOM      5  S   UNL     1       0.677   1.903  -3.584  0.00  0.00    -0.069 S 
ENDROOT
BRANCH   4   6
ATOM      6  S   UNL     1       2.152   2.782  -0.885  0.00  0.00    +0.079 S 
ATOM      7  O   UNL     1       3.537   2.779  -0.566  0.00  0.00    -0.149 OA
ATOM      8  O   UNL     1       1.233   1.874  -0.294  0.00  0.00    -0.149 OA
BRANCH   6   9
ATOM      9  N   UNL     1       1.593   4.305  -0.552  0.00  0.00    -0.212 N 
ATOM     10  H   UNL     1       2.253   5.039  -0.067  0.00  0.00    +0.174 HD
BRANCH   9  11
ATOM     11  C   UNL     1       0.279   4.658  -0.890  0.00  0.00    +0.090 A 
ATOM     12  C   UNL     1      -0.739   3.721  -0.792  0.00  0.00    +0.032 A 
ATOM     13  C   UNL     1      -2.033   4.069  -1.130  0.00  0.00    +0.048 A 
ATOM     14  C   UNL     1      -2.319   5.357  -1.557  0.00  0.00    +0.124 A 
ATOM     15  C   UNL     1      -1.304   6.297  -1.656  0.00  0.00    +0.093 A 
ATOM     16  C   UNL     1      -0.005   5.951  -1.324  0.00  0.00    +0.146 A 
BRANCH  16  17
ATOM     17  O   UNL     1       0.991   6.872  -1.420  0.00  0.00    -0.493 OA
ATOM     18  C   UNL     1       0.626   8.178  -1.871  0.00  0.00    +0.277 C 
ENDBRANCH  16  17
BRANCH  14  19
ATOM     19  O   UNL     1      -3.595   5.697  -1.883  0.00  0.00    -0.495 OA
ATOM     20  C   UNL     1      -4.590   4.679  -1.757  0.00  0.00    +0.277 C 
ENDBRANCH  14  19
ENDBRANCH   9  11
ENDBRANCH   6   9
ENDBRANCH   4   6
BRANCH   1  22
ATOM     21  C   UNL     1      -0.390   1.159  -6.586  0.00  0.00    +0.052 C 
ATOM     22  C   UNL     1       0.859   1.673  -6.505  0.00  0.00    +0.019 C 
BRANCH  21  26
ATOM     23  C   UNL     1      -3.540  -0.491 -10.211  0.00  0.00    +0.071 C 
ATOM     24  C   UNL     1      -2.331   0.071  -9.507  0.00  0.00    +0.102 A 
ATOM     25  C   UNL     1      -2.204   0.266  -8.121  0.00  0.00    +0.103 A 
ATOM     26  C   UNL     1      -0.949   0.798  -7.887  0.00  0.00    +0.182 A 
ATOM     27  O   UNL     1      -0.338   0.927  -9.084  0.00  0.00    -0.353 OA
ATOM     28  N   UNL     1      -1.226   0.458 -10.081  0.00  0.00    -0.081 NA
BRANCH  25  29
ATOM     29  N   UNL     1      -3.175  -0.025  -7.152  0.00  0.00    -0.281 N 
ATOM     30  C   UNL     1      -4.484   0.061  -7.461  0.00  0.00    +0.220 C 
ATOM     31  O   UNL     1      -4.824   0.473  -8.550  0.00  0.00    -0.275 OA
ATOM     32  H   UNL     1      -2.868  -0.322  -6.138  0.00  0.00    +0.155 HD
BRANCH  30  33
ATOM     33  C   UNL     1      -5.525  -0.356  -6.454  0.00  0.00    +0.075 C 
ATOM     34  C   UNL     1      -6.340  -1.614  -6.760  0.00  0.00    +0.013 C 
ATOM     35  C   UNL     1      -6.994  -0.235  -6.866  0.00  0.00    +0.013 C 
ENDBRANCH  30  33
ENDBRANCH  25  29
ENDBRANCH  21  26
ENDBRANCH   1  22
TORSDOF 9
