REMARK  Name = ZINC33933939
REMARK  12 active torsions:
REMARK  status: ('A' for Active; 'I' for Inactive)
REMARK    1  A    between atoms: C_1  and  C_2
REMARK    2  A    between atoms: C_13  and  O_15
REMARK    3  A    between atoms: O_15  and  C_16
REMARK    4  A    between atoms: C_16  and  C_18
REMARK    5  A    between atoms: C_18  and  C_19
REMARK    6  A    between atoms: C_19  and  C_20
REMARK    7  A    between atoms: N_22  and  C_23
REMARK    8  A    between atoms: C_23  and  C_25
REMARK    9  A    between atoms: C_23  and  C_31
REMARK   10  A    between atoms: C_31  and  O_33
REMARK   11  A    between atoms: O_33  and  C_34
REMARK   12  A    between atoms: C_43  and  C_44
REMARK                            x       y       z     vdW  Elec       q    Type
REMARK                         _______ _______ _______ _____ _____    ______ ____
ROOT
ATOM      1  C   UNL     1      -0.019   1.542   0.011  0.00  0.00    +0.015 C 
ATOM      2  C   UNL     1       0.002  -0.004   0.002  0.00  0.00    +0.008 C 
ATOM      3  C   UNL     1       0.632  -0.415  -1.306  0.00  0.00    +0.011 C 
ATOM      4  C   UNL     1       1.157  -1.848  -1.302  0.00  0.00    +0.005 C 
ATOM      5  C   UNL     1       2.154  -1.987  -0.148  0.00  0.00    +0.002 C 
ATOM      6  C   UNL     1       1.381  -1.834   1.160  0.00  0.00    -0.003 C 
ATOM      7  C   UNL     1       0.751  -0.450   1.258  0.00  0.00    +0.002 C 
ATOM      8  C   UNL     1      -0.349  -0.493   2.352  0.00  0.00    +0.008 C 
ATOM      9  C   UNL     1      -1.640  -0.887   1.609  0.00  0.00    +0.045 C 
ATOM     10  C   UNL     1      -1.452  -0.465   0.141  0.00  0.00    +0.183 C 
ATOM     11  C   UNL     1       0.334  -2.936   1.290  0.00  0.00    +0.008 C 
ATOM     12  C   UNL     1       1.029  -4.301   1.335  0.00  0.00    +0.032 C 
ATOM     13  C   UNL     1       1.925  -4.443   0.120  0.00  0.00    -0.060 C 
ATOM     14  C   UNL     1       1.808  -5.555  -0.603  0.00  0.00    +0.046 C 
ATOM     15  C   UNL     1       2.666  -5.781  -1.769  0.00  0.00    +0.156 C 
ATOM     16  O   UNL     1       2.397  -6.613  -2.611  0.00  0.00    -0.293 OA
ATOM     17  C   UNL     1       3.927  -4.946  -1.856  0.00  0.00    +0.080 C 
ATOM     18  C   UNL     1       3.552  -3.494  -1.566  0.00  0.00    +0.019 C 
ATOM     19  C   UNL     1       2.874  -3.334  -0.216  0.00  0.00    -0.007 C 
ATOM     20  C   UNL     1       3.984  -3.330   0.844  0.00  0.00    +0.016 C 
ENDROOT
BRANCH  10  21
ATOM     21  O   UNL     1      -1.742  -1.546  -0.740  0.00  0.00    -0.461 OA
BRANCH  21  22
ATOM     22  C   UNL     1      -3.004  -1.644  -1.188  0.00  0.00    +0.308 C 
ATOM     23  O   UNL     1      -3.833  -0.838  -0.840  0.00  0.00    -0.251 OA
BRANCH  22  24
ATOM     24  C   UNL     1      -3.386  -2.762  -2.123  0.00  0.00    +0.130 C 
BRANCH  24  25
ATOM     25  C   UNL     1      -4.870  -2.645  -2.478  0.00  0.00    +0.107 C 
BRANCH  25  26
ATOM     26  C   UNL     1      -5.253  -3.763  -3.414  0.00  0.00    +0.214 C 
ATOM     27  O   UNL     1      -4.420  -4.573  -3.763  0.00  0.00    -0.276 OA
ATOM     28  N   UNL     1      -6.519  -3.862  -3.863  0.00  0.00    -0.299 N 
ATOM     29  H   UNL     1      -7.185  -3.214  -3.583  0.00  0.00    +0.150 HD
BRANCH  28  30
ATOM     30  C   UNL     1      -6.891  -4.949  -4.773  0.00  0.00    +0.213 C 
BRANCH  30  31
ATOM     31  C   UNL     1      -8.367  -5.226  -4.648  0.00  0.00    -0.017 A 
ATOM     32  C   UNL     1      -9.259  -4.177  -4.520  0.00  0.00    +0.006 A 
ATOM     33  C   UNL     1     -10.613  -4.431  -4.406  0.00  0.00    +0.000 A 
ATOM     34  C   UNL     1     -11.075  -5.734  -4.419  0.00  0.00    +0.000 A 
ATOM     35  C   UNL     1     -10.184  -6.782  -4.548  0.00  0.00    +0.000 A 
ATOM     36  C   UNL     1      -8.830  -6.528  -4.667  0.00  0.00    +0.006 A 
ENDBRANCH  30  31
BRANCH  30  37
ATOM     37  C   UNL     1      -6.573  -4.547  -6.190  0.00  0.00    +0.332 C 
ATOM     38  O   UNL     1      -6.087  -3.465  -6.417  0.00  0.00    -0.248 OA
BRANCH  37  39
ATOM     39  O   UNL     1      -6.831  -5.393  -7.201  0.00  0.00    -0.466 OA
ATOM     40  C   UNL     1      -6.505  -4.947  -8.518  0.00  0.00    +0.280 C 
ENDBRANCH  37  39
ENDBRANCH  30  37
ENDBRANCH  28  30
ENDBRANCH  25  26
ENDBRANCH  24  25
ENDBRANCH  22  24
ENDBRANCH  21  22
ENDBRANCH  10  21
TORSDOF 9
