REMARK  Name = ZINC02124690
REMARK  9 active torsions:
REMARK  status: ('A' for Active; 'I' for Inactive)
REMARK    1  A    between atoms: C_1  and  C_2
REMARK    2  A    between atoms: C_12  and  C_13
REMARK    3  A    between atoms: C_13  and  C_14
REMARK    4  A    between atoms: C_14  and  C_15
REMARK    5  A    between atoms: C_20  and  C_23
REMARK    6  A    between atoms: C_28  and  C_29
REMARK    7  A    between atoms: C_29  and  C_30
REMARK    8  A    between atoms: C_29  and  C_31
REMARK    9  A    between atoms: C_29  and  C_32
REMARK                            x       y       z     vdW  Elec       q    Type
REMARK                         _______ _______ _______ _____ _____    ______ ____
ROOT
ATOM      1  C   UNL     1      -0.018   1.503   0.010  0.00  0.00    +0.045 C 
ATOM      2  C   UNL     1       0.002  -0.004   0.002  0.00  0.00    -0.030 A 
ATOM      3  C   UNL     1      -0.006  -0.750  -1.260  0.00  0.00    +0.022 A 
ATOM      4  C   UNL     1      -0.021  -0.081  -2.484  0.00  0.00    +0.023 A 
ATOM      5  C   UNL     1      -0.024  -0.818  -3.661  0.00  0.00    +0.025 A 
ATOM      6  C   UNL     1      -0.005  -2.227  -3.622  0.00  0.00    +0.139 A 
ATOM      7  C   UNL     1       0.016  -2.884  -2.401  0.00  0.00    +0.093 A 
ATOM      8  C   UNL     1       0.018  -2.160  -1.222  0.00  0.00    +0.143 A 
ATOM      9  O   UNL     1       0.038  -2.796  -0.029  0.00  0.00    -0.422 OA
ATOM     10  C   UNL     1       0.041  -2.118   1.129  0.00  0.00    +0.341 A 
ATOM     11  O   UNL     1       0.059  -2.736   2.178  0.00  0.00    -0.245 OA
ATOM     12  C   UNL     1       0.023  -0.707   1.163  0.00  0.00    +0.041 A 
ATOM     13  O   UNL     1      -0.013  -2.659  -4.900  0.00  0.00    -0.463 OA
ATOM     14  C   UNL     1      -0.035  -1.624  -5.758  0.00  0.00    +0.200 A 
ATOM     15  C   UNL     1      -0.043  -0.465  -5.087  0.00  0.00    +0.003 A 
ENDROOT
BRANCH  15  16
ATOM     16  C   UNL     1      -0.068   0.922  -5.677  0.00  0.00    -0.009 C 
ATOM     17  C   UNL     1      -0.082   0.827  -7.204  0.00  0.00    +0.015 C 
ATOM     18  C   UNL     1      -1.322   1.657  -5.200  0.00  0.00    +0.015 C 
ATOM     19  C   UNL     1       1.176   1.690  -5.225  0.00  0.00    +0.015 C 
ENDBRANCH  15  16
BRANCH  12  20
ATOM     20  C   UNL     1       0.025   0.017   2.485  0.00  0.00    +0.052 C 
BRANCH  20  21
ATOM     21  C   UNL     1      -1.416   0.242   2.946  0.00  0.00    +0.101 C 
BRANCH  21  22
ATOM     22  C   UNL     1      -1.413   0.966   4.267  0.00  0.00    +0.216 C 
ATOM     23  O   UNL     1      -0.362   1.271   4.789  0.00  0.00    -0.276 OA
ATOM     24  N   UNL     1      -2.579   1.274   4.870  0.00  0.00    -0.301 N 
ATOM     25  C   UNL     1      -3.861   0.915   4.247  0.00  0.00    +0.108 C 
ATOM     26  C   UNL     1      -4.730   2.167   4.142  0.00  0.00    +0.032 C 
ATOM     27  C   UNL     1      -4.861   2.812   5.524  0.00  0.00    +0.078 C 
ATOM     28  C   UNL     1      -3.476   3.224   6.030  0.00  0.00    +0.032 C 
ATOM     29  C   UNL     1      -2.593   1.979   6.158  0.00  0.00    +0.108 C 
BRANCH  27  30
ATOM     30  C   UNL     1      -5.744   4.029   5.429  0.00  0.00    +0.214 C 
ATOM     31  O   UNL     1      -5.309   5.119   5.735  0.00  0.00    -0.276 OA
ATOM     32  N   UNL     1      -7.017   3.907   5.004  0.00  0.00    -0.329 N 
ATOM     33  H   UNL     1      -7.365   3.035   4.759  0.00  0.00    +0.145 HD
ATOM     34  H   UNL     1      -7.585   4.691   4.942  0.00  0.00    +0.145 HD
ENDBRANCH  27  30
ENDBRANCH  21  22
ENDBRANCH  20  21
ENDBRANCH  12  20
TORSDOF 5
