REMARK  Name = ZINC28866476
REMARK  9 active torsions:
REMARK  status: ('A' for Active; 'I' for Inactive)
REMARK    1  A    between atoms: C_1  and  C_2
REMARK    2  A    between atoms: C_2  and  C_3
REMARK    3  A    between atoms: C_3  and  N_5
REMARK    4  A    between atoms: C_3  and  N_13
REMARK    5  A    between atoms: C_6  and  C_8
REMARK    6  A    between atoms: C_14  and  N_18
REMARK    7  A    between atoms: N_15  and  C_16
REMARK    8  A    between atoms: N_18  and  C_19
REMARK    9  A    between atoms: C_22  and  C_25
REMARK                            x       y       z     vdW  Elec       q    Type
REMARK                         _______ _______ _______ _____ _____    ______ ____
ROOT
ATOM      1  N   UNL     1       4.171   0.728  -1.259  0.00  0.00    -0.333 N 
ATOM      2  C   UNL     1       3.460  -0.042  -2.136  0.00  0.00    +0.236 C 
ATOM      3  N   UNL     1       2.801  -1.101  -1.702  0.00  0.00    -0.136 NA
ATOM      4  H   UNL     1       4.766   1.576  -1.628  0.00  0.00    +0.164 HD
ENDROOT
BRANCH   3   5
ATOM      5  C   UNL     1       2.185  -1.925  -2.584  0.00  0.00    +0.208 C 
ATOM      6  N   UNL     1       1.668  -2.615  -3.324  0.00  0.00    -0.169 NA
ENDBRANCH   3   5
BRANCH   1   7
ATOM      7  C   UNL     1       4.141   0.423   0.174  0.00  0.00    +0.206 C 
BRANCH   7   9
ATOM      8  C   UNL     1       6.130   1.892   0.529  0.00  0.00    +0.049 C 
ATOM      9  C   UNL     1       5.561   0.488   0.739  0.00  0.00    +0.152 C 
ATOM     10 CL   UNL     1       5.523   0.113   2.502  0.00  0.00    -0.097 Cl
ATOM     11 CL   UNL     1       6.601  -0.716  -0.109  0.00  0.00    -0.097 Cl
ENDBRANCH   7   9
BRANCH   7  12
ATOM     12  N   UNL     1       3.295   1.401   0.863  0.00  0.00    -0.288 N 
ATOM     13  C   UNL     1       2.064   1.049   1.284  0.00  0.00    +0.252 C 
ATOM     14  O   UNL     1       1.654  -0.080   1.090  0.00  0.00    -0.270 OA
ATOM     15  H   UNL     1       3.666   2.421   1.038  0.00  0.00    +0.151 HD
BRANCH  13  16
ATOM     16  C   UNL     1       1.216   2.030   1.968  0.00  0.00    +0.074 A 
ATOM     17  C   UNL     1      -0.068   1.876   2.469  0.00  0.00    +0.021 A 
ATOM     18  C   UNL     1      -0.639   2.969   3.071  0.00  0.00    +0.008 A 
ATOM     19  C   UNL     1       0.067   4.128   3.148  0.00  0.00    +0.046 A 
ATOM     20  S   UNL     1       1.569   3.729   2.381  0.00  0.00    -0.092 S 
ENDBRANCH  13  16
ENDBRANCH   7  12
ENDBRANCH   1   7
BRANCH   2  21
ATOM     21  N   UNL     1       3.432   0.284  -3.464  0.00  0.00    -0.211 NA
BRANCH  21  22
ATOM     22  C   UNL     1       4.022   1.474  -3.905  0.00  0.00    +0.086 A 
ATOM     23  C   UNL     1       4.576   1.557  -5.180  0.00  0.00    +0.031 A 
ATOM     24  C   UNL     1       5.148   2.756  -5.571  0.00  0.00    +0.034 A 
ATOM     25  C   UNL     1       5.150   3.822  -4.691  0.00  0.00    +0.144 A 
ATOM     26  N   UNL     1       4.617   3.711  -3.490  0.00  0.00    -0.249 NA
ATOM     27  C   UNL     1       4.058   2.590  -3.080  0.00  0.00    +0.139 A 
BRANCH  25  28
ATOM     28  C   UNL     1       5.771   5.130  -5.110  0.00  0.00    +0.434 C 
ATOM     29  F   UNL     1       4.801   5.933  -5.719  0.00  0.00    -0.164 F 
ATOM     30  F   UNL     1       6.280   5.786  -3.984  0.00  0.00    -0.164 F 
ATOM     31  F   UNL     1       6.809   4.885  -6.015  0.00  0.00    -0.164 F 
ENDBRANCH  25  28
ENDBRANCH  21  22
ENDBRANCH   2  21
TORSDOF 8
