REMARK  Name = ZINC20106508
REMARK  8 active torsions:
REMARK  status: ('A' for Active; 'I' for Inactive)
REMARK    1  A    between atoms: C_1  and  C_2
REMARK    2  A    between atoms: C_2  and  O_3
REMARK    3  A    between atoms: O_3  and  C_4
REMARK    4  A    between atoms: C_7  and  N_10
REMARK    5  A    between atoms: C_11  and  C_13
REMARK    6  A    between atoms: N_24  and  C_36
REMARK    7  A    between atoms: C_25  and  C_27
REMARK    8  A    between atoms: N_29  and  C_30
REMARK                            x       y       z     vdW  Elec       q    Type
REMARK                         _______ _______ _______ _____ _____    ______ ____
ROOT
ATOM      1  C   UNL     1      -6.313  -0.856   3.478  0.00  0.00    +0.123 C 
ATOM      2  C   UNL     1      -5.702  -2.197   3.999  0.00  0.00    +0.155 C 
ATOM      3  C   UNL     1      -6.451  -3.333   3.293  0.00  0.00    +0.004 C 
ATOM      4  C   UNL     1      -6.038  -3.352   2.020  0.00  0.00    +0.009 C 
ATOM      5  C   UNL     1      -5.080  -2.217   1.944  0.00  0.00    +0.127 C 
ATOM      6  C   UNL     1      -5.924  -0.890   1.989  0.00  0.00    +0.128 C 
ATOM      7  C   UNL     1      -4.887   0.119   1.586  0.00  0.00    +0.224 C 
ATOM      8  O   UNL     1      -4.900   1.296   1.881  0.00  0.00    -0.275 OA
ATOM      9  N   UNL     1      -3.934  -0.492   0.838  0.00  0.00    -0.283 N 
ATOM     10  C   UNL     1      -4.158  -1.957   0.793  0.00  0.00    +0.199 C 
ATOM     11  O   UNL     1      -4.435  -2.208   3.246  0.00  0.00    -0.358 OA
ENDROOT
BRANCH   9  12
ATOM     12  C   UNL     1      -2.830   0.201   0.169  0.00  0.00    +0.077 C 
ATOM     13  C   UNL     1      -1.943   0.872   1.235  0.00  0.00    +0.022 C 
ATOM     14  C   UNL     1      -1.020   1.961   0.652  0.00  0.00    +0.002 C 
ATOM     15  C   UNL     1      -0.412   1.553  -0.662  0.00  0.00    +0.000 C 
ATOM     16  C   UNL     1      -1.298   2.090  -1.805  0.00  0.00    +0.000 C 
ATOM     17  C   UNL     1      -2.467   1.255  -2.039  0.00  0.00    +0.002 C 
ATOM     18  C   UNL     1      -3.399   1.190  -0.812  0.00  0.00    +0.022 C 
ENDBRANCH   9  12
BRANCH   1  20
ATOM     19  N   UNL     1      -6.399   1.458   4.348  0.00  0.00    -0.285 N 
ATOM     20  C   UNL     1      -5.688   0.327   4.171  0.00  0.00    +0.224 C 
ATOM     21  O   UNL     1      -4.544   0.261   4.570  0.00  0.00    -0.275 OA
ATOM     22  H   UNL     1      -7.459   1.492   4.053  0.00  0.00    +0.155 HD
BRANCH  19  26
ATOM     23  C   UNL     1      -4.586   4.824   6.011  0.00  0.00    +0.121 A 
ATOM     24  C   UNL     1      -5.543   4.971   5.018  0.00  0.00    +0.047 A 
ATOM     25  C   UNL     1      -6.144   3.857   4.467  0.00  0.00    +0.027 A 
ATOM     26  C   UNL     1      -5.790   2.589   4.907  0.00  0.00    +0.034 A 
ATOM     27  C   UNL     1      -4.835   2.442   5.904  0.00  0.00    +0.027 A 
ATOM     28  C   UNL     1      -4.231   3.557   6.450  0.00  0.00    +0.047 A 
BRANCH  23  29
ATOM     29  O   UNL     1      -3.994   5.922   6.553  0.00  0.00    -0.492 OA
BRANCH  29  31
ATOM     30  C   UNL     1      -2.467   7.039   8.056  0.00  0.00    +0.048 C 
ATOM     31  C   UNL     1      -3.017   5.696   7.571  0.00  0.00    +0.225 C 
ENDBRANCH  29  31
ENDBRANCH  23  29
ENDBRANCH  19  26
ENDBRANCH   1  20
BRANCH  10  32
ATOM     32  C   UNL     1      -4.810  -2.353  -0.506  0.00  0.00    +0.237 C 
ATOM     33  O   UNL     1      -5.374  -1.518  -1.181  0.00  0.00    -0.274 OA
ATOM     34  N   UNL     1      -4.766  -3.635  -0.919  0.00  0.00    -0.311 N 
ATOM     35  H   UNL     1      -4.255  -4.393  -0.307  0.00  0.00    +0.149 HD
BRANCH  34  36
ATOM     36  C   UNL     1      -5.400  -4.020  -2.182  0.00  0.00    +0.073 C 
ATOM     37  C   UNL     1      -6.885  -4.302  -1.943  0.00  0.00    +0.022 C 
ATOM     38  C   UNL     1      -7.546  -4.704  -3.263  0.00  0.00    +0.002 C 
ATOM     39  C   UNL     1      -6.870  -5.963  -3.810  0.00  0.00    +0.000 C 
ATOM     40  C   UNL     1      -5.386  -5.681  -4.049  0.00  0.00    +0.002 C 
ATOM     41  C   UNL     1      -4.724  -5.279  -2.729  0.00  0.00    +0.022 C 
ENDBRANCH  34  36
ENDBRANCH  10  32
TORSDOF 7
