REMARK  Name = ZINC30826717
REMARK  10 active torsions:
REMARK  status: ('A' for Active; 'I' for Inactive)
REMARK    1  A    between atoms: C_1  and  C_2
REMARK    2  A    between atoms: C_4  and  C_37
REMARK    3  A    between atoms: C_6  and  N_8
REMARK    4  A    between atoms: N_8  and  S_9
REMARK    5  A    between atoms: S_9  and  C_12
REMARK    6  A    between atoms: C_15  and  N_18
REMARK    7  A    between atoms: C_19  and  C_21
REMARK    8  A    between atoms: C_23  and  N_34
REMARK    9  A    between atoms: C_26  and  N_27
REMARK   10  A    between atoms: C_30  and  C_33
REMARK                            x       y       z     vdW  Elec       q    Type
REMARK                         _______ _______ _______ _____ _____    ______ ____
ROOT
ATOM      1  N   UNL     1      -2.554   1.638   0.224  0.00  0.00    -0.281 N 
ATOM      2  C   UNL     1      -1.356   2.255   0.224  0.00  0.00    +0.250 C 
ATOM      3  O   UNL     1      -1.295   3.466   0.320  0.00  0.00    -0.270 OA
ATOM      4  H   UNL     1      -2.607   0.539   0.215  0.00  0.00    +0.155 HD
ENDROOT
BRANCH   1   8
ATOM      5  C   UNL     1      -6.056   3.893   0.257  0.00  0.00    +0.111 A 
ATOM      6  C   UNL     1      -6.009   2.701  -0.444  0.00  0.00    +0.031 A 
ATOM      7  C   UNL     1      -4.850   1.952  -0.457  0.00  0.00    +0.025 A 
ATOM      8  C   UNL     1      -3.730   2.395   0.235  0.00  0.00    +0.034 A 
ATOM      9  C   UNL     1      -3.782   3.589   0.942  0.00  0.00    +0.025 A 
ATOM     10  C   UNL     1      -4.944   4.337   0.947  0.00  0.00    +0.031 A 
BRANCH   5  11
ATOM     11  S   UNL     1      -7.538   4.846   0.270  0.00  0.00    +0.094 S 
ATOM     12  O   UNL     1      -7.155   6.187   0.547  0.00  0.00    -0.148 OA
ATOM     13  O   UNL     1      -8.263   4.487  -0.898  0.00  0.00    -0.148 OA
BRANCH  11  14
ATOM     14  N   UNL     1      -8.438   4.335   1.562  0.00  0.00    -0.058 NA
BRANCH  14  20
ATOM     15  C   UNL     1      -4.768   5.383   4.458  0.00  0.00    +0.066 C 
ATOM     16  C   UNL     1      -6.218   5.028   4.255  0.00  0.00    +0.044 A 
ATOM     17  C   UNL     1      -7.067   4.897   5.343  0.00  0.00    +0.046 A 
ATOM     18  C   UNL     1      -8.394   4.571   5.112  0.00  0.00    +0.044 A 
ATOM     19  N   UNL     1      -8.809   4.394   3.869  0.00  0.00    -0.217 NA
ATOM     20  C   UNL     1      -7.971   4.527   2.851  0.00  0.00    +0.258 A 
ATOM     21  N   UNL     1      -6.696   4.833   3.037  0.00  0.00    -0.217 NA
ATOM     22  C   UNL     1      -9.354   4.418   6.265  0.00  0.00    +0.066 C 
ENDBRANCH  14  20
ENDBRANCH  11  14
ENDBRANCH   5  11
ENDBRANCH   1   8
BRANCH   2  23
ATOM     23  C   UNL     1      -0.119   1.462   0.109  0.00  0.00    +0.060 A 
ATOM     24  C   UNL     1      -0.176   0.065   0.109  0.00  0.00    +0.047 A 
ATOM     25  C   UNL     1       0.983  -0.670  -0.005  0.00  0.00    +0.127 A 
ATOM     26  C   UNL     1       2.209  -0.033  -0.120  0.00  0.00    +0.034 A 
ATOM     27  C   UNL     1       2.282   1.345  -0.122  0.00  0.00    +0.026 A 
ATOM     28  C   UNL     1       1.124   2.104  -0.008  0.00  0.00    +0.042 A 
BRANCH  28  29
ATOM     29  N   UNL     1       1.195   3.491  -0.010  0.00  0.00    -0.329 N 
ATOM     30  C   UNL     1       2.035   3.976   1.093  0.00  0.00    +0.105 C 
ATOM     31  C   UNL     1       1.973   5.504   1.148  0.00  0.00    +0.022 C 
ATOM     32  C   UNL     1       2.465   6.078  -0.184  0.00  0.00    -0.011 C 
ATOM     33  C   UNL     1       1.605   5.519  -1.321  0.00  0.00    +0.022 C 
ATOM     34  C   UNL     1       1.677   3.991  -1.304  0.00  0.00    +0.105 C 
ATOM     35  C   UNL     1       2.349   7.604  -0.157  0.00  0.00    +0.007 C 
ENDBRANCH  28  29
BRANCH  25  36
ATOM     36  N   UNL     1       0.919  -2.149  -0.004  0.00  0.00    +0.056 N 
ATOM     37  O   UNL     1      -0.156  -2.712   0.096  0.00  0.00    -0.126 OA
ATOM     38  O   UNL     1       1.942  -2.803  -0.105  0.00  0.00    -0.126 OA
ENDBRANCH  25  36
ENDBRANCH   2  23
TORSDOF 7
