REMARK  Name = ZINC08868956
REMARK  10 active torsions:
REMARK  status: ('A' for Active; 'I' for Inactive)
REMARK    1  A    between atoms: C_1  and  C_2
REMARK    2  A    between atoms: C_4  and  C_34
REMARK    3  A    between atoms: N_11  and  C_12
REMARK    4  A    between atoms: C_12  and  C_13
REMARK    5  A    between atoms: C_13  and  N_63
REMARK    6  A    between atoms: C_14  and  N_63
REMARK    7  A    between atoms: C_15  and  N_63
REMARK    8  A    between atoms: C_16  and  C_18
REMARK    9  A    between atoms: N_23  and  S_24
REMARK   10  A    between atoms: S_24  and  C_27
REMARK                            x       y       z     vdW  Elec       q    Type
REMARK                         _______ _______ _______ _____ _____    ______ ____
ROOT
ATOM      1  C   UNL     1      11.667  -0.321   0.355  0.00  0.00    +0.044 C 
ATOM      2  C   UNL     1      10.165  -0.339   0.230  0.00  0.00    -0.049 A 
ATOM      3  C   UNL     1       9.458  -1.514   0.441  0.00  0.00    +0.009 A 
ATOM      4  C   UNL     1       8.093  -1.558   0.334  0.00  0.00    -0.024 A 
ATOM      5  C   UNL     1       7.356  -0.397   0.003  0.00  0.00    +0.083 A 
ATOM      6  C   UNL     1       8.109   0.782  -0.204  0.00  0.00    +0.041 A 
ATOM      7  C   UNL     1       9.477   0.816  -0.095  0.00  0.00    +0.020 A 
ATOM      8  S   UNL     1       6.848   1.973  -0.586  0.00  0.00    -0.052 S 
ATOM      9  C   UNL     1       5.449   0.870  -0.452  0.00  0.00    +0.168 A 
ATOM     10  N   UNL     1       6.019  -0.269  -0.135  0.00  0.00    -0.224 NA
ATOM     11  N   UNL     1       4.103   1.148  -0.631  0.00  0.00    -0.251 N 
ATOM     12  C   UNL     1       3.188   0.169  -0.484  0.00  0.00    +0.240 C 
ATOM     13  O   UNL     1       3.532  -0.931  -0.109  0.00  0.00    -0.273 OA
ATOM     14  C   UNL     1       7.368  -2.858   0.571  0.00  0.00    +0.046 C 
ENDROOT
BRANCH  12  15
ATOM     15  C   UNL     1       1.737   0.443  -0.785  0.00  0.00    +0.166 C 
ATOM     16  C   UNL     1       0.938   0.636   0.528  0.00  0.00    +0.031 C 
ATOM     17  C   UNL     1      -0.500   0.271   0.075  0.00  0.00    +0.019 C 
ATOM     18  C   UNL     1      -0.263  -0.860  -0.948  0.00  0.00    +0.110 C 
ATOM     19  N   UNL     1       1.118  -0.726  -1.435  0.00  0.00    -0.165 NA
BRANCH  19  20
ATOM     20  S   UNL     1       1.856  -1.724  -2.531  0.00  0.00    +0.062 S 
ATOM     21  O   UNL     1       3.253  -1.491  -2.416  0.00  0.00    -0.153 OA
ATOM     22  O   UNL     1       1.282  -3.012  -2.358  0.00  0.00    -0.153 OA
BRANCH  20  23
ATOM     23  C   UNL     1       1.384  -1.174  -4.137  0.00  0.00    +0.106 A 
ATOM     24  C   UNL     1       0.255  -1.694  -4.741  0.00  0.00    +0.031 A 
ATOM     25  C   UNL     1      -0.120  -1.259  -5.998  0.00  0.00    +0.040 A 
ATOM     26  C   UNL     1       0.644  -0.310  -6.658  0.00  0.00    +0.124 A 
ATOM     27  C   UNL     1       1.778   0.206  -6.054  0.00  0.00    +0.040 A 
ATOM     28  C   UNL     1       2.147  -0.226  -4.794  0.00  0.00    +0.031 A 
ATOM     29  F   UNL     1       0.282   0.111  -7.889  0.00  0.00    -0.205 F 
ENDBRANCH  20  23
ENDBRANCH  19  20
ENDBRANCH  12  15
BRANCH  11  30
ATOM     30  C   UNL     1       3.675   2.504  -0.981  0.00  0.00    +0.097 C 
BRANCH  30  31
ATOM     31  C   UNL     1       3.267   3.254   0.289  0.00  0.00    -0.060 C 
BRANCH  31  34
ATOM     32  C   UNL     1       2.101   5.219   1.090  0.00  0.00    -0.097 C 
ATOM     33  C   UNL     1       3.755   5.425  -0.667  0.00  0.00    -0.097 C 
ATOM     34  N   UNL     1       2.699   4.564  -0.092  0.00  0.00    +0.377 N 
ATOM     35  H   UNL     1       1.968   4.417  -0.798  0.00  0.00    -0.083 HD
ENDBRANCH  31  34
ENDBRANCH  30  31
ENDBRANCH  11  30
TORSDOF 6
