REMARK  Name = ZINC40465587
REMARK  9 active torsions:
REMARK  status: ('A' for Active; 'I' for Inactive)
REMARK    1  A    between atoms: C_1  and  C_2
REMARK    2  A    between atoms: C_4  and  C_34
REMARK    3  A    between atoms: C_5  and  N_11
REMARK    4  A    between atoms: C_6  and  N_8
REMARK    5  A    between atoms: C_12  and  C_14
REMARK    6  A    between atoms: C_14  and  C_15
REMARK    7  A    between atoms: C_15  and  C_16
REMARK    8  A    between atoms: C_16  and  C_17
REMARK    9  A    between atoms: C_26  and  C_27
REMARK                            x       y       z     vdW  Elec       q    Type
REMARK                         _______ _______ _______ _____ _____    ______ ____
ROOT
ATOM      1  C   UNL     1      -0.662  -8.480   2.144  0.00  0.00    +0.038 C 
ENDROOT
BRANCH   1   2
ATOM      2  C   UNL     1      -0.557  -9.074   3.525  0.00  0.00    -0.013 A 
ATOM      3  C   UNL     1       0.651  -9.603   4.155  0.00  0.00    +0.006 A 
ATOM      4  C   UNL     1       1.981  -9.730   3.742  0.00  0.00    +0.048 A 
ATOM      5  C   UNL     1       2.908 -10.289   4.594  0.00  0.00    +0.124 A 
ATOM      6  C   UNL     1       2.527 -10.726   5.858  0.00  0.00    +0.040 A 
ATOM      7  C   UNL     1       1.221 -10.608   6.278  0.00  0.00    +0.029 A 
ATOM      8  C   UNL     1       0.267 -10.046   5.435  0.00  0.00    +0.047 A 
ATOM      9  N   UNL     1      -1.082  -9.801   5.569  0.00  0.00    -0.353 N 
ATOM     10  H   UNL     1      -1.611 -10.007   6.356  0.00  0.00    +0.166 HD
ATOM     11  C   UNL     1      -1.565  -9.214   4.422  0.00  0.00    +0.069 A 
ATOM     12  F   UNL     1       4.194 -10.414   4.199  0.00  0.00    -0.205 F 
BRANCH  11  13
ATOM     13  C   UNL     1      -2.967  -8.803   4.200  0.00  0.00    +0.087 A 
ATOM     14  C   UNL     1      -3.993  -9.424   4.915  0.00  0.00    +0.030 A 
ATOM     15  C   UNL     1      -5.300  -9.027   4.696  0.00  0.00    +0.004 A 
ATOM     16  C   UNL     1      -5.541  -8.022   3.769  0.00  0.00    +0.020 A 
ATOM     17  C   UNL     1      -4.478  -7.450   3.096  0.00  0.00    +0.111 A 
ATOM     18  N   UNL     1      -3.241  -7.841   3.326  0.00  0.00    -0.254 NA
ENDBRANCH  11  13
ENDBRANCH   1   2
BRANCH   1  19
ATOM     19  C   UNL     1      -0.399  -6.974   2.215  0.00  0.00    +0.014 C 
BRANCH  19  20
ATOM     20  C   UNL     1      -0.505  -6.371   0.813  0.00  0.00    +0.096 C 
BRANCH  20  22
ATOM     21  N   UNL     1      -0.288  -4.143  -0.239  0.00  0.00    -0.283 N 
ATOM     22  C   UNL     1      -0.247  -4.888   0.883  0.00  0.00    +0.217 C 
ATOM     23  O   UNL     1      -0.002  -4.365   1.950  0.00  0.00    -0.275 OA
ATOM     24  H   UNL     1      -0.404  -4.572  -1.101  0.00  0.00    +0.155 HD
BRANCH  21  29
ATOM     25  C   UNL     1       0.214   1.499   0.081  0.00  0.00    +0.044 C 
ATOM     26  C   UNL     1       0.081   0.000  -0.004  0.00  0.00    -0.048 A 
ATOM     27  C   UNL     1       1.072  -0.812   0.516  0.00  0.00    +0.008 A 
ATOM     28  C   UNL     1       0.953  -2.185   0.440  0.00  0.00    -0.027 A 
ATOM     29  C   UNL     1      -0.164  -2.752  -0.160  0.00  0.00    +0.067 A 
ATOM     30  C   UNL     1      -1.158  -1.934  -0.681  0.00  0.00    +0.148 A 
ATOM     31  C   UNL     1      -1.035  -0.561  -0.597  0.00  0.00    +0.038 A 
ATOM     32  C   UNL     1       2.034  -3.069   1.006  0.00  0.00    +0.046 C 
BRANCH  30  33
ATOM     33  N   UNL     1      -2.351  -2.533  -1.321  0.00  0.00    +0.058 N 
ATOM     34  O   UNL     1      -3.170  -1.824  -1.858  0.00  0.00    -0.126 OA
ATOM     35  O   UNL     1      -2.506  -3.732  -1.306  0.00  0.00    -0.126 OA
ENDBRANCH  30  33
ENDBRANCH  21  29
ENDBRANCH  20  22
ENDBRANCH  19  20
ENDBRANCH   1  19
TORSDOF 7
