REMARK  Name = ZINC21083636
REMARK  13 active torsions:
REMARK  status: ('A' for Active; 'I' for Inactive)
REMARK    1  A    between atoms: C_1  and  C_2
REMARK    2  A    between atoms: C_2  and  C_3
REMARK    3  A    between atoms: C_3  and  C_5
REMARK    4  A    between atoms: C_3  and  S_6
REMARK    5  A    between atoms: S_6  and  C_7
REMARK    6  A    between atoms: C_13  and  C_15
REMARK    7  A    between atoms: C_15  and  S_16
REMARK    8  A    between atoms: S_16  and  C_17
REMARK    9  A    between atoms: N_22  and  N_23
REMARK   10  A    between atoms: C_24  and  C_25
REMARK   11  A    between atoms: C_24  and  C_26
REMARK   12  A    between atoms: C_30  and  O_32
REMARK   13  A    between atoms: O_32  and  C_33
REMARK                            x       y       z     vdW  Elec       q    Type
REMARK                         _______ _______ _______ _____ _____    ______ ____
ROOT
ATOM      1  C   UNL     1      -4.898   3.473   8.607  0.00  0.00    +0.211 A 
ATOM      2  N   UNL     1      -4.529   4.604   7.935  0.00  0.00    -0.186 NA
ATOM      3  C   UNL     1      -3.880   4.224   6.793  0.00  0.00    +0.232 A 
ATOM      4  N   UNL     1      -3.854   2.913   6.759  0.00  0.00    -0.245 N 
ATOM      5  N   UNL     1      -4.493   2.438   7.911  0.00  0.00    -0.144 NA
ATOM      6  N   UNL     1      -3.348   5.075   5.836  0.00  0.00    -0.205 N 
ATOM      7  H   UNL     1      -3.430   6.165   5.962  0.00  0.00    +0.177 HD
ATOM      8  H   UNL     1      -3.379   2.394   5.913  0.00  0.00    +0.192 HD
ENDROOT
BRANCH   6   9
ATOM      9  N   UNL     1      -2.705   4.547   4.708  0.00  0.00    -0.184 NA
ATOM     10  C   UNL     1      -2.207   5.344   3.812  0.00  0.00    +0.063 C 
ATOM     11  C   UNL     1      -2.320   6.837   3.985  0.00  0.00    +0.068 C 
BRANCH  10  12
ATOM     12  C   UNL     1      -1.530   4.788   2.626  0.00  0.00    +0.001 A 
ATOM     13  C   UNL     1      -0.993   5.644   1.660  0.00  0.00    +0.010 A 
ATOM     14  C   UNL     1      -0.362   5.120   0.551  0.00  0.00    +0.004 A 
ATOM     15  C   UNL     1      -0.252   3.750   0.395  0.00  0.00    +0.045 A 
ATOM     16  C   UNL     1      -0.787   2.892   1.346  0.00  0.00    +0.121 A 
ATOM     17  C   UNL     1      -1.424   3.406   2.463  0.00  0.00    +0.055 A 
BRANCH  16  18
ATOM     18  O   UNL     1      -0.682   1.547   1.184  0.00  0.00    -0.495 OA
ATOM     19  C   UNL     1      -0.013   1.086   0.008  0.00  0.00    +0.277 C 
ENDBRANCH  16  18
ENDBRANCH  10  12
ENDBRANCH   6   9
BRANCH   1  20
ATOM     20  S   UNL     1      -5.763   3.417  10.141  0.00  0.00    -0.075 S 
BRANCH  20  21
ATOM     21  C   UNL     1      -5.938   1.643  10.481  0.00  0.00    +0.173 C 
BRANCH  21  28
ATOM     22  C   UNL     1      -8.853  -0.675  15.684  0.00  0.00    +0.160 A 
ATOM     23  N   UNL     1      -8.676   0.594  15.348  0.00  0.00    -0.133 NA
ATOM     24  N   UNL     1      -8.075   0.927  14.290  0.00  0.00    -0.125 NA
ATOM     25  C   UNL     1      -7.595   0.030  13.445  0.00  0.00    +0.189 A 
ATOM     26  S   UNL     1      -8.059  -1.477  14.293  0.00  0.00    -0.024 S 
ATOM     27  N   UNL     1      -6.917   0.208  12.241  0.00  0.00    -0.263 N 
ATOM     28  C   UNL     1      -6.671   1.451  11.783  0.00  0.00    +0.229 C 
ATOM     29  O   UNL     1      -7.040   2.416  12.419  0.00  0.00    -0.275 OA
ATOM     30  H   UNL     1      -6.583  -0.667  11.664  0.00  0.00    +0.157 HD
BRANCH  22  31
ATOM     31  S   UNL     1      -9.643  -1.375  17.095  0.00  0.00    -0.094 S 
BRANCH  31  32
ATOM     32  C   UNL     1     -10.196   0.066  18.048  0.00  0.00    +0.050 C 
ATOM     33  C   UNL     1      -8.978   0.853  18.535  0.00  0.00    +0.019 C 
BRANCH  32  35
ATOM     34  C   UNL     1     -12.297  -1.081  18.763  0.00  0.00    +0.005 C 
ATOM     35  C   UNL     1     -11.016  -0.403  19.251  0.00  0.00    +0.011 C 
ENDBRANCH  32  35
ENDBRANCH  31  32
ENDBRANCH  22  31
ENDBRANCH  21  28
ENDBRANCH  20  21
ENDBRANCH   1  20
TORSDOF 9
