REMARK  Name = ZINC14729252
REMARK  6 active torsions:
REMARK  status: ('A' for Active; 'I' for Inactive)
REMARK    1  A    between atoms: C_1  and  C_2
REMARK    2  A    between atoms: C_15  and  C_17
REMARK    3  A    between atoms: C_17  and  C_19
REMARK    4  A    between atoms: C_17  and  N_60
REMARK    5  A    between atoms: C_22  and  C_25
REMARK    6  A    between atoms: C_25  and  C_27
REMARK                            x       y       z     vdW  Elec       q    Type
REMARK                         _______ _______ _______ _____ _____    ______ ____
ROOT
ATOM      1  C   UNL     1      -0.729   1.579   1.267  0.00  0.00    -0.004 C 
ATOM      2  C   UNL     1      -0.127   1.228  -0.095  0.00  0.00    -0.005 C 
ENDROOT
BRANCH   1  16
ATOM      3  C   UNL     1      -2.510  11.360   2.270  0.00  0.00    +0.008 C 
ATOM      4  C   UNL     1      -2.134   9.957   1.789  0.00  0.00    -0.009 C 
ATOM      5  C   UNL     1      -0.742   9.590   2.310  0.00  0.00    +0.008 C 
ATOM      6  C   UNL     1      -0.256   8.306   1.638  0.00  0.00    +0.037 C 
ATOM      7  C   UNL     1      -1.326   7.229   1.803  0.00  0.00    -0.023 A 
ATOM      8  C   UNL     1      -2.597   7.562   2.113  0.00  0.00    -0.004 A 
ATOM      9  S   UNL     1      -3.467   6.020   2.201  0.00  0.00    -0.073 S 
ATOM     10  C   UNL     1      -2.118   4.932   1.819  0.00  0.00    +0.116 A 
ATOM     11  C   UNL     1      -1.035   5.806   1.637  0.00  0.00    +0.075 A 
ATOM     12  C   UNL     1       0.215   5.185   1.311  0.00  0.00    +0.260 A 
ATOM     13  O   UNL     1       1.215   5.859   1.135  0.00  0.00    -0.267 OA
ATOM     14  N   UNL     1       0.268   3.844   1.209  0.00  0.00    -0.312 N 
ATOM     15  H   UNL     1       1.112   3.417   0.992  0.00  0.00    +0.170 HD
ATOM     16  C   UNL     1      -0.836   3.077   1.398  0.00  0.00    +0.097 A 
ATOM     17  N   UNL     1      -1.989   3.614   1.696  0.00  0.00    -0.228 NA
ATOM     18  C   UNL     1      -3.147   8.938   2.333  0.00  0.00    +0.046 C 
ENDBRANCH   1  16
BRANCH   1  24
ATOM     19  C   UNL     1      -1.976  -0.469   1.598  0.00  0.00    -0.077 C 
ATOM     20  C   UNL     1      -3.375  -1.034   1.855  0.00  0.00    -0.007 C 
ATOM     21  C   UNL     1      -4.271  -0.735   0.651  0.00  0.00    +0.057 C 
ATOM     22  C   UNL     1      -4.308   0.778   0.416  0.00  0.00    -0.007 C 
ATOM     23  C   UNL     1      -2.883   1.291   0.200  0.00  0.00    -0.077 C 
ATOM     24  N   UNL     1      -2.078   0.993   1.404  0.00  0.00    +0.386 N 
ATOM     25  H   UNL     1      -2.539   1.406   2.223  0.00  0.00    -0.081 HD
BRANCH  21  26
ATOM     26  C   UNL     1      -5.666  -1.236   0.922  0.00  0.00    +0.166 C 
ATOM     27  O   UNL     1      -6.504  -0.484   1.371  0.00  0.00    -0.292 OA
BRANCH  26  28
ATOM     28  C   UNL     1      -6.011  -2.639   0.641  0.00  0.00    +0.018 A 
ATOM     29  C   UNL     1      -5.048  -3.509   0.117  0.00  0.00    +0.011 A 
ATOM     30  C   UNL     1      -5.378  -4.823  -0.138  0.00  0.00    +0.001 A 
ATOM     31  C   UNL     1      -6.660  -5.280   0.113  0.00  0.00    +0.000 A 
ATOM     32  C   UNL     1      -7.619  -4.425   0.626  0.00  0.00    +0.001 A 
ATOM     33  C   UNL     1      -7.304  -3.109   0.891  0.00  0.00    +0.011 A 
ENDBRANCH  26  28
ENDBRANCH  21  26
ENDBRANCH   1  24
TORSDOF 4
