REMARK  Name = ZINC31173732
REMARK  9 active torsions:
REMARK  status: ('A' for Active; 'I' for Inactive)
REMARK    1  A    between atoms: C_1  and  C_2
REMARK    2  A    between atoms: C_2  and  N_3
REMARK    3  A    between atoms: N_3  and  C_4
REMARK    4  A    between atoms: C_4  and  C_5
REMARK    5  A    between atoms: N_7  and  C_8
REMARK    6  A    between atoms: C_16  and  C_18
REMARK    7  A    between atoms: C_18  and  S_19
REMARK    8  A    between atoms: S_19  and  C_20
REMARK    9  A    between atoms: C_20  and  C_21
REMARK                            x       y       z     vdW  Elec       q    Type
REMARK                         _______ _______ _______ _____ _____    ______ ____
ROOT
ATOM      1  N   UNL     1      -1.957   0.586   1.873  0.00  0.00    -0.292 N 
ATOM      2  C   UNL     1      -1.475   0.763   0.627  0.00  0.00    +0.226 C 
ATOM      3  O   UNL     1      -0.445   0.217   0.293  0.00  0.00    -0.275 OA
ENDROOT
BRANCH   1   5
ATOM      4  C   UNL     1      -2.882   2.618   2.872  0.00  0.00    +0.024 C 
ATOM      5  C   UNL     1      -3.202   1.245   2.277  0.00  0.00    +0.105 C 
ENDBRANCH   1   5
BRANCH   1   6
ATOM      6  C   UNL     1      -1.237  -0.265   2.824  0.00  0.00    +0.203 C 
BRANCH   6   7
ATOM      7  C   UNL     1      -1.732  -1.683   2.702  0.00  0.00    +0.235 C 
ATOM      8  O   UNL     1      -2.601  -1.956   1.901  0.00  0.00    -0.274 OA
ATOM      9  N   UNL     1      -1.210  -2.649   3.484  0.00  0.00    -0.280 N 
ATOM     10  H   UNL     1      -0.465  -2.446   4.072  0.00  0.00    +0.155 HD
BRANCH   9  11
ATOM     11  C   UNL     1      -1.742  -3.945   3.448  0.00  0.00    +0.105 A 
ATOM     12  C   UNL     1      -2.792  -4.291   4.290  0.00  0.00    +0.147 A 
ATOM     13  C   UNL     1      -3.314  -5.572   4.250  0.00  0.00    +0.040 A 
ATOM     14  C   UNL     1      -2.793  -6.506   3.375  0.00  0.00    +0.006 A 
ATOM     15  C   UNL     1      -1.748  -6.166   2.536  0.00  0.00    +0.040 A 
ATOM     16  C   UNL     1      -1.224  -4.886   2.565  0.00  0.00    +0.147 A 
ATOM     17  F   UNL     1      -0.207  -4.552   1.741  0.00  0.00    -0.203 F 
ATOM     18  F   UNL     1      -3.302  -3.378   5.145  0.00  0.00    -0.203 F 
ENDBRANCH   9  11
ENDBRANCH   6   7
ENDBRANCH   1   6
BRANCH   2  19
ATOM     19  C   UNL     1      -2.215   1.639  -0.350  0.00  0.00    +0.165 C 
BRANCH  19  20
ATOM     20  S   UNL     1      -1.320   1.675  -1.928  0.00  0.00    -0.144 S 
BRANCH  20  21
ATOM     21  C   UNL     1      -2.328   2.757  -2.979  0.00  0.00    +0.143 C 
BRANCH  21  22
ATOM     22  C   UNL     1      -1.688   2.875  -4.338  0.00  0.00    +0.121 A 
ATOM     23  N   UNL     1      -2.277   3.646  -5.288  0.00  0.00    -0.310 N 
ATOM     24  H   UNL     1      -3.102   4.112  -5.077  0.00  0.00    +0.170 HD
ATOM     25  C   UNL     1      -1.739   3.779  -6.515  0.00  0.00    +0.260 A 
ATOM     26  O   UNL     1      -2.278   4.476  -7.357  0.00  0.00    -0.267 OA
ATOM     27  C   UNL     1      -0.520   3.087  -6.812  0.00  0.00    +0.075 A 
ATOM     28  C   UNL     1       0.239   3.087  -8.072  0.00  0.00    -0.023 A 
ATOM     29  C   UNL     1       1.363   2.350  -8.103  0.00  0.00    -0.004 A 
ATOM     30  S   UNL     1       1.483   1.625  -6.484  0.00  0.00    -0.073 S 
ATOM     31  C   UNL     1       0.014   2.316  -5.771  0.00  0.00    +0.116 A 
ATOM     32  N   UNL     1      -0.573   2.237  -4.579  0.00  0.00    -0.226 NA
ATOM     33  C   UNL     1       2.051   2.421  -9.440  0.00  0.00    +0.043 C 
ATOM     34  C   UNL     1       0.974   2.969 -10.402  0.00  0.00    +0.010 C 
ATOM     35  C   UNL     1       0.064   3.756  -9.438  0.00  0.00    +0.037 C 
ENDBRANCH  21  22
ENDBRANCH  20  21
ENDBRANCH  19  20
ENDBRANCH   2  19
TORSDOF 8
