REMARK  Name = ZINC09293055
REMARK  7 active torsions:
REMARK  status: ('A' for Active; 'I' for Inactive)
REMARK    1  A    between atoms: C_1  and  S_2
REMARK    2  A    between atoms: S_2  and  C_3
REMARK    3  A    between atoms: C_8  and  C_9
REMARK    4  A    between atoms: C_15  and  C_17
REMARK    5  A    between atoms: C_22  and  N_23
REMARK    6  A    between atoms: N_23  and  S_24
REMARK    7  A    between atoms: S_24  and  C_27
REMARK                            x       y       z     vdW  Elec       q    Type
REMARK                         _______ _______ _______ _____ _____    ______ ____
ROOT
ATOM      1  C   UNL     1       2.651   9.084  -0.245  0.00  0.00    +0.059 A 
ATOM      2  C   UNL     1       4.024   8.900  -0.428  0.00  0.00    +0.015 A 
ATOM      3  C   UNL     1       4.861   9.992  -0.498  0.00  0.00    +0.001 A 
ATOM      4  C   UNL     1       4.348  11.275  -0.387  0.00  0.00    +0.002 A 
ATOM      5  C   UNL     1       2.995  11.474  -0.207  0.00  0.00    +0.025 A 
ATOM      6  C   UNL     1       2.134  10.385  -0.140  0.00  0.00    +0.060 A 
ENDROOT
BRANCH   1  13
ATOM      7  C   UNL     1       0.629   3.564  -0.179  0.00  0.00    +0.251 A 
ATOM      8  N   UNL     1      -0.359   4.413  -0.028  0.00  0.00    -0.106 NA
ATOM      9  N   UNL     1       0.104   5.613  -0.040  0.00  0.00    -0.092 NA
ATOM     10  C   UNL     1       1.404   5.579  -0.207  0.00  0.00    +0.315 A 
ATOM     11  O   UNL     1       1.765   4.285  -0.299  0.00  0.00    -0.405 OA
ATOM     12  N   UNL     1       2.250   6.673  -0.278  0.00  0.00    -0.234 N 
ATOM     13  C   UNL     1       1.750   7.920  -0.170  0.00  0.00    +0.253 C 
ATOM     14  O   UNL     1       0.556   8.084  -0.011  0.00  0.00    -0.270 OA
ATOM     15  H   UNL     1       3.203   6.542  -0.405  0.00  0.00    +0.160 HD
BRANCH   7  21
ATOM     16  C   UNL     1      -0.733   1.474  -0.077  0.00  0.00    +0.020 A 
ATOM     17  C   UNL     1      -0.824   0.089  -0.115  0.00  0.00    +0.015 A 
ATOM     18  C   UNL     1       0.314  -0.674  -0.288  0.00  0.00    +0.001 A 
ATOM     19  C   UNL     1       1.551  -0.067  -0.425  0.00  0.00    +0.001 A 
ATOM     20  C   UNL     1       1.660   1.307  -0.391  0.00  0.00    +0.014 A 
ATOM     21  C   UNL     1       0.519   2.092  -0.216  0.00  0.00    +0.052 A 
BRANCH  16  23
ATOM     22  C   UNL     1      -3.520   1.232   0.258  0.00  0.00    +0.090 C 
ATOM     23  S   UNL     1      -2.183   2.451   0.136  0.00  0.00    -0.128 S 
ENDBRANCH  16  23
ENDBRANCH   7  21
ENDBRANCH   1  13
BRANCH   6  24
ATOM     24  N   UNL     1       0.771  10.582   0.036  0.00  0.00    -0.216 N 
ATOM     25  H   UNL     1       0.256   9.959   0.572  0.00  0.00    +0.174 HD
BRANCH  24  26
ATOM     26  S   UNL     1       0.025  11.882  -0.669  0.00  0.00    +0.072 S 
ATOM     27  O   UNL     1      -1.366  11.736  -0.419  0.00  0.00    -0.150 OA
ATOM     28  O   UNL     1       0.753  13.034  -0.269  0.00  0.00    -0.150 OA
BRANCH  26  29
ATOM     29  C   UNL     1       0.243  11.726  -2.410  0.00  0.00    +0.109 A 
ATOM     30  C   UNL     1       1.345  12.295  -3.021  0.00  0.00    +0.031 A 
ATOM     31  C   UNL     1       1.520  12.170  -4.386  0.00  0.00    +0.040 A 
ATOM     32  C   UNL     1       0.586  11.484  -5.144  0.00  0.00    +0.124 A 
ATOM     33  C   UNL     1      -0.520  10.919  -4.531  0.00  0.00    +0.040 A 
ATOM     34  C   UNL     1      -0.690  11.041  -3.165  0.00  0.00    +0.031 A 
ATOM     35  F   UNL     1       0.754  11.365  -6.479  0.00  0.00    -0.205 F 
ENDBRANCH  26  29
ENDBRANCH  24  26
ENDBRANCH   6  24
TORSDOF 6
