REMARK  Name = ZINC12444839
REMARK  6 active torsions:
REMARK  status: ('A' for Active; 'I' for Inactive)
REMARK    1  A    between atoms: N_9  and  S_12
REMARK    2  A    between atoms: S_12  and  C_15
REMARK    3  A    between atoms: C_15  and  C_16
REMARK    4  A    between atoms: C_16  and  N_17
REMARK    5  A    between atoms: C_18  and  C_20
REMARK    6  A    between atoms: C_20  and  C_21
REMARK                            x       y       z     vdW  Elec       q    Type
REMARK                         _______ _______ _______ _____ _____    ______ ____
ROOT
ATOM      1  C   UNL     1      -3.109   5.064  -3.200  0.00  0.00    +0.204 C 
ENDROOT
BRANCH   1   2
ATOM      2  S   UNL     1      -4.167   4.775  -1.756  0.00  0.00    +0.033 S 
ATOM      3  O   UNL     1      -5.332   4.056  -2.138  0.00  0.00    -0.158 OA
ATOM      4  O   UNL     1      -4.270   5.960  -0.979  0.00  0.00    -0.158 OA
BRANCH   2  13
ATOM      5  C   UNL     1       1.220  -0.660  -0.013  0.00  0.00    +0.005 A 
ATOM      6  C   UNL     1       2.382   0.100  -0.020  0.00  0.00    +0.018 A 
ATOM      7  C   UNL     1       2.289   1.477  -0.012  0.00  0.00    +0.084 A 
ATOM      8  C   UNL     1      -0.017   1.387   0.010  0.00  0.00    +0.099 A 
ATOM      9  C   UNL     1       0.002  -0.004   0.002  0.00  0.00    +0.042 A 
ATOM     10  N   UNL     1      -1.233   2.059   0.019  0.00  0.00    -0.314 N 
ATOM     11  C   UNL     1      -2.073   1.644  -1.112  0.00  0.00    +0.123 C 
ATOM     12  C   UNL     1      -3.466   2.267  -0.966  0.00  0.00    +0.128 C 
ATOM     13  N   UNL     1      -3.313   3.721  -0.806  0.00  0.00    -0.178 NA
ATOM     14  C   UNL     1      -2.381   4.214   0.219  0.00  0.00    +0.128 C 
ATOM     15  C   UNL     1      -1.031   3.514   0.026  0.00  0.00    +0.123 C 
ATOM     16  N   UNL     1       1.111   2.155   0.003  0.00  0.00    -0.350 N 
ATOM     17  H   UNL     1       1.072   3.181   0.009  0.00  0.00    +0.166 HD
ENDBRANCH   2  13
ENDBRANCH   1   2
BRANCH   1  18
ATOM     18  C   UNL     1      -3.806   6.034  -4.157  0.00  0.00    +0.128 C 
BRANCH  18  19
ATOM     19  N   UNL     1      -2.951   6.267  -5.324  0.00  0.00    -0.314 N 
ATOM     20  C   UNL     1      -3.362   7.093  -6.306  0.00  0.00    +0.214 C 
ATOM     21  O   UNL     1      -4.440   7.644  -6.223  0.00  0.00    -0.276 OA
ATOM     22  H   UNL     1      -2.089   5.827  -5.390  0.00  0.00    +0.149 HD
BRANCH  20  23
ATOM     23  C   UNL     1      -2.483   7.333  -7.506  0.00  0.00    +0.102 C 
BRANCH  23  24
ATOM     24  C   UNL     1      -3.180   8.304  -8.462  0.00  0.00    -0.020 C 
ATOM     25  C   UNL     1      -4.511   7.703  -8.917  0.00  0.00    +0.011 C 
ATOM     26  C   UNL     1      -5.208   8.673  -9.874  0.00  0.00    -0.010 C 
ATOM     27  C   UNL     1      -4.315   8.917 -11.092  0.00  0.00    +0.007 C 
ATOM     28  C   UNL     1      -2.984   9.517 -10.637  0.00  0.00    -0.010 C 
ATOM     29  C   UNL     1      -2.287   8.547  -9.681  0.00  0.00    +0.011 C 
ATOM     30  C   UNL     1      -3.241  10.844  -9.920  0.00  0.00    +0.007 C 
ATOM     31  C   UNL     1      -4.133  10.601  -8.702  0.00  0.00    -0.010 C 
ATOM     32  C   UNL     1      -5.465  10.000  -9.157  0.00  0.00    +0.007 C 
ATOM     33  C   UNL     1      -3.437   9.630  -7.745  0.00  0.00    +0.011 C 
ENDBRANCH  23  24
ENDBRANCH  20  23
ENDBRANCH  18  19
ENDBRANCH   1  18
TORSDOF 6
