REMARK  Name = ZINC04308991
REMARK  10 active torsions:
REMARK  status: ('A' for Active; 'I' for Inactive)
REMARK    1  A    between atoms: C_1  and  C_2
REMARK    2  A    between atoms: N_11  and  C_15
REMARK    3  A    between atoms: C_15  and  C_16
REMARK    4  A    between atoms: N_18  and  C_19
REMARK    5  A    between atoms: C_19  and  C_21
REMARK    6  A    between atoms: C_19  and  C_22
REMARK    7  A    between atoms: C_25  and  C_28
REMARK    8  A    between atoms: C_28  and  C_29
REMARK    9  A    between atoms: C_29  and  C_30
REMARK   10  A    between atoms: C_29  and  C_31
REMARK                            x       y       z     vdW  Elec       q    Type
REMARK                         _______ _______ _______ _____ _____    ______ ____
ROOT
ATOM      1  C   UNL     1      -1.991   3.615   6.992  0.00  0.00    +0.231 C 
ATOM      2  O   UNL     1      -3.021   3.150   7.434  0.00  0.00    -0.274 OA
ATOM      3  N   UNL     1      -1.743   3.565   5.668  0.00  0.00    -0.307 N 
ATOM      4  H   UNL     1      -0.920   3.937   5.315  0.00  0.00    +0.149 HD
ENDROOT
BRANCH   3   5
ATOM      5  C   UNL     1      -2.716   2.949   4.763  0.00  0.00    +0.100 C 
ATOM      6  C   UNL     1      -3.777   3.981   4.376  0.00  0.00    +0.033 C 
BRANCH   5   7
ATOM      7  C   UNL     1      -2.012   2.463   3.523  0.00  0.00    -0.027 A 
ATOM      8  C   UNL     1      -2.366   1.254   2.955  0.00  0.00    +0.006 A 
ATOM      9  C   UNL     1      -1.719   0.808   1.818  0.00  0.00    +0.004 A 
ATOM     10  C   UNL     1      -0.718   1.572   1.248  0.00  0.00    -0.047 A 
ATOM     11  C   UNL     1      -0.360   2.779   1.819  0.00  0.00    +0.004 A 
ATOM     12  C   UNL     1      -1.010   3.227   2.953  0.00  0.00    +0.006 A 
BRANCH  10  13
ATOM     13  C   UNL     1      -0.013   1.086   0.008  0.00  0.00    +0.038 C 
BRANCH  13  14
ATOM     14  C   UNL     1      -0.753   1.593  -1.232  0.00  0.00    -0.013 C 
ATOM     15  C   UNL     1      -0.666   3.119  -1.289  0.00  0.00    +0.007 C 
ATOM     16  C   UNL     1      -0.111   0.998  -2.487  0.00  0.00    +0.007 C 
ENDBRANCH  13  14
ENDBRANCH  10  13
ENDBRANCH   5   7
ENDBRANCH   3   5
BRANCH   1  17
ATOM     17  C   UNL     1      -0.990   4.249   7.923  0.00  0.00    +0.213 C 
BRANCH  17  27
ATOM     18  C   UNL     1      -0.452   5.800  12.042  0.00  0.00    +0.010 C 
ATOM     19  C   UNL     1      -1.945   5.601  12.309  0.00  0.00    +0.018 C 
ATOM     20  C   UNL     1      -2.666   6.947  12.204  0.00  0.00    +0.006 C 
ATOM     21  C   UNL     1      -4.162   6.743  12.451  0.00  0.00    +0.000 C 
ATOM     22  C   UNL     1      -4.729   5.790  11.397  0.00  0.00    +0.003 C 
ATOM     23  C   UNL     1      -4.016   4.439  11.498  0.00  0.00    +0.035 C 
ATOM     24  C   UNL     1      -2.519   4.633  11.280  0.00  0.00    +0.115 C 
ATOM     25  C   UNL     1      -2.246   5.132   9.880  0.00  0.00    +0.247 C 
ATOM     26  O   UNL     1      -2.628   6.170   9.384  0.00  0.00    -0.273 OA
ATOM     27  N   UNL     1      -1.490   4.178   9.299  0.00  0.00    -0.215 N 
ATOM     28  C   UNL     1      -1.247   3.163  10.136  0.00  0.00    +0.310 C 
ATOM     29  O   UNL     1      -0.585   2.187   9.841  0.00  0.00    -0.252 OA
ATOM     30  N   UNL     1      -1.820   3.343  11.342  0.00  0.00    -0.285 N 
ATOM     31  H   UNL     1      -1.778   2.740  12.100  0.00  0.00    +0.151 HD
ENDBRANCH  17  27
ENDBRANCH   1  17
TORSDOF 6
