REMARK  Name = ZINC59879728
REMARK  8 active torsions:
REMARK  status: ('A' for Active; 'I' for Inactive)
REMARK    1  A    between atoms: C_1  and  C_2
REMARK    2  A    between atoms: C_2  and  C_4
REMARK    3  A    between atoms: C_2  and  S_14
REMARK    4  A    between atoms: N_6  and  N_7
REMARK    5  A    between atoms: C_8  and  C_10
REMARK    6  A    between atoms: S_14  and  C_15
REMARK    7  A    between atoms: N_20  and  N_21
REMARK    8  A    between atoms: C_22  and  C_23
REMARK                            x       y       z     vdW  Elec       q    Type
REMARK                         _______ _______ _______ _____ _____    ______ ____
ROOT
ATOM      1  C   UNL     1      -2.317  -0.159   1.598  0.00  0.00    +0.211 A 
ATOM      2  N   UNL     1      -3.553  -0.392   2.050  0.00  0.00    -0.186 NA
ATOM      3  C   UNL     1      -3.699   0.152   3.240  0.00  0.00    +0.232 A 
ATOM      4  N   UNL     1      -2.536   0.752   3.570  0.00  0.00    -0.245 N 
ATOM      5  N   UNL     1      -1.657   0.533   2.496  0.00  0.00    -0.144 NA
ATOM      6  N   UNL     1      -4.845   0.117   4.015  0.00  0.00    -0.205 N 
ATOM      7  H   UNL     1      -4.856   0.550   4.883  0.00  0.00    +0.177 HD
ATOM      8  H   UNL     1      -2.343   1.235   4.388  0.00  0.00    +0.192 HD
ENDROOT
BRANCH   6   9
ATOM      9  N   UNL     1      -5.988  -0.544   3.547  0.00  0.00    -0.188 NA
ATOM     10  C   UNL     1      -7.047  -0.577   4.264  0.00  0.00    +0.139 C 
BRANCH  10  11
ATOM     11  C   UNL     1      -8.249  -1.271   3.772  0.00  0.00    +0.002 A 
ATOM     12  C   UNL     1      -9.427  -1.420   4.646  0.00  0.00    +0.010 A 
ATOM     13  C   UNL     1     -10.507  -2.039   4.216  0.00  0.00    +0.009 A 
ATOM     14  C   UNL     1     -10.538  -2.588   2.849  0.00  0.00    -0.017 A 
ATOM     15  C   UNL     1     -11.730  -3.285   2.338  0.00  0.00    +0.009 A 
ATOM     16  C   UNL     1     -11.739  -3.769   1.111  0.00  0.00    +0.009 A 
ATOM     17  C   UNL     1     -10.555  -3.614   0.248  0.00  0.00    -0.017 A 
ATOM     18  C   UNL     1     -10.543  -4.145  -1.125  0.00  0.00    +0.008 A 
ATOM     19  C   UNL     1      -9.470  -3.992  -1.875  0.00  0.00    +0.001 A 
ATOM     20  C   UNL     1      -8.284  -3.292  -1.351  0.00  0.00    +0.008 A 
ATOM     21  C   UNL     1      -8.292  -2.816  -0.126  0.00  0.00    -0.017 A 
ATOM     22  C   UNL     1      -9.495  -2.992   0.707  0.00  0.00    -0.002 A 
ATOM     23  C   UNL     1      -9.486  -2.452   2.077  0.00  0.00    -0.002 A 
ATOM     24  C   UNL     1      -8.276  -1.756   2.550  0.00  0.00    -0.008 A 
ATOM     25  C   UNL     1      -7.122  -1.622   1.648  0.00  0.00    +0.010 A 
ATOM     26  C   UNL     1      -7.127  -2.112   0.431  0.00  0.00    +0.009 A 
ENDBRANCH  10  11
ENDBRANCH   6   9
BRANCH   1  27
ATOM     27  S   UNL     1      -1.674  -0.700   0.049  0.00  0.00    -0.072 S 
BRANCH  27  29
ATOM     28  C   UNL     1       0.017   1.450   0.032  0.00  0.00    +0.029 C 
ATOM     29  C   UNL     1       0.030  -0.080   0.040  0.00  0.00    +0.138 C 
BRANCH  29  30
ATOM     30  C   UNL     1       0.741  -0.582  -1.190  0.00  0.00    +0.242 C 
ATOM     31  O   UNL     1       0.105  -0.882  -2.179  0.00  0.00    -0.273 OA
ATOM     32  N   UNL     1       2.084  -0.699  -1.193  0.00  0.00    -0.233 N 
ATOM     33  H   UNL     1       2.593  -0.459  -0.402  0.00  0.00    +0.173 HD
BRANCH  32  34
ATOM     34  N   UNL     1       2.745  -1.166  -2.336  0.00  0.00    -0.234 N 
ATOM     35  C   UNL     1       4.088  -1.282  -2.338  0.00  0.00    +0.232 C 
ATOM     36  O   UNL     1       4.724  -0.983  -1.350  0.00  0.00    -0.274 OA
ATOM     37  H   UNL     1       2.236  -1.405  -3.127  0.00  0.00    +0.173 HD
BRANCH  35  38
ATOM     38  C   UNL     1       4.798  -1.784  -3.569  0.00  0.00    +0.076 C 
ATOM     39  C   UNL     1       5.040  -0.696  -4.628  0.00  0.00    +0.013 C 
ATOM     40  C   UNL     1       6.371  -0.406  -3.913  0.00  0.00    +0.001 C 
ATOM     41  C   UNL     1       6.326  -1.859  -3.410  0.00  0.00    +0.013 C 
ENDBRANCH  35  38
ENDBRANCH  32  34
ENDBRANCH  29  30
ENDBRANCH  27  29
ENDBRANCH   1  27
TORSDOF 7
