REMARK  Name = ZINC40476179
REMARK  9 active torsions:
REMARK  status: ('A' for Active; 'I' for Inactive)
REMARK    1  A    between atoms: C_1  and  C_2
REMARK    2  A    between atoms: C_2  and  N_3
REMARK    3  A    between atoms: N_3  and  C_4
REMARK    4  A    between atoms: C_7  and  C_13
REMARK    5  A    between atoms: C_9  and  N_10
REMARK    6  A    between atoms: N_15  and  C_16
REMARK    7  A    between atoms: C_18  and  S_29
REMARK    8  A    between atoms: C_21  and  N_22
REMARK    9  A    between atoms: S_29  and  N_32
REMARK                            x       y       z     vdW  Elec       q    Type
REMARK                         _______ _______ _______ _____ _____    ______ ____
ROOT
ATOM      1  C   UNL     1       1.047  -8.080  -1.790  0.00  0.00    +0.057 A 
ATOM      2  C   UNL     1       1.784  -8.359  -2.931  0.00  0.00    +0.053 A 
ATOM      3  C   UNL     1       2.040  -9.670  -3.286  0.00  0.00    +0.107 A 
ATOM      4  C   UNL     1       1.562 -10.707  -2.506  0.00  0.00    +0.030 A 
ATOM      5  C   UNL     1       0.826 -10.439  -1.367  0.00  0.00    +0.027 A 
ATOM      6  C   UNL     1       0.570  -9.126  -1.000  0.00  0.00    +0.051 A 
ENDROOT
BRANCH   6   7
ATOM      7  N   UNL     1      -0.170  -8.852   0.155  0.00  0.00    -0.328 N 
ATOM      8  C   UNL     1      -1.609  -8.763   0.052  0.00  0.00    +0.105 C 
ATOM      9  C   UNL     1      -2.018  -7.305  -0.274  0.00  0.00    +0.019 C 
ATOM     10  C   UNL     1      -1.802  -6.440   0.896  0.00  0.00    +0.002 C 
ATOM     11  C   UNL     1      -0.345  -6.334   1.338  0.00  0.00    +0.002 C 
ATOM     12  C   UNL     1      -0.014  -7.491   2.249  0.00  0.00    +0.019 C 
ATOM     13  C   UNL     1       0.551  -8.671   1.430  0.00  0.00    +0.105 C 
ENDBRANCH   6   7
BRANCH   1  16
ATOM     14  C   UNL     1       1.653  -5.778  -1.775  0.00  0.00    +0.248 C 
ATOM     15  O   UNL     1       2.712  -6.064  -2.299  0.00  0.00    -0.270 OA
ATOM     16  N   UNL     1       0.788  -6.752  -1.429  0.00  0.00    -0.280 N 
ATOM     17  H   UNL     1      -0.015  -6.533  -0.929  0.00  0.00    +0.155 HD
BRANCH  14  21
ATOM     18  C   UNL     1       0.679  -1.712  -1.034  0.00  0.00    +0.058 A 
ATOM     19  C   UNL     1      -0.175  -2.721  -0.598  0.00  0.00    +0.026 A 
ATOM     20  C   UNL     1       0.138  -4.040  -0.836  0.00  0.00    +0.015 A 
ATOM     21  C   UNL     1       1.314  -4.365  -1.518  0.00  0.00    +0.039 A 
ATOM     22  C   UNL     1       2.169  -3.350  -1.955  0.00  0.00    +0.047 A 
ATOM     23  C   UNL     1       1.848  -2.033  -1.718  0.00  0.00    +0.148 A 
BRANCH  23  24
ATOM     24  N   UNL     1       2.750  -0.956  -2.185  0.00  0.00    +0.058 N 
ATOM     25  O   UNL     1       3.341  -1.075  -3.233  0.00  0.00    -0.126 OA
ATOM     26  O   UNL     1       2.896   0.042  -1.519  0.00  0.00    -0.126 OA
ENDBRANCH  23  24
BRANCH  18  27
ATOM     27  N   UNL     1       0.360  -0.380  -0.792  0.00  0.00    -0.342 N 
ATOM     28  H   UNL     1       0.985   0.321  -1.036  0.00  0.00    +0.146 HD
BRANCH  27  30
ATOM     29  C   UNL     1      -1.020   1.484  -0.016  0.00  0.00    +0.024 C 
ATOM     30  C   UNL     1      -0.920  -0.035  -0.169  0.00  0.00    +0.098 C 
ENDBRANCH  27  30
ENDBRANCH  18  27
ENDBRANCH  14  21
ENDBRANCH   1  16
BRANCH   3  31
ATOM     31  S   UNL     1       2.976 -10.022  -4.736  0.00  0.00    +0.061 S 
ATOM     32  O   UNL     1       2.613 -11.333  -5.147  0.00  0.00    -0.153 OA
ATOM     33  O   UNL     1       2.844  -8.892  -5.589  0.00  0.00    -0.153 OA
BRANCH  31  34
ATOM     34  N   UNL     1       4.568 -10.091  -4.286  0.00  0.00    -0.172 NA
ATOM     35  C   UNL     1       5.412  -8.885  -4.299  0.00  0.00    +0.137 C 
ATOM     36  C   UNL     1       6.116  -8.774  -2.942  0.00  0.00    +0.177 C 
ATOM     37  O   UNL     1       6.777 -10.008  -2.652  0.00  0.00    -0.377 OA
ATOM     38  C   UNL     1       5.897 -11.128  -2.526  0.00  0.00    +0.177 C 
ATOM     39  C   UNL     1       5.180 -11.358  -3.857  0.00  0.00    +0.137 C 
ENDBRANCH  31  34
ENDBRANCH   3  31
TORSDOF 8
