REMARK  Name = ZINC38597825
REMARK  11 active torsions:
REMARK  status: ('A' for Active; 'I' for Inactive)
REMARK    1  A    between atoms: C_1  and  O_2
REMARK    2  A    between atoms: O_2  and  C_3
REMARK    3  A    between atoms: C_6  and  C_9
REMARK    4  A    between atoms: C_9  and  C_10
REMARK    5  A    between atoms: C_10  and  S_11
REMARK    6  A    between atoms: S_11  and  N_14
REMARK    7  A    between atoms: N_14  and  C_15
REMARK    8  A    between atoms: C_15  and  C_16
REMARK    9  A    between atoms: C_16  and  C_18
REMARK   10  A    between atoms: C_16  and  N_23
REMARK   11  A    between atoms: N_26  and  C_29
REMARK                            x       y       z     vdW  Elec       q    Type
REMARK                         _______ _______ _______ _____ _____    ______ ____
ROOT
ATOM      1  C   UNL     1      -7.415  -5.165  -5.095  0.00  0.00    +0.015 C 
ENDROOT
BRANCH   1   2
ATOM      2  N   UNL     1      -8.818  -5.582  -4.969  0.00  0.00    +0.389 N 
ATOM      3  C   UNL     1      -9.440  -5.609  -6.298  0.00  0.00    -0.059 C 
ATOM      4  C   UNL     1     -10.931  -5.932  -6.157  0.00  0.00    +0.086 C 
ATOM      5  N   UNL     1     -11.067  -7.185  -5.398  0.00  0.00    -0.333 N 
ATOM      6  C   UNL     1     -10.340  -7.306  -4.125  0.00  0.00    +0.086 C 
ATOM      7  C   UNL     1      -8.877  -6.918  -4.362  0.00  0.00    -0.059 C 
ATOM      8  H   UNL     1      -9.311  -4.926  -4.382  0.00  0.00    -0.081 HD
BRANCH   5   9
ATOM      9  C   UNL     1     -11.864  -8.231  -5.873  0.00  0.00    +0.030 A 
ATOM     10  C   UNL     1     -12.077  -9.355  -5.086  0.00  0.00    +0.026 A 
ATOM     11  C   UNL     1     -12.866 -10.387  -5.557  0.00  0.00    +0.040 A 
ATOM     12  C   UNL     1     -13.443 -10.301  -6.813  0.00  0.00    +0.124 A 
ATOM     13  C   UNL     1     -13.231  -9.181  -7.599  0.00  0.00    +0.040 A 
ATOM     14  C   UNL     1     -12.448  -8.144  -7.130  0.00  0.00    +0.026 A 
ATOM     15  F   UNL     1     -14.213 -11.312  -7.272  0.00  0.00    -0.205 F 
ENDBRANCH   5   9
ENDBRANCH   1   2
BRANCH   1  16
ATOM     16  C   UNL     1      -6.698  -6.094  -6.041  0.00  0.00    +0.093 A 
ATOM     17  C   UNL     1      -5.912  -5.720  -7.066  0.00  0.00    +0.043 A 
ATOM     18  C   UNL     1      -5.449  -6.906  -7.681  0.00  0.00    +0.041 A 
ATOM     19  C   UNL     1      -5.979  -7.934  -6.995  0.00  0.00    +0.195 A 
ATOM     20  O   UNL     1      -6.730  -7.436  -5.999  0.00  0.00    -0.469 OA
ENDBRANCH   1  16
BRANCH   1  21
ATOM     21  C   UNL     1      -6.742  -5.216  -3.722  0.00  0.00    +0.098 C 
BRANCH  21  22
ATOM     22  N   UNL     1      -7.483  -4.370  -2.783  0.00  0.00    -0.196 NA
ATOM     23  H   UNL     1      -8.141  -3.739  -3.115  0.00  0.00    +0.148 HD
BRANCH  22  24
ATOM     24  S   UNL     1      -7.197  -4.491  -1.157  0.00  0.00    +0.030 S 
ATOM     25  O   UNL     1      -7.302  -5.879  -0.872  0.00  0.00    -0.158 OA
ATOM     26  O   UNL     1      -8.091  -3.560  -0.562  0.00  0.00    -0.158 OA
BRANCH  24  27
ATOM     27  C   UNL     1      -5.484  -3.936  -0.942  0.00  0.00    +0.189 C 
BRANCH  27  28
ATOM     28  C   UNL     1      -5.107  -4.006   0.539  0.00  0.00    +0.059 C 
BRANCH  28  32
ATOM     29  C   UNL     1      -1.070  -2.700   1.046  0.00  0.00    +0.120 A 
ATOM     30  C   UNL     1      -2.110  -1.784   1.115  0.00  0.00    +0.046 A 
ATOM     31  C   UNL     1      -3.414  -2.209   0.951  0.00  0.00    +0.007 A 
ATOM     32  C   UNL     1      -3.683  -3.546   0.718  0.00  0.00    -0.046 A 
ATOM     33  C   UNL     1      -2.648  -4.460   0.649  0.00  0.00    +0.007 A 
ATOM     34  C   UNL     1      -1.342  -4.039   0.807  0.00  0.00    +0.046 A 
BRANCH  29  36
ATOM     35  C   UNL     1       0.419  -0.891   1.450  0.00  0.00    +0.277 C 
ATOM     36  O   UNL     1       0.214  -2.284   1.207  0.00  0.00    -0.495 OA
ENDBRANCH  29  36
ENDBRANCH  28  32
ENDBRANCH  27  28
ENDBRANCH  24  27
ENDBRANCH  22  24
ENDBRANCH  21  22
ENDBRANCH   1  21
TORSDOF 10
