REMARK  Name = ZINC33257705
REMARK  4 active torsions:
REMARK  status: ('A' for Active; 'I' for Inactive)
REMARK    1  A    between atoms: C_3  and  C_13
REMARK    2  A    between atoms: C_5  and  C_7
REMARK    3  A    between atoms: N_9  and  C_10
REMARK    4  A    between atoms: C_15  and  C_18
REMARK                            x       y       z     vdW  Elec       q    Type
REMARK                         _______ _______ _______ _____ _____    ______ ____
ROOT
ATOM      1  C   UNL     1      -1.218   1.749   0.017  0.00  0.00    +0.001 A 
ATOM      2  C   UNL     1      -1.244   3.130   0.030  0.00  0.00    +0.012 A 
ATOM      3  C   UNL     1      -0.052   3.854   0.022  0.00  0.00    +0.023 A 
ATOM      4  C   UNL     1       1.166   3.183   0.008  0.00  0.00    +0.024 A 
ATOM      5  C   UNL     1       1.188   1.790   0.000  0.00  0.00    +0.037 A 
ATOM      6  C   UNL     1      -0.013   1.076   0.008  0.00  0.00    +0.013 A 
ENDROOT
BRANCH   3   7
ATOM      7  C   UNL     1      -0.084   5.338   0.030  0.00  0.00    +0.202 A 
ATOM      8  N   UNL     1      -1.189   6.117   0.044  0.00  0.00    -0.191 NA
ATOM      9  C   UNL     1      -0.749   7.351   0.046  0.00  0.00    +0.231 A 
ATOM     10  O   UNL     1       0.586   7.293   0.033  0.00  0.00    -0.337 OA
ATOM     11  N   UNL     1       0.951   6.136   0.029  0.00  0.00    -0.056 NA
BRANCH   9  12
ATOM     12  C   UNL     1      -1.591   8.601   0.060  0.00  0.00    +0.078 C 
ATOM     13  C   UNL     1      -1.015   9.740  -0.798  0.00  0.00    +0.013 C 
ATOM     14  C   UNL     1      -1.448  10.698   0.325  0.00  0.00    +0.001 C 
ATOM     15  C   UNL     1      -1.339   9.499   1.282  0.00  0.00    +0.013 C 
ENDBRANCH   9  12
ENDBRANCH   3   7
BRANCH   5  16
ATOM     16  C   UNL     1       2.479   1.069  -0.016  0.00  0.00    +0.244 C 
ATOM     17  O   UNL     1       3.523   1.691  -0.022  0.00  0.00    -0.270 OA
ATOM     18  N   UNL     1       2.498  -0.279  -0.023  0.00  0.00    -0.308 N 
ATOM     19  H   UNL     1       1.553  -0.843  -0.017  0.00  0.00    +0.149 HD
BRANCH  18  20
ATOM     20  C   UNL     1       3.777  -0.993  -0.039  0.00  0.00    +0.073 C 
ATOM     21  C   UNL     1       3.906  -2.191  -0.983  0.00  0.00    +0.024 C 
ATOM     22  C   UNL     1       3.799  -2.415   0.526  0.00  0.00    +0.024 C 
ENDBRANCH  18  20
ENDBRANCH   5  16
TORSDOF 4
