REMARK  Name = ZINC21048283
REMARK  9 active torsions:
REMARK  status: ('A' for Active; 'I' for Inactive)
REMARK    1  A    between atoms: C_1  and  C_2
REMARK    2  A    between atoms: C_2  and  C_3
REMARK    3  A    between atoms: C_8  and  N_9
REMARK    4  A    between atoms: C_16  and  C_31
REMARK    5  A    between atoms: C_17  and  C_30
REMARK    6  A    between atoms: C_20  and  C_22
REMARK    7  A    between atoms: C_25  and  O_28
REMARK    8  A    between atoms: O_28  and  C_29
REMARK    9  A    between atoms: C_31  and  C_32
REMARK                            x       y       z     vdW  Elec       q    Type
REMARK                         _______ _______ _______ _____ _____    ______ ____
ROOT
ATOM      1  N   UNL     1      -0.023  -0.111  -0.199  0.00  0.00    -0.269 N 
ATOM      2  C   UNL     1       0.150   1.180  -0.547  0.00  0.00    +0.307 C 
ATOM      3  O   UNL     1      -0.793   1.832  -0.952  0.00  0.00    -0.252 OA
ATOM      4  N   UNL     1       1.367   1.748  -0.442  0.00  0.00    -0.273 N 
ATOM      5  C   UNL     1       1.617   3.114  -0.926  0.00  0.00    +0.115 C 
ATOM      6  C   UNL     1       1.972   4.023   0.251  0.00  0.00    +0.055 C 
ATOM      7  C   UNL     1       3.037   3.344   1.107  0.00  0.00    -0.030 A 
ATOM      8  C   UNL     1       3.856   4.042   1.996  0.00  0.00    -0.034 A 
ATOM      9  C   UNL     1       4.779   3.380   2.730  0.00  0.00    -0.010 A 
ATOM     10  S   UNL     1       4.538   1.694   2.191  0.00  0.00    -0.096 S 
ATOM     11  C   UNL     1       3.232   2.000   1.034  0.00  0.00    +0.018 A 
ATOM     12  C   UNL     1       2.501   1.026   0.170  0.00  0.00    +0.145 C 
ATOM     13  C   UNL     1       5.757   3.924   3.740  0.00  0.00    +0.052 C 
ATOM     14  H   UNL     1       0.805  -0.674   0.256  0.00  0.00    +0.156 HD
ENDROOT
BRANCH   1  20
ATOM     15  C   UNL     1      -1.313  -2.099  -0.665  0.00  0.00    -0.026 A 
ATOM     16  C   UNL     1      -2.533  -2.712  -0.878  0.00  0.00    +0.005 A 
ATOM     17  C   UNL     1      -3.697  -1.967  -0.842  0.00  0.00    +0.000 A 
ATOM     18  C   UNL     1      -3.645  -0.608  -0.593  0.00  0.00    +0.002 A 
ATOM     19  C   UNL     1      -2.429   0.010  -0.375  0.00  0.00    +0.023 A 
ATOM     20  C   UNL     1      -1.257  -0.734  -0.415  0.00  0.00    +0.038 A 
BRANCH  15  22
ATOM     21  C   UNL     1       0.334  -3.335   0.716  0.00  0.00    +0.009 C 
ATOM     22  C   UNL     1      -0.044  -2.911  -0.705  0.00  0.00    +0.033 C 
ENDBRANCH  15  22
ENDBRANCH   1  20
BRANCH  12  23
ATOM     23  C   UNL     1       3.421   0.509  -0.905  0.00  0.00    -0.022 A 
ATOM     24  C   UNL     1       3.658  -0.849  -1.016  0.00  0.00    +0.009 A 
ATOM     25  C   UNL     1       4.497  -1.327  -2.005  0.00  0.00    +0.046 A 
ATOM     26  C   UNL     1       5.110  -0.442  -2.879  0.00  0.00    +0.120 A 
ATOM     27  C   UNL     1       4.876   0.920  -2.762  0.00  0.00    +0.046 A 
ATOM     28  C   UNL     1       4.032   1.393  -1.776  0.00  0.00    +0.009 A 
BRANCH  26  29
ATOM     29  O   UNL     1       5.941  -0.909  -3.848  0.00  0.00    -0.495 OA
ATOM     30  C   UNL     1       6.136  -2.323  -3.909  0.00  0.00    +0.277 C 
ENDBRANCH  26  29
ENDBRANCH  12  23
BRANCH   8  31
ATOM     31  C   UNL     1       3.711   5.535   2.138  0.00  0.00    +0.033 C 
ATOM     32  C   UNL     1       2.690   5.847   3.234  0.00  0.00    +0.009 C 
ENDBRANCH   8  31
TORSDOF 5
