REMARK  Name = ZINC02469298
REMARK  4 active torsions:
REMARK  status: ('A' for Active; 'I' for Inactive)
REMARK    1  A    between atoms: C_1  and  N_2
REMARK    2  A    between atoms: C_3  and  C_26
REMARK    3  A    between atoms: C_5  and  C_15
REMARK    4  A    between atoms: N_17  and  C_18
REMARK                            x       y       z     vdW  Elec       q    Type
REMARK                         _______ _______ _______ _____ _____    ______ ____
ROOT
ATOM      1  C   UNL     1      -0.039   1.460   0.003  0.00  0.00    +0.133 C 
ATOM      2  N   UNL     1      -0.021  -0.005  -0.005  0.00  0.00    -0.292 N 
ATOM      3  C   UNL     1      -1.284  -0.739   0.006  0.00  0.00    +0.124 C 
ATOM      4  C   UNL     1      -1.198  -1.961   0.917  0.00  0.00    +0.131 C 
ATOM      5  C   UNL     1       0.027  -2.771   0.583  0.00  0.00    -0.021 A 
ATOM      6  C   UNL     1       0.018  -4.144   0.708  0.00  0.00    +0.005 A 
ATOM      7  C   UNL     1       1.157  -4.873   0.409  0.00  0.00    +0.000 A 
ATOM      8  C   UNL     1       2.308  -4.232  -0.013  0.00  0.00    +0.001 A 
ATOM      9  C   UNL     1       2.328  -2.858  -0.147  0.00  0.00    +0.013 A 
ATOM     10  C   UNL     1       1.182  -2.121   0.144  0.00  0.00    +0.041 A 
ATOM     11  C   UNL     1       1.159  -0.653  -0.029  0.00  0.00    +0.247 C 
ATOM     12  O   UNL     1       2.195  -0.036  -0.189  0.00  0.00    -0.270 OA
ENDROOT
BRANCH   3  13
ATOM     13  C   UNL     1      -1.607  -1.190  -1.395  0.00  0.00    -0.001 A 
ATOM     14  C   UNL     1      -0.729  -1.405  -2.388  0.00  0.00    +0.089 A 
ATOM     15  N   UNL     1      -1.390  -1.806  -3.517  0.00  0.00    -0.360 N 
ATOM     16  H   UNL     1      -0.968  -2.019  -4.363  0.00  0.00    +0.165 HD
ATOM     17  C   UNL     1      -2.744  -1.861  -3.272  0.00  0.00    +0.047 A 
ATOM     18  C   UNL     1      -2.939  -1.484  -1.931  0.00  0.00    +0.005 A 
ATOM     19  C   UNL     1      -4.228  -1.453  -1.396  0.00  0.00    +0.010 A 
ATOM     20  C   UNL     1      -5.295  -1.793  -2.179  0.00  0.00    +0.001 A 
ATOM     21  C   UNL     1      -5.108  -2.170  -3.501  0.00  0.00    +0.002 A 
ATOM     22  C   UNL     1      -3.845  -2.198  -4.052  0.00  0.00    +0.026 A 
ENDBRANCH   3  13
BRANCH   4  23
ATOM     23  C   UNL     1      -1.117  -1.509   2.353  0.00  0.00    +0.227 C 
ATOM     24  O   UNL     1      -1.129  -0.326   2.617  0.00  0.00    -0.275 OA
ATOM     25  N   UNL     1      -1.033  -2.420   3.342  0.00  0.00    -0.284 N 
ATOM     26  H   UNL     1      -1.090  -3.367   3.136  0.00  0.00    +0.155 HD
BRANCH  25  27
ATOM     27  C   UNL     1      -0.864  -2.001   4.668  0.00  0.00    +0.052 A 
ATOM     28  C   UNL     1      -1.462  -0.827   5.107  0.00  0.00    +0.027 A 
ATOM     29  C   UNL     1      -1.294  -0.415   6.415  0.00  0.00    +0.040 A 
ATOM     30  C   UNL     1      -0.530  -1.171   7.288  0.00  0.00    +0.125 A 
ATOM     31  C   UNL     1       0.067  -2.342   6.853  0.00  0.00    +0.060 A 
ATOM     32  C   UNL     1      -0.104  -2.762   5.547  0.00  0.00    +0.065 A 
ATOM     33 CL   UNL     1       0.639  -4.234   5.003  0.00  0.00    -0.082 Cl
ATOM     34  F   UNL     1      -0.368  -0.766   8.567  0.00  0.00    -0.205 F 
ENDBRANCH  25  27
ENDBRANCH   4  23
TORSDOF 3
