REMARK  Name = ZINC14472924
REMARK  7 active torsions:
REMARK  status: ('A' for Active; 'I' for Inactive)
REMARK    1  A    between atoms: C_1  and  C_2
REMARK    2  A    between atoms: C_2  and  C_3
REMARK    3  A    between atoms: C_2  and  N_4
REMARK    4  A    between atoms: N_4  and  S_5
REMARK    5  A    between atoms: S_5  and  C_8
REMARK    6  A    between atoms: C_21  and  C_24
REMARK    7  A    between atoms: C_26  and  N_31
REMARK                            x       y       z     vdW  Elec       q    Type
REMARK                         _______ _______ _______ _____ _____    ______ ____
ROOT
ATOM      1  C   UNL     1       0.252   3.455   3.840  0.00  0.00    +0.106 A 
ATOM      2  C   UNL     1       0.103   4.591   3.064  0.00  0.00    +0.030 A 
ATOM      3  C   UNL     1      -0.574   5.686   3.561  0.00  0.00    +0.025 A 
ATOM      4  C   UNL     1      -1.104   5.659   4.846  0.00  0.00    +0.031 A 
ATOM      5  C   UNL     1      -0.936   4.513   5.630  0.00  0.00    -0.018 A 
ATOM      6  C   UNL     1      -0.264   3.422   5.122  0.00  0.00    +0.034 A 
ATOM      7  C   UNL     1      -1.492   4.535   7.000  0.00  0.00    +0.049 C 
ATOM      8  C   UNL     1      -1.895   3.291   7.704  0.00  0.00    -0.023 C 
ATOM      9  C   UNL     1      -2.904   3.573   8.519  0.00  0.00    -0.030 C 
ATOM     10  C   UNL     1      -3.280   5.051   8.394  0.00  0.00    +0.033 C 
ATOM     11  C   UNL     1      -2.807   5.370   6.969  0.00  0.00    +0.029 C 
ATOM     12  C   UNL     1      -2.375   6.797   6.685  0.00  0.00    +0.106 C 
ATOM     13  N   UNL     1      -1.803   6.776   5.321  0.00  0.00    -0.336 N 
ATOM     14  H   UNL     1      -1.915   7.548   4.745  0.00  0.00    +0.147 HD
ENDROOT
BRANCH  12  15
ATOM     15  C   UNL     1      -3.564   7.721   6.737  0.00  0.00    -0.007 A 
ATOM     16  C   UNL     1      -4.231   8.056   5.574  0.00  0.00    +0.039 A 
ATOM     17  C   UNL     1      -5.325   8.899   5.622  0.00  0.00    +0.127 A 
ATOM     18  C   UNL     1      -5.746   9.418   6.832  0.00  0.00    +0.034 A 
ATOM     19  C   UNL     1      -5.076   9.089   7.996  0.00  0.00    +0.022 A 
ATOM     20  C   UNL     1      -3.984   8.240   7.949  0.00  0.00    +0.046 A 
ATOM     21 CL   UNL     1      -3.143   7.826   9.409  0.00  0.00    -0.083 Cl
BRANCH  17  22
ATOM     22  N   UNL     1      -6.042   9.252   4.376  0.00  0.00    +0.056 N 
ATOM     23  O   UNL     1      -7.003  10.000   4.418  0.00  0.00    -0.126 OA
ATOM     24  O   UNL     1      -5.671   8.796   3.309  0.00  0.00    -0.126 OA
ENDBRANCH  17  22
ENDBRANCH  12  15
BRANCH   1  25
ATOM     25  S   UNL     1       1.106   2.055   3.196  0.00  0.00    +0.059 S 
ATOM     26  O   UNL     1       1.588   1.324   4.315  0.00  0.00    -0.153 OA
ATOM     27  O   UNL     1       1.966   2.538   2.173  0.00  0.00    -0.153 OA
BRANCH  25  28
ATOM     28  N   UNL     1      -0.020   1.094   2.454  0.00  0.00    -0.187 NA
ATOM     29  H   UNL     1      -0.211   0.210   2.804  0.00  0.00    +0.148 HD
BRANCH  28  31
ATOM     30  C   UNL     1      -0.013   1.086   0.008  0.00  0.00    +0.025 C 
ATOM     31  C   UNL     1      -0.729   1.579   1.267  0.00  0.00    +0.070 C 
ATOM     32  C   UNL     1      -2.164   1.050   1.278  0.00  0.00    +0.025 C 
ENDBRANCH  28  31
ENDBRANCH  25  28
ENDBRANCH   1  25
TORSDOF 5
