REMARK  Name = ZINC40019609
REMARK  18 active torsions:
REMARK  status: ('A' for Active; 'I' for Inactive)
REMARK    1  A    between atoms: C_1  and  C_2
REMARK    2  A    between atoms: C_2  and  C_3
REMARK    3  A    between atoms: C_3  and  C_4
REMARK    4  A    between atoms: C_4  and  N_5
REMARK    5  A    between atoms: N_5  and  C_6
REMARK    6  A    between atoms: N_5  and  C_10
REMARK    7  A    between atoms: C_6  and  C_7
REMARK    8  A    between atoms: C_7  and  C_8
REMARK    9  A    between atoms: C_8  and  C_9
REMARK   10  A    between atoms: C_10  and  C_11
REMARK   11  A    between atoms: C_11  and  C_12
REMARK   12  A    between atoms: C_12  and  N_13
REMARK   13  A    between atoms: C_14  and  C_30
REMARK   14  A    between atoms: C_16  and  C_21
REMARK   15  A    between atoms: C_21  and  C_23
REMARK   16  A    between atoms: C_34  and  O_36
REMARK   17  A    between atoms: O_36  and  C_37
REMARK   18  A    between atoms: C_37  and  C_38
REMARK                            x       y       z     vdW  Elec       q    Type
REMARK                         _______ _______ _______ _____ _____    ______ ____
ROOT
ATOM      1  N   UNL     1       4.045  -6.053  -0.540  0.00  0.00    -0.284 N 
ATOM      2  C   UNL     1       3.544  -6.485  -1.851  0.00  0.00    +0.145 C 
ATOM      3  C   UNL     1       4.760  -6.654  -2.731  0.00  0.00    +0.076 C 
ATOM      4  C   UNL     1       5.838  -6.344  -1.973  0.00  0.00    +0.249 C 
ATOM      5  C   UNL     1       5.385  -5.967  -0.617  0.00  0.00    +0.288 C 
ATOM      6  O   UNL     1       6.116  -5.631   0.294  0.00  0.00    -0.266 OA
ATOM      7  O   UNL     1       7.124  -6.370  -2.391  0.00  0.00    -0.282 OA
ENDROOT
BRANCH   2   8
ATOM      8  C   UNL     1       2.811  -7.795  -1.719  0.00  0.00    -0.019 A 
ATOM      9  C   UNL     1       3.264  -8.755  -0.833  0.00  0.00    +0.006 A 
ATOM     10  C   UNL     1       2.594  -9.958  -0.710  0.00  0.00    +0.004 A 
ATOM     11  C   UNL     1       1.470 -10.204  -1.474  0.00  0.00    +0.045 A 
ATOM     12  C   UNL     1       1.013  -9.243  -2.364  0.00  0.00    +0.121 A 
ATOM     13  C   UNL     1       1.684  -8.034  -2.481  0.00  0.00    +0.051 A 
BRANCH  12  14
ATOM     14  O   UNL     1      -0.093  -9.483  -3.117  0.00  0.00    -0.488 OA
BRANCH  14  15
ATOM     15  C   UNL     1      -0.736 -10.747  -2.940  0.00  0.00    +0.256 C 
BRANCH  15  16
ATOM     16  C   UNL     1      -1.934 -10.833  -3.850  0.00  0.00    +0.006 C 
ATOM     17  C   UNL     1      -2.151 -11.922  -4.546  0.00  0.00    +0.007 C 
ENDBRANCH  15  16
ENDBRANCH  14  15
ENDBRANCH  12  14
ENDBRANCH   2   8
BRANCH   3  18
ATOM     18  C   UNL     1       4.771  -7.075  -4.135  0.00  0.00    +0.195 C 
ATOM     19  O   UNL     1       5.275  -8.138  -4.448  0.00  0.00    -0.287 OA
BRANCH  18  20
ATOM     20  C   UNL     1       4.172  -6.208  -5.171  0.00  0.00    +0.022 A 
ATOM     21  C   UNL     1       3.708  -4.934  -4.835  0.00  0.00    +0.014 A 
ATOM     22  C   UNL     1       3.149  -4.130  -5.805  0.00  0.00    +0.039 A 
ATOM     23  C   UNL     1       3.047  -4.583  -7.112  0.00  0.00    +0.123 A 
ATOM     24  C   UNL     1       3.506  -5.848  -7.450  0.00  0.00    +0.039 A 
ATOM     25  C   UNL     1       4.072  -6.658  -6.490  0.00  0.00    +0.014 A 
ATOM     26  F   UNL     1       2.498  -3.791  -8.058  0.00  0.00    -0.205 F 
ENDBRANCH  18  20
ENDBRANCH   3  18
BRANCH   1  27
ATOM     27  C   UNL     1       3.228  -5.762   0.641  0.00  0.00    +0.107 C 
BRANCH  27  28
ATOM     28  C   UNL     1       2.832  -4.285   0.636  0.00  0.00    +0.000 C 
BRANCH  28  29
ATOM     29  C   UNL     1       1.980  -3.981   1.869  0.00  0.00    -0.077 C 
BRANCH  29  30
ATOM     30  N   UNL     1       1.599  -2.562   1.864  0.00  0.00    +0.380 N 
ATOM     31  H   UNL     1       2.428  -1.991   1.797  0.00  0.00    -0.082 HD
BRANCH  30  32
ATOM     32  C   UNL     1       0.883  -2.242   3.106  0.00  0.00    -0.079 C 
BRANCH  32  33
ATOM     33  C   UNL     1       1.836  -2.384   4.295  0.00  0.00    -0.019 C 
BRANCH  33  34
ATOM     34  C   UNL     1       1.132  -1.919   5.571  0.00  0.00    -0.005 C 
ATOM     35  C   UNL     1       2.084  -2.060   6.760  0.00  0.00    +0.004 C 
ENDBRANCH  33  34
ENDBRANCH  32  33
ENDBRANCH  30  32
BRANCH  30  36
ATOM     36  C   UNL     1       0.727  -2.293   0.713  0.00  0.00    -0.079 C 
BRANCH  36  37
ATOM     37  C   UNL     1       0.445  -0.792   0.625  0.00  0.00    -0.019 C 
BRANCH  37  39
ATOM     38  C   UNL     1      -0.628   1.007  -0.737  0.00  0.00    +0.004 C 
ATOM     39  C   UNL     1      -0.346  -0.495  -0.650  0.00  0.00    -0.005 C 
ENDBRANCH  37  39
ENDBRANCH  36  37
ENDBRANCH  30  36
ENDBRANCH  29  30
ENDBRANCH  28  29
ENDBRANCH  27  28
ENDBRANCH   1  27
TORSDOF 16
