REMARK  Name = ZINC39532318
REMARK  8 active torsions:
REMARK  status: ('A' for Active; 'I' for Inactive)
REMARK    1  A    between atoms: C_1  and  C_2
REMARK    2  A    between atoms: C_2  and  C_3
REMARK    3  A    between atoms: C_6  and  C_9
REMARK    4  A    between atoms: C_9  and  C_11
REMARK    5  A    between atoms: C_9  and  N_20
REMARK    6  A    between atoms: C_11  and  N_12
REMARK    7  A    between atoms: N_12  and  C_13
REMARK    8  A    between atoms: C_18  and  O_19
REMARK                            x       y       z     vdW  Elec       q    Type
REMARK                         _______ _______ _______ _____ _____    ______ ____
ROOT
ATOM      1  C   UNL     1       2.707  -1.868  -4.752  0.00  0.00    +0.104 C 
ENDROOT
BRANCH   1   2
ATOM      2  N   UNL     1       3.940  -1.094  -4.950  0.00  0.00    -0.290 NA
ATOM      3  C   UNL     1       4.883  -1.316  -3.845  0.00  0.00    +0.100 C 
ATOM      4  C   UNL     1       6.182  -0.557  -4.128  0.00  0.00    +0.097 C 
ATOM      5  N   UNL     1       5.886   0.874  -4.285  0.00  0.00    -0.299 NA
ATOM      6  C   UNL     1       4.943   1.095  -5.390  0.00  0.00    +0.161 C 
ATOM      7  C   UNL     1       3.644   0.336  -5.108  0.00  0.00    +0.120 C 
ATOM      8 CL   UNL     1       4.591   2.857  -5.537  0.00  0.00    -0.104 Cl
ATOM      9  H   UNL     1       5.535   1.267  -3.425  0.00  0.00    +0.123 HD
ENDBRANCH   1   2
BRANCH   1  13
ATOM     10  C   UNL     1       0.909  -0.762  -1.038  0.00  0.00    -0.048 A 
ATOM     11  C   UNL     1       0.318  -0.389  -2.231  0.00  0.00    +0.004 A 
ATOM     12  C   UNL     1       0.899  -0.747  -3.433  0.00  0.00    +0.005 A 
ATOM     13  C   UNL     1       2.073  -1.477  -3.442  0.00  0.00    -0.029 A 
ATOM     14  C   UNL     1       2.665  -1.849  -2.250  0.00  0.00    +0.005 A 
ATOM     15  C   UNL     1       2.086  -1.487  -1.048  0.00  0.00    +0.004 A 
BRANCH  10  17
ATOM     16  C   UNL     1       0.818   0.988   0.716  0.00  0.00    +0.009 C 
ATOM     17  C   UNL     1       0.275  -0.371   0.272  0.00  0.00    +0.032 C 
ENDBRANCH  10  17
ENDBRANCH   1  13
BRANCH   1  18
ATOM     18  C   UNL     1       3.039  -3.361  -4.732  0.00  0.00    +0.125 C 
BRANCH  18  19
ATOM     19  N   UNL     1       3.762  -3.717  -5.956  0.00  0.00    -0.339 N 
ATOM     20  H   UNL     1       3.954  -3.037  -6.621  0.00  0.00    +0.146 HD
BRANCH  19  21
ATOM     21  C   UNL     1       4.176  -5.038  -6.166  0.00  0.00    +0.069 A 
ATOM     22  C   UNL     1       3.897  -6.013  -5.219  0.00  0.00    +0.026 A 
ATOM     23  C   UNL     1       4.306  -7.316  -5.428  0.00  0.00    +0.002 A 
ATOM     24  C   UNL     1       4.993  -7.652  -6.580  0.00  0.00    +0.004 A 
ATOM     25  C   UNL     1       5.274  -6.686  -7.529  0.00  0.00    +0.047 A 
ATOM     26  C   UNL     1       4.863  -5.378  -7.329  0.00  0.00    +0.138 A 
BRANCH  26  27
ATOM     27  O   UNL     1       5.135  -4.428  -8.263  0.00  0.00    -0.505 OA
ATOM     28  H   UNL     1       5.980  -3.977  -8.131  0.00  0.00    +0.292 HD
ENDBRANCH  26  27
ENDBRANCH  19  21
ENDBRANCH  18  19
ENDBRANCH   1  18
TORSDOF 7
