REMARK  Name = ZINC20753700
REMARK  4 active torsions:
REMARK  status: ('A' for Active; 'I' for Inactive)
REMARK    1  A    between atoms: C_14  and  C_15
REMARK    2  A    between atoms: C_26  and  O_31
REMARK    3  A    between atoms: O_31  and  C_32
REMARK    4  A    between atoms: C_32  and  C_33
REMARK                            x       y       z     vdW  Elec       q    Type
REMARK                         _______ _______ _______ _____ _____    ______ ____
ROOT
ATOM      1  C   UNL     1       1.813  -6.459  -2.950  0.00  0.00    +0.106 C 
ATOM      2  C   UNL     1       1.618  -5.904  -4.365  0.00  0.00    +0.029 C 
ATOM      3  C   UNL     1       2.819  -6.397  -5.225  0.00  0.00    +0.033 C 
ATOM      4  C   UNL     1       3.917  -5.404  -4.896  0.00  0.00    -0.030 C 
ATOM      5  C   UNL     1       3.405  -4.290  -4.431  0.00  0.00    -0.023 C 
ATOM      6  C   UNL     1       1.899  -4.389  -4.379  0.00  0.00    +0.049 C 
ATOM      7  C   UNL     1       1.346  -3.680  -3.184  0.00  0.00    -0.016 A 
ATOM      8  C   UNL     1       1.304  -2.292  -3.194  0.00  0.00    +0.051 A 
ATOM      9  C   UNL     1       0.803  -1.597  -2.107  0.00  0.00    +0.121 A 
ATOM     10  C   UNL     1       0.327  -2.283  -0.999  0.00  0.00    +0.047 A 
ATOM     11  C   UNL     1       0.362  -3.663  -0.984  0.00  0.00    +0.027 A 
ATOM     12  C   UNL     1       0.871  -4.359  -2.073  0.00  0.00    +0.032 A 
ATOM     13  N   UNL     1       0.902  -5.760  -2.038  0.00  0.00    -0.336 N 
ATOM     14  H   UNL     1       0.265  -6.335  -1.349  0.00  0.00    +0.147 HD
ENDROOT
BRANCH   1  28
ATOM     15  C   UNL     1       6.007  -9.366  -2.579  0.00  0.00    +0.001 A 
ATOM     16  C   UNL     1       4.689  -9.573  -2.985  0.00  0.00    +0.001 A 
ATOM     17  C   UNL     1       3.772  -8.572  -2.972  0.00  0.00    +0.009 A 
ATOM     18  C   UNL     1       4.151  -7.286  -2.532  0.00  0.00    -0.012 A 
ATOM     19  C   UNL     1       5.538  -7.066  -2.111  0.00  0.00    -0.017 A 
ATOM     20  C   UNL     1       6.439  -8.152  -2.150  0.00  0.00    +0.008 A 
ATOM     21  C   UNL     1       5.948  -5.807  -1.676  0.00  0.00    +0.017 A 
ATOM     22  C   UNL     1       5.033  -4.757  -1.650  0.00  0.00    -0.017 A 
ATOM     23  C   UNL     1       5.414  -3.469  -1.216  0.00  0.00    +0.008 A 
ATOM     24  C   UNL     1       4.497  -2.468  -1.204  0.00  0.00    +0.001 A 
ATOM     25  C   UNL     1       3.178  -2.675  -1.610  0.00  0.00    +0.001 A 
ATOM     26  C   UNL     1       2.746  -3.889  -2.038  0.00  0.00    +0.009 A 
ATOM     27  C   UNL     1       3.647  -4.975  -2.077  0.00  0.00    -0.012 A 
ATOM     28  C   UNL     1       3.237  -6.234  -2.512  0.00  0.00    -0.012 A 
ENDBRANCH   1  28
BRANCH   9  29
ATOM     29  O   UNL     1       0.772  -0.237  -2.128  0.00  0.00    -0.489 OA
BRANCH  29  30
ATOM     30  C   UNL     1       0.237   0.417  -0.976  0.00  0.00    +0.260 C 
BRANCH  30  31
ATOM     31  C   UNL     1       0.285   1.933  -1.182  0.00  0.00    +0.156 C 
ATOM     32  C   UNL     1      -0.341   2.661   0.034  0.00  0.00    +0.037 C 
ATOM     33  C   UNL     1       0.363   4.042  -0.056  0.00  0.00    +0.031 C 
ATOM     34  C   UNL     1       1.760   3.664  -0.593  0.00  0.00    +0.160 C 
ATOM     35  O   UNL     1       1.647   2.386  -1.231  0.00  0.00    -0.373 OA
ENDBRANCH  30  31
ENDBRANCH  29  30
ENDBRANCH   9  29
TORSDOF 4
