REMARK  Name = ZINC03033855
REMARK  10 active torsions:
REMARK  status: ('A' for Active; 'I' for Inactive)
REMARK    1  A    between atoms: C_1  and  C_2
REMARK    2  A    between atoms: C_5  and  C_8
REMARK    3  A    between atoms: C_9  and  C_32
REMARK    4  A    between atoms: C_12  and  S_14
REMARK    5  A    between atoms: S_14  and  C_15
REMARK    6  A    between atoms: C_15  and  C_16
REMARK    7  A    between atoms: N_18  and  C_19
REMARK    8  A    between atoms: C_19  and  C_20
REMARK    9  A    between atoms: C_25  and  C_31
REMARK   10  A    between atoms: C_35  and  C_38
REMARK                            x       y       z     vdW  Elec       q    Type
REMARK                         _______ _______ _______ _____ _____    ______ ____
ROOT
ATOM      1  C   UNL     1      11.365   4.685   5.843  0.00  0.00    +0.102 A 
ATOM      2  C   UNL     1      10.598   3.811   6.641  0.00  0.00    +0.119 A 
ATOM      3  N   UNL     1       9.422   3.392   6.187  0.00  0.00    -0.145 NA
ATOM      4  N   UNL     1       8.988   3.782   5.040  0.00  0.00    -0.122 NA
ATOM      5  C   UNL     1       9.696   4.601   4.270  0.00  0.00    +0.210 A 
ATOM      6  N   UNL     1      10.879   5.058   4.662  0.00  0.00    -0.218 NA
ENDROOT
BRANCH   1  11
ATOM      7  C   UNL     1      16.482   6.600   7.658  0.00  0.00    +0.044 C 
ATOM      8  C   UNL     1      15.142   6.098   7.183  0.00  0.00    -0.050 A 
ATOM      9  C   UNL     1      14.939   5.844   5.839  0.00  0.00    +0.004 A 
ATOM     10  C   UNL     1      13.715   5.385   5.398  0.00  0.00    +0.010 A 
ATOM     11  C   UNL     1      12.681   5.177   6.311  0.00  0.00    +0.003 A 
ATOM     12  C   UNL     1      12.891   5.440   7.664  0.00  0.00    +0.010 A 
ATOM     13  C   UNL     1      14.121   5.895   8.094  0.00  0.00    +0.004 A 
ENDBRANCH   1  11
BRANCH   2  14
ATOM     14  C   UNL     1      11.096   3.367   7.963  0.00  0.00    +0.004 A 
ATOM     15  C   UNL     1      12.459   3.145   8.160  0.00  0.00    +0.010 A 
ATOM     16  C   UNL     1      12.917   2.736   9.395  0.00  0.00    +0.004 A 
ATOM     17  C   UNL     1      12.027   2.535  10.435  0.00  0.00    -0.050 A 
ATOM     18  C   UNL     1      10.674   2.749  10.245  0.00  0.00    +0.004 A 
ATOM     19  C   UNL     1      10.204   3.163   9.015  0.00  0.00    +0.010 A 
ATOM     20  C   UNL     1      12.534   2.083  11.780  0.00  0.00    +0.044 C 
ENDBRANCH   2  14
BRANCH   5  21
ATOM     21  S   UNL     1       9.051   5.094   2.706  0.00  0.00    -0.075 S 
BRANCH  21  22
ATOM     22  C   UNL     1       7.480   4.195   2.716  0.00  0.00    +0.173 C 
BRANCH  22  23
ATOM     23  C   UNL     1       6.734   4.474   1.437  0.00  0.00    +0.224 C 
ATOM     24  O   UNL     1       7.216   5.208   0.601  0.00  0.00    -0.275 OA
ATOM     25  N   UNL     1       5.530   3.908   1.222  0.00  0.00    -0.309 N 
ATOM     26  H   UNL     1       5.144   3.321   1.891  0.00  0.00    +0.149 HD
BRANCH  25  27
ATOM     27  C   UNL     1       4.804   4.178  -0.021  0.00  0.00    +0.160 C 
BRANCH  27  28
ATOM     28  C   UNL     1       3.496   3.430  -0.013  0.00  0.00    +0.066 A 
ATOM     29  C   UNL     1       2.303   4.126   0.002  0.00  0.00    +0.095 A 
ATOM     30  C   UNL     1       1.101   3.409   0.010  0.00  0.00    +0.259 A 
ATOM     31  O   UNL     1       0.030   3.995   0.023  0.00  0.00    -0.267 OA
ATOM     32  N   UNL     1       1.145   2.060   0.002  0.00  0.00    -0.265 N 
ATOM     33  C   UNL     1      -0.016   1.348   0.009  0.00  0.00    +0.025 A 
ATOM     34  C   UNL     1       0.002  -0.004   0.002  0.00  0.00    +0.021 A 
ATOM     35  C   UNL     1       1.224  -0.692  -0.013  0.00  0.00    +0.005 A 
ATOM     36  C   UNL     1       2.391   0.011  -0.021  0.00  0.00    +0.047 A 
ATOM     37  C   UNL     1       2.351   1.418  -0.013  0.00  0.00    +0.141 A 
ATOM     38  N   UNL     1       3.491   2.107  -0.020  0.00  0.00    -0.232 NA
ATOM     39  C   UNL     1      -1.336   2.075   0.020  0.00  0.00    +0.064 C 
ENDBRANCH  27  28
ENDBRANCH  25  27
ENDBRANCH  22  23
ENDBRANCH  21  22
ENDBRANCH   5  21
TORSDOF 7
