REMARK  Name = ZINC65298051
REMARK  7 active torsions:
REMARK  status: ('A' for Active; 'I' for Inactive)
REMARK    1  A    between atoms: C_1  and  C_2
REMARK    2  A    between atoms: C_5  and  C_9
REMARK    3  A    between atoms: C_6  and  C_8
REMARK    4  A    between atoms: N_14  and  C_17
REMARK    5  A    between atoms: C_17  and  C_18
REMARK    6  A    between atoms: C_25  and  C_28
REMARK    7  A    between atoms: C_33  and  O_34
REMARK                            x       y       z     vdW  Elec       q    Type
REMARK                         _______ _______ _______ _____ _____    ______ ____
ROOT
ATOM      1  C   UNL     1      -0.135  -4.218  -0.398  0.00  0.00    +0.047 C 
ATOM      2  N   UNL     1      -0.168  -4.974   0.633  0.00  0.00    -0.266 NA
ATOM      3  C   UNL     1      -0.237  -6.431   0.580  0.00  0.00    +0.109 C 
ATOM      4  C   UNL     1      -1.218  -6.937   1.642  0.00  0.00    +0.027 C 
ATOM      5  C   UNL     1      -0.701  -6.551   3.030  0.00  0.00    -0.075 C 
ATOM      6  N   UNL     1       0.616  -7.160   3.252  0.00  0.00    +0.383 N 
ATOM      7  C   UNL     1       1.580  -6.630   2.280  0.00  0.00    -0.075 C 
ATOM      8  C   UNL     1       1.149  -7.019   0.864  0.00  0.00    +0.027 C 
ATOM      9  N   UNL     1      -0.688  -6.875  -0.746  0.00  0.00    -0.286 NA
ATOM     10  C   UNL     1       0.130  -6.246  -1.797  0.00  0.00    +0.095 C 
ATOM     11  C   UNL     1      -0.180  -4.745  -1.805  0.00  0.00    +0.079 C 
ATOM     12  H   UNL     1      -0.660  -7.881  -0.819  0.00  0.00    +0.125 HD
ATOM     13  H   UNL     1       0.546  -8.161   3.143  0.00  0.00    -0.081 HD
ENDROOT
BRANCH   1  18
ATOM     14  C   UNL     1       0.179   1.472   0.390  0.00  0.00    +0.044 C 
ATOM     15  C   UNL     1       0.097  -0.019   0.184  0.00  0.00    -0.050 A 
ATOM     16  C   UNL     1      -1.034  -0.709   0.586  0.00  0.00    +0.004 A 
ATOM     17  C   UNL     1      -1.116  -2.073   0.400  0.00  0.00    +0.010 A 
ATOM     18  C   UNL     1      -0.054  -2.758  -0.196  0.00  0.00    -0.001 A 
ATOM     19  C   UNL     1       1.083  -2.056  -0.599  0.00  0.00    -0.041 A 
ATOM     20  C   UNL     1       1.149  -0.691  -0.412  0.00  0.00    +0.007 A 
ATOM     21  C   UNL     1       2.233  -2.787  -1.242  0.00  0.00    +0.044 C 
ENDBRANCH   1  18
BRANCH  10  22
ATOM     22  C   UNL     1      -0.217  -6.843  -3.137  0.00  0.00    +0.013 A 
ATOM     23  C   UNL     1      -1.462  -7.405  -3.342  0.00  0.00    +0.028 A 
ATOM     24  C   UNL     1      -1.781  -7.953  -4.571  0.00  0.00    +0.042 A 
ATOM     25  C   UNL     1      -0.853  -7.941  -5.598  0.00  0.00    +0.023 A 
ATOM     26  C   UNL     1       0.393  -7.381  -5.397  0.00  0.00    +0.047 A 
ATOM     27  C   UNL     1       0.713  -6.825  -4.166  0.00  0.00    +0.122 A 
ATOM     28 CL   UNL     1      -3.347  -8.658  -4.826  0.00  0.00    -0.084 Cl
BRANCH  27  29
ATOM     29  O   UNL     1       1.937  -6.268  -3.968  0.00  0.00    -0.506 OA
ATOM     30  H   UNL     1       2.603  -6.888  -3.643  0.00  0.00    +0.292 HD
ENDBRANCH  27  29
ENDBRANCH  10  22
BRANCH   6  31
ATOM     31  C   UNL     1       1.074  -6.850   4.612  0.00  0.00    -0.043 C 
BRANCH  31  32
ATOM     32  C   UNL     1       2.368  -7.574   4.884  0.00  0.00    -0.064 A 
ATOM     33  C   UNL     1       2.346  -8.847   5.425  0.00  0.00    +0.002 A 
ATOM     34  C   UNL     1       3.532  -9.511   5.674  0.00  0.00    +0.000 A 
ATOM     35  C   UNL     1       4.740  -8.904   5.383  0.00  0.00    +0.000 A 
ATOM     36  C   UNL     1       4.761  -7.632   4.842  0.00  0.00    +0.000 A 
ATOM     37  C   UNL     1       3.575  -6.969   4.588  0.00  0.00    +0.002 A 
ENDBRANCH  31  32
ENDBRANCH   6  31
TORSDOF 5
