REMARK  Name = ZINC18167883
REMARK  13 active torsions:
REMARK  status: ('A' for Active; 'I' for Inactive)
REMARK    1  A    between atoms: C_1  and  C_2
REMARK    2  A    between atoms: C_2  and  O_3
REMARK    3  A    between atoms: O_3  and  C_4
REMARK    4  A    between atoms: C_4  and  C_5
REMARK    5  A    between atoms: C_5  and  O_6
REMARK    6  A    between atoms: O_6  and  C_7
REMARK    7  A    between atoms: C_7  and  C_9
REMARK    8  A    between atoms: C_10  and  C_36
REMARK    9  A    between atoms: C_14  and  C_16
REMARK   10  A    between atoms: C_19  and  O_23
REMARK   11  A    between atoms: C_20  and  O_22
REMARK   12  A    between atoms: O_23  and  C_24
REMARK   13  A    between atoms: C_28  and  C_31
REMARK                            x       y       z     vdW  Elec       q    Type
REMARK                         _______ _______ _______ _____ _____    ______ ____
ROOT
ATOM      1  C   UNL     1       0.741  -1.587   6.081  0.00  0.00    +0.065 C 
ATOM      2  C   UNL     1       1.116  -2.137   7.249  0.00  0.00    +0.016 C 
ATOM      3  N   UNL     1       0.353  -1.969   8.371  0.00  0.00    -0.321 N 
ATOM      4  C   UNL     1      -0.560  -0.951   8.448  0.00  0.00    +0.016 C 
ATOM      5  C   UNL     1      -1.006  -0.345   7.328  0.00  0.00    +0.024 C 
ATOM      6  C   UNL     1      -0.518  -0.778   5.971  0.00  0.00    +0.092 C 
ATOM      7  C   UNL     1      -1.931   0.712   7.395  0.00  0.00    +0.162 C 
ATOM      8  O   UNL     1      -2.318   1.231   6.367  0.00  0.00    -0.292 OA
ATOM      9  C   UNL     1      -2.450   1.212   8.715  0.00  0.00    +0.088 C 
ATOM     10  C   UNL     1      -1.390   0.963   9.794  0.00  0.00    +0.039 C 
ATOM     11  C   UNL     1      -1.054  -0.530   9.810  0.00  0.00    +0.060 C 
ATOM     12  C   UNL     1       2.386  -2.944   7.322  0.00  0.00    +0.061 C 
ATOM     13  H   UNL     1       0.459  -2.577   9.119  0.00  0.00    +0.152 HD
ENDROOT
BRANCH   6  14
ATOM     14  C   UNL     1      -1.586  -1.613   5.310  0.00  0.00    -0.032 A 
ATOM     15  C   UNL     1      -1.998  -2.795   5.896  0.00  0.00    +0.008 A 
ATOM     16  C   UNL     1      -2.976  -3.564   5.295  0.00  0.00    +0.050 A 
ATOM     17  C   UNL     1      -3.547  -3.150   4.102  0.00  0.00    +0.161 A 
ATOM     18  C   UNL     1      -3.133  -1.960   3.512  0.00  0.00    +0.159 A 
ATOM     19  C   UNL     1      -2.155  -1.191   4.123  0.00  0.00    +0.053 A 
BRANCH  18  20
ATOM     20  O   UNL     1      -3.690  -1.549   2.341  0.00  0.00    -0.503 OA
ATOM     21  H   UNL     1      -4.472  -0.991   2.452  0.00  0.00    +0.292 HD
ENDBRANCH  18  20
BRANCH  17  22
ATOM     22  O   UNL     1      -4.510  -3.905   3.508  0.00  0.00    -0.491 OA
ATOM     23  C   UNL     1      -4.885  -5.115   4.170  0.00  0.00    +0.277 C 
ENDBRANCH  17  22
ENDBRANCH   6  14
BRANCH  10  24
ATOM     24  C   UNL     1      -1.929   1.379  11.139  0.00  0.00    -0.006 A 
ATOM     25  C   UNL     1      -1.456   2.317  11.995  0.00  0.00    +0.011 A 
ATOM     26  C   UNL     1      -2.122   2.532  13.188  0.00  0.00    +0.008 A 
ATOM     27  C   UNL     1      -3.228   1.800  13.465  0.00  0.00    +0.045 A 
ATOM     28  S   UNL     1      -3.362   0.770  12.013  0.00  0.00    -0.101 S 
ENDBRANCH  10  24
BRANCH   1  29
ATOM     29  C   UNL     1       1.551  -1.769   4.937  0.00  0.00    +0.338 C 
ATOM     30  O   UNL     1       2.635  -2.312   5.039  0.00  0.00    -0.245 OA
BRANCH  29  31
ATOM     31  O   UNL     1       1.122  -1.341   3.731  0.00  0.00    -0.459 OA
BRANCH  31  32
ATOM     32  C   UNL     1       1.992  -1.558   2.618  0.00  0.00    +0.260 C 
BRANCH  32  33
ATOM     33  C   UNL     1       1.341  -1.010   1.347  0.00  0.00    +0.201 C 
BRANCH  33  34
ATOM     34  O   UNL     1       1.209   0.409   1.453  0.00  0.00    -0.377 OA
BRANCH  34  36
ATOM     35  C   UNL     1       0.518   2.535   0.534  0.00  0.00    +0.034 C 
ATOM     36  C   UNL     1       0.608   1.024   0.311  0.00  0.00    +0.156 C 
ENDBRANCH  34  36
ENDBRANCH  33  34
ENDBRANCH  32  33
ENDBRANCH  31  32
ENDBRANCH  29  31
ENDBRANCH   1  29
TORSDOF 10
