REMARK  Name = ZINC21872190
REMARK  9 active torsions:
REMARK  status: ('A' for Active; 'I' for Inactive)
REMARK    1  A    between atoms: C_1  and  C_2
REMARK    2  A    between atoms: C_2  and  C_4
REMARK    3  A    between atoms: C_2  and  N_7
REMARK    4  A    between atoms: C_4  and  C_5
REMARK    5  A    between atoms: C_4  and  C_6
REMARK    6  A    between atoms: C_8  and  C_10
REMARK    7  A    between atoms: C_14  and  S_16
REMARK    8  A    between atoms: S_16  and  N_19
REMARK    9  A    between atoms: N_19  and  C_20
REMARK                            x       y       z     vdW  Elec       q    Type
REMARK                         _______ _______ _______ _____ _____    ______ ____
ROOT
ATOM      1  C   UNL     1      -3.415  -1.167   1.191  0.00  0.00    +0.039 A 
ATOM      2  C   UNL     1      -4.046  -1.507  -0.007  0.00  0.00    +0.014 A 
ATOM      3  C   UNL     1      -5.339  -1.984   0.009  0.00  0.00    +0.023 A 
ATOM      4  C   UNL     1      -6.013  -2.126   1.211  0.00  0.00    +0.068 A 
ATOM      5  C   UNL     1      -5.393  -1.790   2.403  0.00  0.00    +0.129 A 
ATOM      6  C   UNL     1      -4.097  -1.317   2.400  0.00  0.00    +0.043 A 
ATOM      7 CL   UNL     1      -7.642  -2.727   1.223  0.00  0.00    -0.082 Cl
ENDROOT
BRANCH   1   9
ATOM      8  N   UNL     1      -1.372  -0.511   0.012  0.00  0.00    -0.309 N 
ATOM      9  C   UNL     1      -2.029  -0.655   1.181  0.00  0.00    +0.244 C 
ATOM     10  O   UNL     1      -1.480  -0.364   2.226  0.00  0.00    -0.270 OA
ATOM     11  H   UNL     1      -1.810  -0.743  -0.822  0.00  0.00    +0.149 HD
BRANCH   8  13
ATOM     12  C   UNL     1      -0.019   1.526   0.010  0.00  0.00    +0.028 C 
ATOM     13  C   UNL     1       0.002  -0.004   0.002  0.00  0.00    +0.073 C 
BRANCH  13  14
ATOM     14  C   UNL     1       0.718  -0.497  -1.257  0.00  0.00    +0.003 C 
ATOM     15  C   UNL     1       2.154   0.032  -1.268  0.00  0.00    +0.009 C 
ATOM     16  C   UNL     1       0.739  -2.027  -1.265  0.00  0.00    +0.009 C 
ENDBRANCH  13  14
ENDBRANCH   8  13
ENDBRANCH   1   9
BRANCH   5  17
ATOM     17  S   UNL     1      -6.258  -1.974   3.927  0.00  0.00    +0.093 S 
ATOM     18  O   UNL     1      -6.819  -3.280   3.920  0.00  0.00    -0.148 OA
ATOM     19  O   UNL     1      -5.378  -1.529   4.950  0.00  0.00    -0.148 OA
BRANCH  17  20
ATOM     20  N   UNL     1      -7.529  -0.913   3.899  0.00  0.00    -0.098 NA
BRANCH  20  21
ATOM     21  C   UNL     1      -8.400  -0.838   4.990  0.00  0.00    +0.074 A 
ATOM     22  C   UNL     1      -8.198  -1.648   6.100  0.00  0.00    +0.029 A 
ATOM     23  C   UNL     1      -9.059  -1.572   7.176  0.00  0.00    +0.040 A 
ATOM     24  C   UNL     1     -10.125  -0.688   7.150  0.00  0.00    +0.124 A 
ATOM     25  C   UNL     1     -10.329   0.122   6.045  0.00  0.00    +0.040 A 
ATOM     26  C   UNL     1      -9.466   0.052   4.969  0.00  0.00    +0.029 A 
ATOM     27  F   UNL     1     -10.966  -0.615   8.204  0.00  0.00    -0.205 F 
ENDBRANCH  20  21
ENDBRANCH  17  20
ENDBRANCH   5  17
TORSDOF 6
