REMARK  Name = ZINC63655351
REMARK  20 active torsions:
REMARK  status: ('A' for Active; 'I' for Inactive)
REMARK    1  A    between atoms: C_1  and  C_2
REMARK    2  A    between atoms: C_4  and  C_14
REMARK    3  A    between atoms: C_7  and  O_12
REMARK    4  A    between atoms: O_12  and  C_13
REMARK    5  A    between atoms: C_14  and  C_15
REMARK    6  A    between atoms: C_15  and  N_16
REMARK    7  A    between atoms: N_16  and  C_17
REMARK    8  A    between atoms: N_16  and  C_30
REMARK    9  A    between atoms: C_17  and  C_18
REMARK   10  A    between atoms: C_20  and  O_28
REMARK   11  A    between atoms: C_21  and  O_26
REMARK   12  A    between atoms: C_22  and  O_24
REMARK   13  A    between atoms: O_24  and  C_25
REMARK   14  A    between atoms: O_26  and  C_27
REMARK   15  A    between atoms: O_28  and  C_29
REMARK   16  A    between atoms: C_30  and  N_32
REMARK   17  A    between atoms: N_32  and  C_33
REMARK   18  A    between atoms: C_33  and  C_34
REMARK   19  A    between atoms: C_34  and  O_35
REMARK   20  A    between atoms: O_35  and  C_36
REMARK                            x       y       z     vdW  Elec       q    Type
REMARK                         _______ _______ _______ _____ _____    ______ ____
ROOT
ATOM      1  N   UNL     1       0.997  -0.729  -4.977  0.00  0.00    -0.308 N 
ENDROOT
BRANCH   1   2
ATOM      2  C   UNL     1       0.174  -1.589  -5.611  0.00  0.00    +0.133 C 
ATOM      3  S   UNL     1      -0.254  -1.316  -7.246  0.00  0.00    -0.019 S 
BRANCH   2   4
ATOM      4  N   UNL     1      -0.311  -2.663  -4.957  0.00  0.00    -0.324 N 
ATOM      5  H   UNL     1      -0.069  -2.817  -4.031  0.00  0.00    +0.148 HD
BRANCH   4   6
ATOM      6  C   UNL     1      -1.206  -3.597  -5.646  0.00  0.00    +0.131 C 
BRANCH   6   7
ATOM      7  C   UNL     1      -1.609  -4.718  -4.686  0.00  0.00    +0.178 C 
BRANCH   7   8
ATOM      8  O   UNL     1      -2.383  -4.173  -3.615  0.00  0.00    -0.381 OA
ATOM      9  C   UNL     1      -2.812  -5.143  -2.657  0.00  0.00    +0.194 C 
ENDBRANCH   7   8
ENDBRANCH   6   7
ENDBRANCH   4   6
ENDBRANCH   2   4
ENDBRANCH   1   2
BRANCH   1  10
ATOM     10  C   UNL     1       1.363  -0.963  -3.578  0.00  0.00    +0.111 C 
BRANCH  10  11
ATOM     11  C   UNL     1       0.352  -0.269  -2.664  0.00  0.00    +0.052 C 
BRANCH  11  14
ATOM     12  C   UNL     1      -0.019   1.526   0.010  0.00  0.00    +0.035 C 
ATOM     13  C   UNL     1       0.002  -0.004   0.002  0.00  0.00    +0.103 C 
ATOM     14  C   UNL     1       0.729  -0.509  -1.224  0.00  0.00    -0.037 C 
ATOM     15  C   UNL     1       1.785  -1.220  -0.768  0.00  0.00    +0.003 A 
ATOM     16  C   UNL     1       2.858  -1.954  -1.447  0.00  0.00    +0.055 A 
ATOM     17  C   UNL     1       3.803  -2.586  -0.711  0.00  0.00    +0.121 A 
ATOM     18  C   UNL     1       3.796  -2.567   0.695  0.00  0.00    +0.047 A 
ATOM     19  C   UNL     1       2.851  -1.919   1.409  0.00  0.00    +0.029 A 
ATOM     20  C   UNL     1       1.779  -1.200   0.713  0.00  0.00    +0.043 A 
ATOM     21  N   UNL     1       0.758  -0.506   1.155  0.00  0.00    -0.378 N 
ATOM     22  H   UNL     1       0.540  -0.349   2.087  0.00  0.00    +0.160 HD
BRANCH  17  23
ATOM     23  O   UNL     1       4.792  -3.263  -1.353  0.00  0.00    -0.495 OA
ATOM     24  C   UNL     1       5.767  -3.915  -0.537  0.00  0.00    +0.277 C 
ENDBRANCH  17  23
ENDBRANCH  11  14
ENDBRANCH  10  11
ENDBRANCH   1  10
BRANCH   1  25
ATOM     25  C   UNL     1       1.525   0.438  -5.688  0.00  0.00    +0.142 C 
BRANCH  25  26
ATOM     26  C   UNL     1       2.828   0.075  -6.353  0.00  0.00    -0.023 A 
ATOM     27  C   UNL     1       4.018   0.234  -5.669  0.00  0.00    +0.054 A 
ATOM     28  C   UNL     1       5.219  -0.099  -6.277  0.00  0.00    +0.165 A 
ATOM     29  C   UNL     1       5.225  -0.593  -7.576  0.00  0.00    +0.204 A 
ATOM     30  C   UNL     1       4.025  -0.752  -8.260  0.00  0.00    +0.165 A 
ATOM     31  C   UNL     1       2.828  -0.422  -7.643  0.00  0.00    +0.054 A 
BRANCH  30  32
ATOM     32  O   UNL     1       4.025  -1.236  -9.531  0.00  0.00    -0.491 OA
ATOM     33  C   UNL     1       2.756  -1.373 -10.173  0.00  0.00    +0.277 C 
ENDBRANCH  30  32
BRANCH  29  34
ATOM     34  O   UNL     1       6.401  -0.920  -8.177  0.00  0.00    -0.488 OA
ATOM     35  C   UNL     1       6.863  -2.263  -8.011  0.00  0.00    +0.277 C 
ENDBRANCH  29  34
BRANCH  28  36
ATOM     36  O   UNL     1       6.390   0.059  -5.604  0.00  0.00    -0.491 OA
ATOM     37  C   UNL     1       6.309   0.573  -4.273  0.00  0.00    +0.277 C 
ENDBRANCH  28  36
ENDBRANCH  25  26
ENDBRANCH   1  25
TORSDOF 14
