REMARK  Name = ZINC13023078
REMARK  10 active torsions:
REMARK  status: ('A' for Active; 'I' for Inactive)
REMARK    1  A    between atoms: C_1  and  C_2
REMARK    2  A    between atoms: C_6  and  C_15
REMARK    3  A    between atoms: C_13  and  C_14
REMARK    4  A    between atoms: C_15  and  C_17
REMARK    5  A    between atoms: C_15  and  N_70
REMARK    6  A    between atoms: N_21  and  C_22
REMARK    7  A    between atoms: C_22  and  C_23
REMARK    8  A    between atoms: N_30  and  C_33
REMARK    9  A    between atoms: C_38  and  O_39
REMARK   10  A    between atoms: O_39  and  C_40
REMARK                            x       y       z     vdW  Elec       q    Type
REMARK                         _______ _______ _______ _____ _____    ______ ____
ROOT
ATOM      1  C   UNL     1      -4.791   3.820  -0.084  0.00  0.00    +0.039 C 
ENDROOT
BRANCH   1   7
ATOM      2  C   UNL     1       2.551   5.051  -0.529  0.00  0.00    +0.044 C 
ATOM      3  C   UNL     1       1.374   4.111  -0.533  0.00  0.00    -0.047 A 
ATOM      4  C   UNL     1       0.110   4.606  -0.377  0.00  0.00    +0.013 A 
ATOM      5  C   UNL     1      -0.982   3.734  -0.381  0.00  0.00    -0.001 A 
ATOM      6  C   UNL     1      -2.349   4.232  -0.216  0.00  0.00    +0.017 A 
ATOM      7  C   UNL     1      -3.371   3.340  -0.245  0.00  0.00    +0.011 A 
ATOM      8  C   UNL     1      -3.109   1.964  -0.413  0.00  0.00    +0.251 A 
ATOM      9  O   UNL     1      -4.041   1.179  -0.426  0.00  0.00    -0.268 OA
ATOM     10  N   UNL     1      -1.857   1.497  -0.560  0.00  0.00    -0.322 N 
ATOM     11  H   UNL     1      -1.712   0.544  -0.674  0.00  0.00    +0.169 HD
ATOM     12  C   UNL     1      -0.775   2.352  -0.551  0.00  0.00    +0.049 A 
ATOM     13  C   UNL     1       0.520   1.869  -0.703  0.00  0.00    +0.030 A 
ATOM     14  C   UNL     1       1.583   2.748  -0.695  0.00  0.00    -0.046 A 
ATOM     15  C   UNL     1       2.985   2.224  -0.866  0.00  0.00    +0.044 C 
ENDBRANCH   1   7
BRANCH   1  21
ATOM     16  C   UNL     1      -5.019   3.784  -2.495  0.00  0.00    -0.058 C 
ATOM     17  C   UNL     1      -5.842   3.207  -3.649  0.00  0.00    +0.086 C 
ATOM     18  N   UNL     1      -7.236   3.657  -3.525  0.00  0.00    -0.331 N 
ATOM     19  C   UNL     1      -7.815   3.221  -2.247  0.00  0.00    +0.086 C 
ATOM     20  C   UNL     1      -6.992   3.798  -1.093  0.00  0.00    -0.058 C 
ATOM     21  N   UNL     1      -5.599   3.320  -1.217  0.00  0.00    +0.391 N 
ATOM     22  H   UNL     1      -5.595   2.294  -1.202  0.00  0.00    -0.080 HD
BRANCH  18  23
ATOM     23  C   UNL     1      -8.005   3.208  -4.604  0.00  0.00    +0.072 A 
ATOM     24  C   UNL     1      -7.484   2.277  -5.491  0.00  0.00    +0.027 A 
ATOM     25  C   UNL     1      -8.247   1.831  -6.553  0.00  0.00    +0.002 A 
ATOM     26  C   UNL     1      -9.527   2.318  -6.741  0.00  0.00    +0.004 A 
ATOM     27  C   UNL     1     -10.052   3.250  -5.864  0.00  0.00    +0.047 A 
ATOM     28  C   UNL     1      -9.295   3.698  -4.795  0.00  0.00    +0.141 A 
BRANCH  28  29
ATOM     29  O   UNL     1      -9.810   4.616  -3.932  0.00  0.00    -0.493 OA
ATOM     30  C   UNL     1     -11.139   5.074  -4.190  0.00  0.00    +0.277 C 
ENDBRANCH  28  29
ENDBRANCH  18  23
ENDBRANCH   1  21
BRANCH   1  31
ATOM     31  C   UNL     1      -5.362   3.277   1.201  0.00  0.00    +0.143 A 
ATOM     32  N   UNL     1      -5.762   2.049   1.422  0.00  0.00    -0.115 NA
ATOM     33  N   UNL     1      -6.181   1.980   2.638  0.00  0.00    -0.023 NA
ATOM     34  N   UNL     1      -6.067   3.134   3.196  0.00  0.00    -0.044 NA
ATOM     35  N   UNL     1      -5.565   3.961   2.342  0.00  0.00    -0.223 N 
BRANCH  35  36
ATOM     36  C   UNL     1      -5.271   5.378   2.571  0.00  0.00    +0.221 C 
BRANCH  36  37
ATOM     37  C   UNL     1      -6.479   6.205   2.212  0.00  0.00    +0.126 A 
ATOM     38  C   UNL     1      -7.478   6.543   3.047  0.00  0.00    +0.046 A 
ATOM     39  C   UNL     1      -8.392   7.319   2.299  0.00  0.00    +0.041 A 
ATOM     40  C   UNL     1      -7.901   7.403   1.049  0.00  0.00    +0.195 A 
ATOM     41  O   UNL     1      -6.742   6.726   1.002  0.00  0.00    -0.466 OA
ENDBRANCH  36  37
ENDBRANCH  35  36
ENDBRANCH   1  31
TORSDOF 7
