REMARK  Name = ZINC19910794
REMARK  5 active torsions:
REMARK  status: ('A' for Active; 'I' for Inactive)
REMARK    1  A    between atoms: C_1  and  C_2
REMARK    2  A    between atoms: C_2  and  C_8
REMARK    3  A    between atoms: N_3  and  N_4
REMARK    4  A    between atoms: C_14  and  C_32
REMARK    5  A    between atoms: C_25  and  C_31
REMARK                            x       y       z     vdW  Elec       q    Type
REMARK                         _______ _______ _______ _____ _____    ______ ____
ROOT
ATOM      1  C   UNL     1      -0.309  -2.638  -0.323  0.00  0.00    +0.041 C 
ATOM      2  C   UNL     1      -0.513  -3.145   1.117  0.00  0.00    +0.010 C 
ATOM      3  C   UNL     1      -1.387  -2.094   1.833  0.00  0.00    +0.005 C 
ATOM      4  C   UNL     1      -1.766  -1.055   0.774  0.00  0.00    -0.001 C 
ATOM      5  C   UNL     1      -1.530  -1.716  -0.593  0.00  0.00    -0.021 C 
ATOM      6  C   UNL     1      -2.702  -2.608  -0.985  0.00  0.00    +0.008 C 
ATOM      7  C   UNL     1      -4.017  -1.848  -0.972  0.00  0.00    +0.005 C 
ATOM      8  C   UNL     1      -4.311  -1.187   0.368  0.00  0.00    -0.001 C 
ATOM      9  C   UNL     1      -3.134  -0.456   0.942  0.00  0.00    -0.004 C 
ATOM     10  C   UNL     1      -3.339   0.056   2.365  0.00  0.00    +0.004 C 
ATOM     11  C   UNL     1      -4.023  -0.975   3.254  0.00  0.00    +0.005 C 
ATOM     12  C   UNL     1      -5.354  -1.381   2.627  0.00  0.00    +0.002 C 
ATOM     13  C   UNL     1      -5.115  -2.088   1.291  0.00  0.00    -0.025 C 
ATOM     14  C   UNL     1      -6.487  -2.332   0.632  0.00  0.00    +0.015 C 
ATOM     15  C   UNL     1      -7.345  -3.256   1.492  0.00  0.00    +0.075 C 
ATOM     16  C   UNL     1      -7.415  -2.723   2.902  0.00  0.00    +0.134 C 
ATOM     17  O   UNL     1      -8.477  -2.656   3.481  0.00  0.00    -0.297 OA
ATOM     18  C   UNL     1      -6.140  -2.277   3.582  0.00  0.00    +0.078 C 
ATOM     19  C   UNL     1      -4.441  -3.437   1.512  0.00  0.00    +0.012 C 
ATOM     20  C   UNL     1      -1.211  -0.679  -1.676  0.00  0.00    +0.012 C 
ENDROOT
BRANCH   1  22
ATOM     21  C   UNL     1       1.296  -0.799   0.596  0.00  0.00    +0.062 C 
ATOM     22  C   UNL     1       0.971  -1.855  -0.430  0.00  0.00    +0.037 C 
ATOM     23  N   UNL     1       1.784  -2.085  -1.391  0.00  0.00    -0.188 NA
BRANCH  23  24
ATOM     24  N   UNL     1       1.427  -2.974  -2.413  0.00  0.00    -0.191 N 
ATOM     25  C   UNL     1       2.243  -3.147  -3.472  0.00  0.00    +0.317 C 
ATOM     26  O   UNL     1       1.935  -3.922  -4.357  0.00  0.00    -0.251 OA
ATOM     27  N   UNL     1       3.403  -2.465  -3.547  0.00  0.00    -0.312 N 
ATOM     28  H   UNL     1       0.480  -3.530  -2.352  0.00  0.00    +0.179 HD
ATOM     29  H   UNL     1       4.069  -2.607  -4.411  0.00  0.00    +0.147 HD
ATOM     30  H   UNL     1       3.684  -1.767  -2.744  0.00  0.00    +0.147 HD
ENDBRANCH  23  24
ENDBRANCH   1  22
TORSDOF 2
