REMARK  Name = ZINC00727975
REMARK  9 active torsions:
REMARK  status: ('A' for Active; 'I' for Inactive)
REMARK    1  A    between atoms: C_1  and  C_2
REMARK    2  A    between atoms: C_2  and  C_3
REMARK    3  A    between atoms: C_3  and  C_5
REMARK    4  A    between atoms: C_3  and  N_6
REMARK    5  A    between atoms: C_7  and  N_8
REMARK    6  A    between atoms: C_9  and  C_23
REMARK    7  A    between atoms: C_15  and  C_22
REMARK    8  A    between atoms: N_25  and  C_26
REMARK    9  A    between atoms: C_26  and  C_27
REMARK                            x       y       z     vdW  Elec       q    Type
REMARK                         _______ _______ _______ _____ _____    ______ ____
ROOT
ATOM      1  N   UNL     1      -0.732   1.595   3.685  0.00  0.00    -0.310 N 
ATOM      2  C   UNL     1      -1.059   2.877   4.072  0.00  0.00    +0.110 A 
ATOM      3  C   UNL     1      -1.829   3.091   5.307  0.00  0.00    +0.075 A 
ATOM      4  C   UNL     1      -2.204   1.992   6.067  0.00  0.00    +0.033 A 
ATOM      5  C   UNL     1      -1.846   0.705   5.640  0.00  0.00    +0.083 A 
ATOM      6  C   UNL     1      -1.110   0.518   4.448  0.00  0.00    +0.150 A 
ATOM      7  N   UNL     1      -0.787  -0.712   4.070  0.00  0.00    -0.211 NA
ATOM      8  C   UNL     1      -1.139  -1.780   4.787  0.00  0.00    +0.145 A 
ATOM      9  C   UNL     1      -0.767  -3.058   4.335  0.00  0.00    -0.007 A 
ATOM     10  C   UNL     1      -1.120  -4.158   5.059  0.00  0.00    +0.008 A 
ATOM     11  C   UNL     1      -1.849  -3.999   6.246  0.00  0.00    +0.019 A 
ATOM     12  C   UNL     1      -2.200  -2.763   6.666  0.00  0.00    +0.096 A 
ATOM     13  N   UNL     1      -1.851  -1.657   5.948  0.00  0.00    -0.267 N 
ATOM     14  C   UNL     1      -2.216  -0.436   6.397  0.00  0.00    +0.268 A 
ATOM     15  O   UNL     1      -2.851  -0.318   7.430  0.00  0.00    -0.267 OA
ATOM     16  C   UNL     1       0.018  -3.212   3.058  0.00  0.00    +0.047 C 
ENDROOT
BRANCH   3  17
ATOM     17  C   UNL     1      -2.192   4.448   5.732  0.00  0.00    +0.247 C 
ATOM     18  O   UNL     1      -1.771   5.411   5.118  0.00  0.00    -0.270 OA
ATOM     19  N   UNL     1      -2.991   4.628   6.802  0.00  0.00    -0.312 N 
ATOM     20  H   UNL     1      -3.371   3.758   7.357  0.00  0.00    +0.149 HD
BRANCH  19  21
ATOM     21  C   UNL     1      -3.353   5.983   7.227  0.00  0.00    +0.101 C 
ATOM     22  C   UNL     1      -4.260   5.907   8.456  0.00  0.00    +0.024 C 
ENDBRANCH  19  21
ENDBRANCH   3  17
BRANCH   2  23
ATOM     23  N   UNL     1      -0.690   3.899   3.341  0.00  0.00    -0.344 N 
ATOM     24  H   UNL     1      -0.952   4.921   3.653  0.00  0.00    +0.144 HD
ATOM     25  H   UNL     1      -0.118   3.736   2.416  0.00  0.00    +0.144 HD
ENDBRANCH   2  23
BRANCH   1  26
ATOM     26  C   UNL     1       0.031   1.381   2.453  0.00  0.00    +0.087 C 
ATOM     27  C   UNL     1       1.377   2.101   2.554  0.00  0.00    +0.031 C 
BRANCH  26  29
ATOM     28  C   UNL     1      -0.019   1.602  -0.036  0.00  0.00    +0.006 C 
ATOM     29  C   UNL     1      -0.755   1.936   1.263  0.00  0.00    +0.021 C 
ENDBRANCH  26  29
ENDBRANCH   1  26
TORSDOF 5
