REMARK  Name = ZINC13495265
REMARK  16 active torsions:
REMARK  status: ('A' for Active; 'I' for Inactive)
REMARK    1  A    between atoms: C_1  and  C_2
REMARK    2  A    between atoms: C_2  and  C_3
REMARK    3  A    between atoms: C_3  and  C_5
REMARK    4  A    between atoms: C_3  and  N_15
REMARK    5  A    between atoms: N_9  and  C_10
REMARK    6  A    between atoms: C_10  and  C_11
REMARK    7  A    between atoms: C_10  and  C_12
REMARK    8  A    between atoms: C_10  and  C_13
REMARK    9  A    between atoms: C_13  and  C_14
REMARK   10  A    between atoms: N_15  and  C_16
REMARK   11  A    between atoms: N_15  and  C_26
REMARK   12  A    between atoms: C_16  and  C_17
REMARK   13  A    between atoms: C_26  and  C_27
REMARK   14  A    between atoms: C_31  and  O_39
REMARK   15  A    between atoms: O_39  and  C_40
REMARK   16  A    between atoms: C_40  and  C_41
REMARK                            x       y       z     vdW  Elec       q    Type
REMARK                         _______ _______ _______ _____ _____    ______ ____
ROOT
ATOM      1  N   UNL     1      -2.519   0.372  -1.100  0.00  0.00    -0.284 NA
ENDROOT
BRANCH   1   2
ATOM      2  C   UNL     1      -1.359   0.102  -0.240  0.00  0.00    +0.127 C 
BRANCH   2   3
ATOM      3  C   UNL     1      -1.374   1.046   0.935  0.00  0.00    +0.169 A 
ATOM      4  N   UNL     1      -2.428   1.445   1.605  0.00  0.00    -0.112 NA
ATOM      5  N   UNL     1      -2.030   2.245   2.533  0.00  0.00    -0.023 NA
ATOM      6  N   UNL     1      -0.749   2.367   2.472  0.00  0.00    -0.043 NA
ATOM      7  N   UNL     1      -0.307   1.639   1.503  0.00  0.00    -0.222 N 
BRANCH   7   8
ATOM      8  C   UNL     1       1.092   1.488   1.096  0.00  0.00    +0.061 C 
ATOM      9  C   UNL     1       1.447   0.002   1.032  0.00  0.00    +0.036 C 
ATOM     10  C   UNL     1       1.292   2.120  -0.283  0.00  0.00    +0.036 C 
BRANCH   8  11
ATOM     11  C   UNL     1       1.997   2.187   2.112  0.00  0.00    +0.026 C 
ATOM     12  C   UNL     1       3.458   2.029   1.687  0.00  0.00    +0.006 C 
ENDBRANCH   8  11
ENDBRANCH   7   8
ENDBRANCH   2   3
BRANCH   2  14
ATOM     13  C   UNL     1      -1.329  -2.301  -0.923  0.00  0.00    +0.006 C 
ATOM     14  C   UNL     1      -1.423  -1.341   0.265  0.00  0.00    +0.023 C 
ENDBRANCH   2  14
ENDBRANCH   1   2
BRANCH   1  15
ATOM     15  C   UNL     1      -3.692  -0.391  -0.655  0.00  0.00    +0.120 C 
BRANCH  15  16
ATOM     16  C   UNL     1      -4.265   0.244   0.585  0.00  0.00    -0.030 A 
ATOM     17  C   UNL     1      -4.223  -0.433   1.790  0.00  0.00    +0.009 A 
ATOM     18  C   UNL     1      -4.746   0.146   2.931  0.00  0.00    +0.050 A 
ATOM     19  C   UNL     1      -5.314   1.408   2.869  0.00  0.00    +0.166 A 
ATOM     20  C   UNL     1      -5.357   2.091   1.656  0.00  0.00    +0.167 A 
ATOM     21  C   UNL     1      -4.825   1.506   0.518  0.00  0.00    +0.054 A 
ATOM     22  O   UNL     1      -5.959   3.299   1.857  0.00  0.00    -0.453 OA
ATOM     23  C   UNL     1      -6.650   3.180   3.114  0.00  0.00    +0.466 C 
ATOM     24  O   UNL     1      -5.890   2.188   3.830  0.00  0.00    -0.453 OA
ENDBRANCH  15  16
ENDBRANCH   1  15
BRANCH   1  25
ATOM     25  C   UNL     1      -2.208   0.088  -2.507  0.00  0.00    +0.126 C 
BRANCH  25  26
ATOM     26  C   UNL     1      -1.302   1.164  -3.049  0.00  0.00    +0.031 A 
ATOM     27  C   UNL     1       0.036   0.956  -3.103  0.00  0.00    +0.020 A 
ATOM     28  C   UNL     1       0.889   2.021  -3.635  0.00  0.00    +0.002 A 
ATOM     29  C   UNL     1       2.277   1.862  -3.716  0.00  0.00    +0.055 A 
ATOM     30  C   UNL     1       3.051   2.886  -4.222  0.00  0.00    +0.121 A 
ATOM     31  C   UNL     1       2.457   4.071  -4.652  0.00  0.00    +0.047 A 
ATOM     32  C   UNL     1       1.092   4.239  -4.577  0.00  0.00    +0.030 A 
ATOM     33  C   UNL     1       0.293   3.219  -4.070  0.00  0.00    +0.049 A 
ATOM     34  N   UNL     1      -1.077   3.368  -3.987  0.00  0.00    -0.322 N 
ATOM     35  H   UNL     1      -1.486   4.194  -4.287  0.00  0.00    +0.169 HD
ATOM     36  C   UNL     1      -1.852   2.382  -3.503  0.00  0.00    +0.254 A 
ATOM     37  O   UNL     1      -3.058   2.546  -3.450  0.00  0.00    -0.268 OA
BRANCH  30  38
ATOM     38  O   UNL     1       4.400   2.738  -4.303  0.00  0.00    -0.492 OA
BRANCH  38  39
ATOM     39  C   UNL     1       5.142   3.836  -4.837  0.00  0.00    +0.225 C 
ATOM     40  C   UNL     1       6.632   3.487  -4.849  0.00  0.00    +0.048 C 
ENDBRANCH  38  39
ENDBRANCH  30  38
ENDBRANCH  25  26
ENDBRANCH   1  25
TORSDOF 11
