REMARK  Name = ZINC63526761
REMARK  11 active torsions:
REMARK  status: ('A' for Active; 'I' for Inactive)
REMARK    1  A    between atoms: C_1  and  C_2
REMARK    2  A    between atoms: C_5  and  S_8
REMARK    3  A    between atoms: S_8  and  N_11
REMARK    4  A    between atoms: C_13  and  C_38
REMARK    5  A    between atoms: C_16  and  C_18
REMARK    6  A    between atoms: C_18  and  C_19
REMARK    7  A    between atoms: C_18  and  C_20
REMARK    8  A    between atoms: C_21  and  C_23
REMARK    9  A    between atoms: C_23  and  S_24
REMARK   10  A    between atoms: S_24  and  C_25
REMARK   11  A    between atoms: C_31  and  N_35
REMARK                            x       y       z     vdW  Elec       q    Type
REMARK                         _______ _______ _______ _____ _____    ______ ____
ROOT
ATOM      1  N   UNL     1       1.109  -4.823   0.130  0.00  0.00    -0.154 NA
ATOM      2  C   UNL     1       1.773  -4.998  -1.173  0.00  0.00    +0.133 C 
ATOM      3  C   UNL     1       3.160  -5.581  -0.838  0.00  0.00    +0.090 C 
ATOM      4  N   UNL     1       3.449  -5.068   0.515  0.00  0.00    -0.279 N 
ATOM      5  C   UNL     1       2.148  -4.862   1.166  0.00  0.00    +0.171 C 
ATOM      6  C   UNL     1       4.664  -4.829   1.047  0.00  0.00    +0.227 C 
ATOM      7  O   UNL     1       4.761  -4.469   2.201  0.00  0.00    -0.275 OA
ATOM      8  C   UNL     1       4.207  -5.083  -1.837  0.00  0.00    +0.029 C 
ENDROOT
BRANCH   1   9
ATOM      9  S   UNL     1      -0.515  -4.612   0.379  0.00  0.00    +0.063 S 
ATOM     10  O   UNL     1      -0.798  -5.135   1.669  0.00  0.00    -0.153 OA
ATOM     11  O   UNL     1      -1.169  -5.078  -0.793  0.00  0.00    -0.153 OA
BRANCH   9  16
ATOM     12  C   UNL     1      -1.522   1.330   0.667  0.00  0.00    +0.044 C 
ATOM     13  C   UNL     1      -1.270  -0.154   0.595  0.00  0.00    -0.050 A 
ATOM     14  C   UNL     1      -1.332  -0.807  -0.621  0.00  0.00    +0.005 A 
ATOM     15  C   UNL     1      -1.101  -2.168  -0.687  0.00  0.00    +0.029 A 
ATOM     16  C   UNL     1      -0.808  -2.876   0.463  0.00  0.00    +0.106 A 
ATOM     17  C   UNL     1      -0.745  -2.223   1.680  0.00  0.00    +0.029 A 
ATOM     18  C   UNL     1      -0.972  -0.861   1.745  0.00  0.00    +0.005 A 
ENDBRANCH   9  16
ENDBRANCH   1   9
BRANCH   5  19
ATOM     19  C   UNL     1       1.870  -6.018   2.130  0.00  0.00    +0.020 C 
ATOM     20  C   UNL     1       1.822  -7.333   1.349  0.00  0.00    +0.010 C 
ATOM     21  C   UNL     1       2.982  -6.087   3.178  0.00  0.00    +0.010 C 
ENDBRANCH   5  19
BRANCH   6  22
ATOM     22  C   UNL     1       5.903  -5.010   0.208  0.00  0.00    +0.168 C 
BRANCH  22  23
ATOM     23  S   UNL     1       7.374  -4.773   1.243  0.00  0.00    -0.106 S 
BRANCH  23  24
ATOM     24  C   UNL     1       8.759  -5.021   0.099  0.00  0.00    +0.236 C 
ATOM     25  N   UNL     1       8.665  -4.074  -1.020  0.00  0.00    -0.355 N 
ATOM     26  C   UNL     1       8.558  -4.772  -2.114  0.00  0.00    +0.061 A 
ATOM     27  C   UNL     1       8.431  -4.397  -3.529  0.00  0.00    +0.029 A 
ATOM     28  C   UNL     1       8.336  -5.362  -4.466  0.00  0.00    +0.035 A 
ATOM     29  C   UNL     1       8.354  -6.731  -4.149  0.00  0.00    +0.128 A 
ATOM     30  C   UNL     1       8.466  -7.183  -2.883  0.00  0.00    +0.060 A 
ATOM     31  C   UNL     1       8.576  -6.222  -1.778  0.00  0.00    +0.063 A 
ATOM     32  N   UNL     1       8.694  -6.365  -0.488  0.00  0.00    -0.355 N 
ATOM     33  H   UNL     1       8.733  -7.205  -0.004  0.00  0.00    +0.162 HD
ATOM     34  H   UNL     1       8.679  -3.106  -0.955  0.00  0.00    +0.162 HD
BRANCH  29  35
ATOM     35  N   UNL     1       8.244  -7.717  -5.247  0.00  0.00    +0.056 N 
ATOM     36  O   UNL     1       8.142  -7.338  -6.391  0.00  0.00    -0.126 OA
ATOM     37  O   UNL     1       8.256  -8.900  -5.002  0.00  0.00    -0.126 OA
ENDBRANCH  29  35
ENDBRANCH  23  24
ENDBRANCH  22  23
ENDBRANCH   6  22
TORSDOF 7
