REMARK  Name = ZINC23858537
REMARK  7 active torsions:
REMARK  status: ('A' for Active; 'I' for Inactive)
REMARK    1  A    between atoms: C_1  and  N_2
REMARK    2  A    between atoms: C_10  and  C_12
REMARK    3  A    between atoms: C_12  and  C_14
REMARK    4  A    between atoms: C_12  and  N_27
REMARK    5  A    between atoms: C_14  and  N_15
REMARK    6  A    between atoms: C_16  and  C_18
REMARK    7  A    between atoms: C_21  and  N_24
REMARK                            x       y       z     vdW  Elec       q    Type
REMARK                         _______ _______ _______ _____ _____    ______ ____
ROOT
ATOM      1  C   UNL     1       3.716   6.336  -0.063  0.00  0.00    -0.020 C 
ENDROOT
BRANCH   1  11
ATOM      2  C   UNL     1       2.492  12.434  -1.182  0.00  0.00    +0.129 C 
ATOM      3  N   UNL     1       3.490  12.005  -0.194  0.00  0.00    -0.333 N 
ATOM      4  C   UNL     1       3.260  12.652   1.099  0.00  0.00    +0.105 C 
ATOM      5  C   UNL     1       4.311  12.148   2.095  0.00  0.00    +0.024 C 
ATOM      6  C   UNL     1       4.026  10.670   2.374  0.00  0.00    +0.038 C 
ATOM      7  C   UNL     1       3.802   9.942   1.073  0.00  0.00    -0.026 A 
ATOM      8  C   UNL     1       3.544  10.615  -0.109  0.00  0.00    +0.033 A 
ATOM      9  C   UNL     1       3.334   9.886  -1.281  0.00  0.00    +0.023 A 
ATOM     10  C   UNL     1       3.389   8.508  -1.265  0.00  0.00    +0.004 A 
ATOM     11  C   UNL     1       3.653   7.841  -0.082  0.00  0.00    -0.059 A 
ATOM     12  C   UNL     1       3.853   8.557   1.082  0.00  0.00    +0.007 A 
ENDBRANCH   1  11
BRANCH   1  13
ATOM     13  N   UNL     1       4.401   5.859  -1.272  0.00  0.00    +0.385 N 
ATOM     14  C   UNL     1       5.785   6.394  -1.346  0.00  0.00    -0.078 C 
ATOM     15  C   UNL     1       6.491   5.418  -2.320  0.00  0.00    -0.020 C 
ATOM     16  C   UNL     1       5.874   4.051  -1.947  0.00  0.00    -0.020 C 
ATOM     17  C   UNL     1       4.539   4.386  -1.257  0.00  0.00    -0.078 C 
ATOM     18  H   UNL     1       3.786   6.198  -2.118  0.00  0.00    -0.081 HD
ENDBRANCH   1  13
BRANCH   1  19
ATOM     19  C   UNL     1       2.297   5.766  -0.023  0.00  0.00    +0.094 C 
BRANCH  19  20
ATOM     20  N   UNL     1       1.659   6.133   1.244  0.00  0.00    -0.313 N 
ATOM     21  C   UNL     1       0.364   5.830   1.460  0.00  0.00    +0.244 C 
ATOM     22  O   UNL     1      -0.275   5.251   0.603  0.00  0.00    -0.270 OA
ATOM     23  H   UNL     1       2.238   6.657   2.020  0.00  0.00    +0.149 HD
BRANCH  21  24
ATOM     24  C   UNL     1      -0.280   6.200   2.738  0.00  0.00    +0.037 A 
ATOM     25  C   UNL     1      -1.621   5.887   2.964  0.00  0.00    +0.015 A 
ATOM     26  C   UNL     1      -2.215   6.236   4.159  0.00  0.00    +0.033 A 
ATOM     27  C   UNL     1      -1.485   6.895   5.132  0.00  0.00    +0.126 A 
ATOM     28  C   UNL     1      -0.155   7.208   4.914  0.00  0.00    +0.033 A 
ATOM     29  C   UNL     1       0.451   6.865   3.724  0.00  0.00    +0.015 A 
BRANCH  27  30
ATOM     30  N   UNL     1      -2.130   7.266   6.412  0.00  0.00    +0.056 N 
ATOM     31  O   UNL     1      -3.300   6.992   6.606  0.00  0.00    -0.126 OA
ATOM     32  O   UNL     1      -1.490   7.846   7.270  0.00  0.00    -0.126 OA
ENDBRANCH  27  30
ENDBRANCH  21  24
ENDBRANCH  19  20
ENDBRANCH   1  19
TORSDOF 6
