REMARK  Name = ZINC02346259
REMARK  4 active torsions:
REMARK  status: ('A' for Active; 'I' for Inactive)
REMARK    1  A    between atoms: C_1  and  C_2
REMARK    2  A    between atoms: C_7  and  C_8
REMARK    3  A    between atoms: N_14  and  N_15
REMARK    4  A    between atoms: C_16  and  C_17
REMARK                            x       y       z     vdW  Elec       q    Type
REMARK                         _______ _______ _______ _____ _____    ______ ____
ROOT
ATOM      1  C   UNL     1      -1.503   8.483   1.329  0.00  0.00    +0.184 A 
ATOM      2  N   UNL     1      -1.438   9.764   1.091  0.00  0.00    -0.152 NA
ATOM      3  N   UNL     1      -1.642   9.961  -0.282  0.00  0.00    -0.253 N 
ATOM      4  H   UNL     1      -1.631  10.979  -0.699  0.00  0.00    +0.191 HD
ATOM      5  C   UNL     1      -1.823   8.748  -0.844  0.00  0.00    +0.197 A 
ATOM      6  S   UNL     1      -2.111   8.436  -2.503  0.00  0.00    -0.010 S 
ATOM      7  N   UNL     1      -1.737   7.826   0.135  0.00  0.00    -0.188 N 
ENDROOT
BRANCH   1  14
ATOM      8  C   UNL     1       0.699   9.247   3.042  0.00  0.00    +0.044 C 
ATOM      9  C   UNL     1      -0.291   8.202   3.487  0.00  0.00    -0.040 A 
ATOM     10  C   UNL     1      -0.156   7.604   4.723  0.00  0.00    +0.004 A 
ATOM     11  C   UNL     1      -1.060   6.640   5.131  0.00  0.00    +0.000 A 
ATOM     12  C   UNL     1      -2.109   6.274   4.306  0.00  0.00    +0.001 A 
ATOM     13  C   UNL     1      -2.258   6.868   3.070  0.00  0.00    +0.012 A 
ATOM     14  C   UNL     1      -1.349   7.841   2.653  0.00  0.00    +0.024 A 
ENDBRANCH   1  14
BRANCH   7  15
ATOM     15  N   UNL     1      -1.868   6.441  -0.027  0.00  0.00    -0.170 NA
ATOM     16  C   UNL     1      -0.821   5.715  -0.279  0.00  0.00    +0.144 C 
BRANCH  16  17
ATOM     17  C   UNL     1      -0.959   4.258  -0.450  0.00  0.00    +0.031 A 
ATOM     18  C   UNL     1       0.166   3.473  -0.720  0.00  0.00    +0.051 A 
ATOM     19  C   UNL     1       0.029   2.108  -0.879  0.00  0.00    +0.021 A 
ATOM     20  C   UNL     1      -1.218   1.517  -0.771  0.00  0.00    +0.003 A 
ATOM     21  C   UNL     1      -2.336   2.288  -0.509  0.00  0.00    +0.021 A 
ATOM     22  C   UNL     1      -2.215   3.653  -0.342  0.00  0.00    +0.051 A 
ATOM     23 CL   UNL     1      -3.619   4.617  -0.006  0.00  0.00    -0.083 Cl
ATOM     24 CL   UNL     1       1.731   4.212  -0.856  0.00  0.00    -0.083 Cl
ENDBRANCH  16  17
ENDBRANCH   7  15
TORSDOF 3
