REMARK  Name = ZINC09304047
REMARK  12 active torsions:
REMARK  status: ('A' for Active; 'I' for Inactive)
REMARK    1  A    between atoms: C_1  and  C_2
REMARK    2  A    between atoms: C_6  and  C_26
REMARK    3  A    between atoms: C_7  and  C_11
REMARK    4  A    between atoms: C_11  and  C_12
REMARK    5  A    between atoms: N_14  and  C_15
REMARK    6  A    between atoms: C_16  and  C_22
REMARK    7  A    between atoms: C_17  and  C_21
REMARK    8  A    between atoms: C_18  and  C_20
REMARK    9  A    between atoms: C_22  and  O_24
REMARK   10  A    between atoms: O_24  and  C_25
REMARK   11  A    between atoms: C_27  and  O_29
REMARK   12  A    between atoms: O_29  and  C_30
REMARK                            x       y       z     vdW  Elec       q    Type
REMARK                         _______ _______ _______ _____ _____    ______ ____
ROOT
ATOM      1  C   UNL     1       1.291   3.841   5.356  0.00  0.00    +0.138 C 
ENDROOT
BRANCH   1   8
ATOM      2  C   UNL     1       2.423  10.738   9.200  0.00  0.00    +0.044 C 
ATOM      3  C   UNL     1       2.454   9.432   8.449  0.00  0.00    -0.043 A 
ATOM      4  C   UNL     1       1.272   8.771   8.181  0.00  0.00    +0.050 A 
ATOM      5  C   UNL     1       1.289   7.568   7.490  0.00  0.00    +0.143 A 
ATOM      6  C   UNL     1       2.517   7.030   7.067  0.00  0.00    +0.062 A 
ATOM      7  C   UNL     1       2.525   5.757   6.344  0.00  0.00    -0.026 A 
ATOM      8  C   UNL     1       1.334   5.150   6.102  0.00  0.00    +0.049 A 
ATOM      9  C   UNL     1       0.139   5.745   6.555  0.00  0.00    +0.341 A 
ATOM     10  O   UNL     1      -0.922   5.188   6.336  0.00  0.00    -0.245 OA
ATOM     11  O   UNL     1       0.140   6.910   7.222  0.00  0.00    -0.422 OA
ATOM     12  C   UNL     1       3.818   5.140   5.876  0.00  0.00    +0.045 C 
ATOM     13  C   UNL     1       3.712   7.711   7.345  0.00  0.00    +0.131 A 
ATOM     14  C   UNL     1       3.668   8.910   8.035  0.00  0.00    +0.049 A 
BRANCH  13  15
ATOM     15  O   UNL     1       4.902   7.199   6.940  0.00  0.00    -0.494 OA
ATOM     16  C   UNL     1       6.075   7.950   7.260  0.00  0.00    +0.277 C 
ENDBRANCH  13  15
ENDBRANCH   1   8
BRANCH   1  17
ATOM     17  C   UNL     1       1.161   4.108   3.879  0.00  0.00    +0.222 C 
ATOM     18  O   UNL     1       1.108   5.249   3.472  0.00  0.00    -0.275 OA
ATOM     19  N   UNL     1       1.103   3.079   3.010  0.00  0.00    -0.279 N 
ATOM     20  H   UNL     1       1.145   2.167   3.336  0.00  0.00    +0.155 HD
BRANCH  19  21
ATOM     21  C   UNL     1       0.983   3.325   1.652  0.00  0.00    +0.086 A 
ATOM     22  C   UNL     1       0.909   2.406   0.610  0.00  0.00    +0.091 A 
ATOM     23  C   UNL     1       0.780   2.945  -0.723  0.00  0.00    -0.025 A 
ATOM     24  C   UNL     1       0.749   4.284  -0.844  0.00  0.00    -0.008 A 
ATOM     25  S   UNL     1       0.893   4.851   0.839  0.00  0.00    -0.078 S 
ATOM     26  C   UNL     1       0.623   5.107  -2.100  0.00  0.00    +0.052 C 
ATOM     27  C   UNL     1       0.685   2.046  -1.928  0.00  0.00    +0.045 C 
BRANCH  22  28
ATOM     28  C   UNL     1       0.953   0.963   0.855  0.00  0.00    +0.342 C 
ATOM     29  O   UNL     1       2.020   0.379   0.861  0.00  0.00    -0.245 OA
BRANCH  28  30
ATOM     30  O   UNL     1      -0.190   0.281   1.072  0.00  0.00    -0.464 OA
ATOM     31  C   UNL     1      -0.071  -1.147   1.307  0.00  0.00    +0.280 C 
ENDBRANCH  28  30
ENDBRANCH  22  28
ENDBRANCH  19  21
ENDBRANCH   1  17
TORSDOF 6
