REMARK  Name = ZINC63731288
REMARK  8 active torsions:
REMARK  status: ('A' for Active; 'I' for Inactive)
REMARK    1  A    between atoms: C_6  and  N_7
REMARK    2  A    between atoms: C_8  and  C_29
REMARK    3  A    between atoms: C_12  and  S_13
REMARK    4  A    between atoms: S_13  and  C_14
REMARK    5  A    between atoms: C_14  and  C_15
REMARK    6  A    between atoms: C_15  and  C_17
REMARK    7  A    between atoms: C_20  and  C_22
REMARK    8  A    between atoms: C_29  and  N_30
REMARK                            x       y       z     vdW  Elec       q    Type
REMARK                         _______ _______ _______ _____ _____    ______ ____
ROOT
ATOM      1  N   UNL     1      -1.125  -0.852   0.191  0.00  0.00    -0.260 N 
ATOM      2  C   UNL     1      -1.431  -2.262  -0.100  0.00  0.00    +0.165 C 
ATOM      3  N   UNL     1      -2.901  -2.292  -0.201  0.00  0.00    -0.248 N 
ATOM      4  N   UNL     1      -3.334  -0.980   0.024  0.00  0.00    -0.162 NA
ATOM      5  C   UNL     1      -2.342  -0.186   0.246  0.00  0.00    +0.180 C 
ATOM      6  H   UNL     1      -3.456  -3.066  -0.387  0.00  0.00    +0.170 HD
ENDROOT
BRANCH   1  12
ATOM      7  C   UNL     1       0.284   1.082   0.521  0.00  0.00    +0.026 A 
ATOM      8  C   UNL     1       1.537   1.631   0.709  0.00  0.00    +0.040 A 
ATOM      9  C   UNL     1       2.652   0.812   0.758  0.00  0.00    +0.124 A 
ATOM     10  C   UNL     1       2.514  -0.559   0.619  0.00  0.00    +0.040 A 
ATOM     11  C   UNL     1       1.263  -1.113   0.431  0.00  0.00    +0.026 A 
ATOM     12  C   UNL     1       0.143  -0.293   0.382  0.00  0.00    +0.038 A 
ATOM     13  F   UNL     1       3.877   1.351   0.942  0.00  0.00    -0.205 F 
ENDBRANCH   1  12
BRANCH   5  14
ATOM     14  S   UNL     1      -2.510   1.536   0.576  0.00  0.00    -0.081 S 
BRANCH  14  15
ATOM     15  C   UNL     1      -4.301   1.821   0.520  0.00  0.00    +0.156 C 
BRANCH  15  16
ATOM     16  C   UNL     1      -4.587   3.276   0.789  0.00  0.00    +0.171 C 
ATOM     17  O   UNL     1      -3.672   4.046   0.999  0.00  0.00    -0.291 OA
BRANCH  16  18
ATOM     18  C   UNL     1      -5.922   3.744   0.798  0.00  0.00    +0.020 C 
ATOM     19  C   UNL     1      -6.352   5.013   1.016  0.00  0.00    +0.118 C 
ATOM     20  N   UNL     1      -7.682   5.110   0.953  0.00  0.00    -0.254 NA
ATOM     21  C   UNL     1      -8.279   3.982   0.700  0.00  0.00    +0.107 C 
ATOM     22  C   UNL     1      -7.187   2.939   0.560  0.00  0.00    +0.101 C 
BRANCH  21  23
ATOM     23  C   UNL     1      -9.735   3.762   0.569  0.00  0.00    +0.261 C 
ATOM     24  O   UNL     1     -10.162   2.650   0.330  0.00  0.00    -0.269 OA
ATOM     25  N   UNL     1     -10.589   4.794   0.715  0.00  0.00    -0.297 N 
ATOM     26  C   UNL     1     -10.210   6.186   0.999  0.00  0.00    +0.108 C 
ATOM     27  C   UNL     1     -11.514   7.004   1.105  0.00  0.00    +0.020 C 
ATOM     28  C   UNL     1     -12.576   5.922   1.437  0.00  0.00    +0.020 C 
ATOM     29  C   UNL     1     -12.058   4.716   0.611  0.00  0.00    +0.108 C 
ENDBRANCH  21  23
ENDBRANCH  16  18
ENDBRANCH  15  16
ENDBRANCH  14  15
ENDBRANCH   5  14
BRANCH   2  30
ATOM     30  C   UNL     1      -0.791  -2.688  -1.423  0.00  0.00    -0.034 C 
BRANCH  30  31
ATOM     31  N   UNL     1      -1.429  -1.966  -2.531  0.00  0.00    +0.382 N 
ATOM     32  C   UNL     1      -1.081  -2.614  -3.801  0.00  0.00    -0.079 C 
ATOM     33  C   UNL     1      -1.808  -1.915  -4.952  0.00  0.00    -0.019 C 
ATOM     34  C   UNL     1      -1.387  -0.443  -4.995  0.00  0.00    -0.004 C 
ATOM     35  C   UNL     1      -1.687   0.204  -3.640  0.00  0.00    -0.019 C 
ATOM     36  C   UNL     1      -0.964  -0.574  -2.538  0.00  0.00    -0.079 C 
ATOM     37  H   UNL     1      -2.431  -1.984  -2.411  0.00  0.00    -0.082 HD
ENDBRANCH  30  31
ENDBRANCH   2  30
TORSDOF 8
