REMARK  Name = ZINC13507510
REMARK  9 active torsions:
REMARK  status: ('A' for Active; 'I' for Inactive)
REMARK    1  A    between atoms: C_1  and  C_2
REMARK    2  A    between atoms: C_5  and  C_7
REMARK    3  A    between atoms: C_7  and  C_9
REMARK    4  A    between atoms: C_7  and  N_18
REMARK    5  A    between atoms: N_11  and  C_12
REMARK    6  A    between atoms: N_18  and  C_19
REMARK    7  A    between atoms: C_26  and  C_28
REMARK    8  A    between atoms: C_28  and  N_29
REMARK    9  A    between atoms: C_30  and  C_32
REMARK                            x       y       z     vdW  Elec       q    Type
REMARK                         _______ _______ _______ _____ _____    ______ ____
ROOT
ATOM      1  N   UNL     1       1.625   3.307  -0.097  0.00  0.00    -0.251 N 
ATOM      2  C   UNL     1       1.394   1.980  -0.039  0.00  0.00    +0.238 C 
ATOM      3  O   UNL     1       2.300   1.218   0.224  0.00  0.00    -0.273 OA
ENDROOT
BRANCH   1   4
ATOM      4  C   UNL     1       0.552   4.206  -0.083  0.00  0.00    +0.038 A 
ATOM      5  C   UNL     1       0.777   5.561  -0.280  0.00  0.00    +0.025 A 
ATOM      6  C   UNL     1      -0.284   6.445  -0.270  0.00  0.00    +0.022 A 
ATOM      7  C   UNL     1      -1.570   5.982  -0.052  0.00  0.00    +0.041 A 
ATOM      8  C   UNL     1      -1.796   4.632   0.150  0.00  0.00    +0.022 A 
ATOM      9  C   UNL     1      -0.739   3.743   0.136  0.00  0.00    +0.025 A 
ATOM     10 CL   UNL     1      -2.901   7.097  -0.034  0.00  0.00    -0.084 Cl
ENDBRANCH   1   4
BRANCH   1  11
ATOM     11  C   UNL     1       2.999   3.808  -0.176  0.00  0.00    +0.233 C 
BRANCH  11  16
ATOM     12  C   UNL     1       2.058   6.976  -3.987  0.00  0.00    +0.086 C 
ATOM     13  C   UNL     1       2.763   5.981  -3.102  0.00  0.00    +0.102 A 
ATOM     14  C   UNL     1       3.989   5.470  -3.313  0.00  0.00    +0.045 A 
ATOM     15  C   UNL     1       4.253   4.582  -2.245  0.00  0.00    +0.047 A 
ATOM     16  C   UNL     1       3.172   4.603  -1.445  0.00  0.00    +0.135 A 
ATOM     17  O   UNL     1       2.270   5.447  -1.972  0.00  0.00    -0.462 OA
ENDBRANCH  11  16
BRANCH  11  18
ATOM     18  C   UNL     1       3.280   4.692   1.012  0.00  0.00    +0.242 C 
ATOM     19  O   UNL     1       2.418   4.884   1.842  0.00  0.00    -0.273 OA
ATOM     20  N   UNL     1       4.490   5.269   1.151  0.00  0.00    -0.311 N 
ATOM     21  H   UNL     1       5.180   5.115   0.486  0.00  0.00    +0.149 HD
BRANCH  20  22
ATOM     22  C   UNL     1       4.764   6.128   2.305  0.00  0.00    +0.073 C 
ATOM     23  C   UNL     1       4.283   7.550   2.009  0.00  0.00    +0.022 C 
ATOM     24  C   UNL     1       4.569   8.447   3.215  0.00  0.00    +0.002 C 
ATOM     25  C   UNL     1       6.073   8.465   3.492  0.00  0.00    +0.000 C 
ATOM     26  C   UNL     1       6.554   7.043   3.789  0.00  0.00    +0.002 C 
ATOM     27  C   UNL     1       6.269   6.146   2.583  0.00  0.00    +0.022 C 
ENDBRANCH  20  22
ENDBRANCH  11  18
ENDBRANCH   1  11
BRANCH   2  28
ATOM     28  C   UNL     1       0.010   1.444  -0.300  0.00  0.00    +0.201 C 
BRANCH  28  29
ATOM     29  N   UNL     1       0.104   0.068  -0.793  0.00  0.00    -0.300 N 
ATOM     30  C   UNL     1      -1.016  -0.618  -1.095  0.00  0.00    +0.280 C 
ATOM     31  O   UNL     1      -2.106  -0.094  -0.960  0.00  0.00    -0.267 OA
ATOM     32  H   UNL     1       0.973  -0.350  -0.901  0.00  0.00    +0.150 HD
BRANCH  30  33
ATOM     33  C   UNL     1      -0.921  -1.996  -1.588  0.00  0.00    +0.189 A 
ATOM     34  C   UNL     1      -1.971  -2.800  -1.930  0.00  0.00    +0.054 A 
ATOM     35  C   UNL     1      -1.423  -4.024  -2.346  0.00  0.00    +0.042 A 
ATOM     36  C   UNL     1      -0.080  -3.914  -2.241  0.00  0.00    +0.196 A 
ATOM     37  O   UNL     1       0.218  -2.690  -1.789  0.00  0.00    -0.458 OA
ENDBRANCH  30  33
ENDBRANCH  28  29
ENDBRANCH   2  28
TORSDOF 8
