REMARK  Name = ZINC46853149
REMARK  6 active torsions:
REMARK  status: ('A' for Active; 'I' for Inactive)
REMARK    1  A    between atoms: C_1  and  C_2
REMARK    2  A    between atoms: C_2  and  C_4
REMARK    3  A    between atoms: C_2  and  N_19
REMARK    4  A    between atoms: C_4  and  N_5
REMARK    5  A    between atoms: C_12  and  C_14
REMARK    6  A    between atoms: N_22  and  C_25
REMARK                            x       y       z     vdW  Elec       q    Type
REMARK                         _______ _______ _______ _____ _____    ______ ____
ROOT
ATOM      1  C   UNL     1      -0.151   1.392  -0.129  0.00  0.00    -0.012 C 
ATOM      2  C   UNL     1      -0.149  -0.132   0.008  0.00  0.00    -0.054 C 
ENDROOT
BRANCH   2   3
ATOM      3  N   UNL     1      -1.514  -0.602   0.278  0.00  0.00    +0.384 N 
ATOM      4  C   UNL     1      -2.046   0.095   1.456  0.00  0.00    -0.059 C 
ATOM      5  C   UNL     1      -3.424  -0.475   1.806  0.00  0.00    +0.086 C 
ATOM      6  N   UNL     1      -4.281  -0.391   0.613  0.00  0.00    -0.333 N 
ATOM      7  C   UNL     1      -3.757  -0.920  -0.655  0.00  0.00    +0.086 C 
ATOM      8  C   UNL     1      -2.363  -0.329  -0.890  0.00  0.00    -0.059 C 
ATOM      9  H   UNL     1      -1.498  -1.595   0.456  0.00  0.00    -0.081 HD
BRANCH   6  10
ATOM     10  C   UNL     1      -5.556   0.176   0.683  0.00  0.00    +0.030 A 
ATOM     11  C   UNL     1      -6.304   0.350  -0.474  0.00  0.00    +0.023 A 
ATOM     12  C   UNL     1      -7.564   0.910  -0.402  0.00  0.00    +0.002 A 
ATOM     13  C   UNL     1      -8.081   1.298   0.821  0.00  0.00    +0.000 A 
ATOM     14  C   UNL     1      -7.339   1.126   1.975  0.00  0.00    +0.002 A 
ATOM     15  C   UNL     1      -6.080   0.561   1.910  0.00  0.00    +0.023 A 
ENDBRANCH   6  10
ENDBRANCH   2   3
BRANCH   2  16
ATOM     16  C   UNL     1       0.768  -0.539   1.164  0.00  0.00    +0.090 C 
BRANCH  16  17
ATOM     17  N   UNL     1       0.679  -1.986   1.371  0.00  0.00    -0.301 N 
ATOM     18  C   UNL     1       1.323  -2.559   2.408  0.00  0.00    +0.303 C 
ATOM     19  O   UNL     1       1.976  -1.874   3.171  0.00  0.00    -0.253 OA
ATOM     20  N   UNL     1       1.242  -3.891   2.599  0.00  0.00    -0.278 N 
ATOM     21  C   UNL     1       0.493  -4.836   1.750  0.00  0.00    +0.110 C 
ATOM     22  C   UNL     1       1.186  -6.204   1.975  0.00  0.00    +0.021 C 
ATOM     23  C   UNL     1       1.537  -6.131   3.484  0.00  0.00    +0.029 C 
ATOM     24  C   UNL     1       1.890  -4.642   3.684  0.00  0.00    +0.114 C 
ATOM     25  H   UNL     1       0.158  -2.533   0.762  0.00  0.00    +0.150 HD
BRANCH  24  26
ATOM     26  C   UNL     1       1.370  -4.169   5.016  0.00  0.00    +0.010 A 
ATOM     27  C   UNL     1       2.042  -3.987   6.179  0.00  0.00    +0.013 A 
ATOM     28  C   UNL     1       1.352  -3.539   7.290  0.00  0.00    +0.008 A 
ATOM     29  C   UNL     1       0.023  -3.295   7.184  0.00  0.00    +0.045 A 
ATOM     30  S   UNL     1      -0.290  -3.695   5.472  0.00  0.00    -0.100 S 
ENDBRANCH  24  26
ENDBRANCH  16  17
ENDBRANCH   2  16
TORSDOF 5
