REMARK  Name = ZINC40954869
REMARK  6 active torsions:
REMARK  status: ('A' for Active; 'I' for Inactive)
REMARK    1  A    between atoms: C_1  and  C_2
REMARK    2  A    between atoms: C_3  and  C_24
REMARK    3  A    between atoms: C_6  and  C_7
REMARK    4  A    between atoms: C_10  and  C_13
REMARK    5  A    between atoms: C_24  and  N_25
REMARK    6  A    between atoms: N_25  and  C_26
REMARK                            x       y       z     vdW  Elec       q    Type
REMARK                         _______ _______ _______ _____ _____    ______ ____
ROOT
ATOM      1  C   UNL     1      -0.018   1.503   0.010  0.00  0.00    +0.048 C 
ATOM      2  C   UNL     1       0.002  -0.004   0.002  0.00  0.00    -0.003 A 
ATOM      3  C   UNL     1       0.009  -0.820  -1.131  0.00  0.00    +0.050 A 
ATOM      4  N   UNL     1       0.027  -2.071  -0.746  0.00  0.00    -0.171 NA
ATOM      5  N   UNL     1       0.033  -2.105   0.655  0.00  0.00    -0.212 N 
ATOM      6  C   UNL     1       0.024  -0.814   1.102  0.00  0.00    +0.081 A 
ATOM      7  C   UNL     1       0.052  -3.254   1.451  0.00  0.00    +0.173 A 
ATOM      8  C   UNL     1       0.073  -4.508   0.851  0.00  0.00    +0.085 A 
ATOM      9  C   UNL     1       0.091  -5.638   1.652  0.00  0.00    +0.025 A 
ATOM     10  C   UNL     1       0.088  -5.471   3.030  0.00  0.00    +0.021 A 
ATOM     11  C   UNL     1       0.067  -4.195   3.557  0.00  0.00    +0.113 A 
ATOM     12  N   UNL     1       0.055  -3.137   2.769  0.00  0.00    -0.235 NA
ATOM     13 CL   UNL     1       0.075  -4.656  -0.879  0.00  0.00    -0.080 Cl
ENDROOT
BRANCH   6  14
ATOM     14  C   UNL     1       0.032  -0.375   2.514  0.00  0.00    +0.019 A 
ATOM     15  C   UNL     1      -0.799  -0.993   3.456  0.00  0.00    +0.013 A 
ATOM     16  C   UNL     1      -0.754  -0.545   4.765  0.00  0.00    +0.033 A 
ATOM     17  C   UNL     1       0.103   0.489   5.097  0.00  0.00    +0.144 A 
ATOM     18  N   UNL     1       0.875   1.053   4.188  0.00  0.00    -0.250 NA
ATOM     19  C   UNL     1       0.872   0.657   2.931  0.00  0.00    +0.121 A 
BRANCH  17  20
ATOM     20  C   UNL     1       0.156   0.980   6.521  0.00  0.00    +0.434 C 
ATOM     21  F   UNL     1       1.123   0.257   7.228  0.00  0.00    -0.164 F 
ATOM     22  F   UNL     1       0.486   2.339   6.534  0.00  0.00    -0.164 F 
ATOM     23  F   UNL     1      -1.094   0.798   7.123  0.00  0.00    -0.164 F 
ENDBRANCH  17  20
ENDBRANCH   6  14
BRANCH   3  24
ATOM     24  C   UNL     1      -0.004  -0.340  -2.559  0.00  0.00    -0.024 C 
BRANCH  24  25
ATOM     25  N   UNL     1       1.377  -0.165  -3.029  0.00  0.00    +0.385 N 
ATOM     26  H   UNL     1       1.846   0.515  -2.450  0.00  0.00    -0.085 HD
ATOM     27  H   UNL     1       1.865  -1.046  -2.974  0.00  0.00    -0.085 HD
BRANCH  25  28
ATOM     28  C   UNL     1       1.365   0.303  -4.421  0.00  0.00    -0.071 C 
ATOM     29  C   UNL     1       0.829  -0.808  -5.348  0.00  0.00    -0.016 C 
ATOM     30  C   UNL     1       1.681  -0.674  -6.634  0.00  0.00    -0.002 C 
ATOM     31  C   UNL     1       3.085  -0.326  -6.080  0.00  0.00    -0.002 C 
ATOM     32  C   UNL     1       2.799   0.610  -4.887  0.00  0.00    -0.016 C 
ENDBRANCH  25  28
ENDBRANCH  24  25
ENDBRANCH   3  24
TORSDOF 5
