REMARK  Name = ZINC01042669
REMARK  6 active torsions:
REMARK  status: ('A' for Active; 'I' for Inactive)
REMARK    1  A    between atoms: C_4  and  S_8
REMARK    2  A    between atoms: C_5  and  N_7
REMARK    3  A    between atoms: S_8  and  C_9
REMARK    4  A    between atoms: C_10  and  C_24
REMARK    5  A    between atoms: C_11  and  C_20
REMARK    6  A    between atoms: C_13  and  C_15
REMARK                            x       y       z     vdW  Elec       q    Type
REMARK                         _______ _______ _______ _____ _____    ______ ____
ROOT
ATOM      1  C   UNL     1      -1.245   2.117  -0.098  0.00  0.00    +0.120 A 
ATOM      2  C   UNL     1      -0.030   1.409  -0.145  0.00  0.00    +0.096 A 
ATOM      3  C   UNL     1       1.171   2.124  -0.249  0.00  0.00    +0.077 A 
ATOM      4  C   UNL     1       1.115   3.501  -0.295  0.00  0.00    +0.042 A 
ATOM      5  C   UNL     1      -0.127   4.140  -0.238  0.00  0.00    +0.079 A 
ATOM      6  N   UNL     1      -1.253   3.439  -0.140  0.00  0.00    -0.238 NA
ENDROOT
BRANCH   5   7
ATOM      7  C   UNL     1      -0.190   5.612  -0.287  0.00  0.00    +0.038 A 
ATOM      8  C   UNL     1      -1.291   6.429  -0.340  0.00  0.00    +0.017 A 
ATOM      9  C   UNL     1      -1.102   7.791  -0.379  0.00  0.00    +0.008 A 
ATOM     10  C   UNL     1       0.164   8.285  -0.364  0.00  0.00    +0.046 A 
ATOM     11  S   UNL     1       1.146   6.796  -0.285  0.00  0.00    -0.095 S 
ENDBRANCH   5   7
BRANCH   3  12
ATOM     12  C   UNL     1       2.494   1.405  -0.309  0.00  0.00    +0.419 C 
ATOM     13  F   UNL     1       3.530   2.340  -0.409  0.00  0.00    -0.166 F 
ATOM     14  F   UNL     1       2.664   0.644   0.853  0.00  0.00    -0.166 F 
ATOM     15  F   UNL     1       2.517   0.562  -1.425  0.00  0.00    -0.166 F 
ENDBRANCH   3  12
BRANCH   2  16
ATOM     16  C   UNL     1      -0.021  -0.023  -0.094  0.00  0.00    +0.102 C 
ATOM     17  N   UNL     1      -0.014  -1.158  -0.054  0.00  0.00    -0.191 NA
ENDBRANCH   2  16
BRANCH   1  18
ATOM     18  S   UNL     1      -2.767   1.237   0.025  0.00  0.00    -0.067 S 
BRANCH  18  22
ATOM     19  C   UNL     1      -5.698   4.678  -0.330  0.00  0.00    +0.002 A 
ATOM     20  C   UNL     1      -5.449   4.103   0.904  0.00  0.00    +0.001 A 
ATOM     21  C   UNL     1      -4.560   3.051   1.014  0.00  0.00    +0.017 A 
ATOM     22  C   UNL     1      -3.906   2.575  -0.113  0.00  0.00    +0.035 A 
ATOM     23  C   UNL     1      -4.157   3.154  -1.357  0.00  0.00    +0.039 A 
ATOM     24  C   UNL     1      -5.055   4.206  -1.459  0.00  0.00    +0.024 A 
BRANCH  23  25
ATOM     25  N   UNL     1      -3.505   2.675  -2.499  0.00  0.00    -0.357 N 
ATOM     26  H   UNL     1      -2.878   1.939  -2.427  0.00  0.00    +0.142 HD
ATOM     27  H   UNL     1      -3.681   3.079  -3.363  0.00  0.00    +0.142 HD
ENDBRANCH  23  25
ENDBRANCH  18  22
ENDBRANCH   1  18
TORSDOF 6
