REMARK  Name = ZINC15971901
REMARK  11 active torsions:
REMARK  status: ('A' for Active; 'I' for Inactive)
REMARK    1  A    between atoms: C_1  and  C_2
REMARK    2  A    between atoms: C_12  and  C_22
REMARK    3  A    between atoms: C_15  and  C_18
REMARK    4  A    between atoms: C_18  and  C_19
REMARK    5  A    between atoms: C_19  and  C_20
REMARK    6  A    between atoms: C_19  and  C_21
REMARK    7  A    between atoms: N_24  and  C_25
REMARK    8  A    between atoms: C_27  and  O_33
REMARK    9  A    between atoms: C_30  and  O_31
REMARK   10  A    between atoms: O_31  and  C_32
REMARK   11  A    between atoms: O_33  and  C_34
REMARK                            x       y       z     vdW  Elec       q    Type
REMARK                         _______ _______ _______ _____ _____    ______ ____
ROOT
ATOM      1  C   UNL     1      -0.018   1.447  -0.023  0.00  0.00    +0.046 C 
ATOM      2  C   UNL     1       0.015  -0.059  -0.024  0.00  0.00    -0.028 A 
ATOM      3  C   UNL     1       0.032  -0.746  -1.221  0.00  0.00    +0.025 A 
ATOM      4  C   UNL     1       0.062  -2.129  -1.232  0.00  0.00    +0.042 A 
ATOM      5  C   UNL     1       0.077  -2.828  -0.036  0.00  0.00    +0.027 A 
ATOM      6  C   UNL     1       0.060  -2.145   1.159  0.00  0.00    +0.005 A 
ATOM      7  C   UNL     1       0.036  -0.754   1.183  0.00  0.00    +0.042 A 
ATOM      8  N   UNL     1       0.031  -0.294   2.501  0.00  0.00    -0.283 N 
ATOM      9  C   UNL     1       0.056  -1.303   3.392  0.00  0.00    +0.243 C 
ATOM     10  O   UNL     1       0.059  -1.201   4.600  0.00  0.00    -0.273 OA
ATOM     11  C   UNL     1       0.068  -2.584   2.599  0.00  0.00    +0.135 C 
ATOM     12  C   UNL     1       1.326  -3.401   2.919  0.00  0.00    +0.110 C 
ATOM     13  C   UNL     1       0.795  -4.771   3.407  0.00  0.00    +0.034 C 
ATOM     14  C   UNL     1      -0.630  -4.827   2.801  0.00  0.00    +0.056 C 
ATOM     15  N   UNL     1      -1.103  -3.421   2.905  0.00  0.00    -0.296 NA
ATOM     16 CL   UNL     1       0.083  -2.987  -2.741  0.00  0.00    -0.084 Cl
ATOM     17  H   UNL     1       0.012   0.644   2.747  0.00  0.00    +0.155 HD
ATOM     18  H   UNL     1      -1.455  -3.225   3.830  0.00  0.00    +0.123 HD
ENDROOT
BRANCH  12  19
ATOM     19  C   UNL     1       2.125  -2.728   4.005  0.00  0.00    +0.223 C 
ATOM     20  O   UNL     1       1.860  -2.936   5.170  0.00  0.00    -0.275 OA
ATOM     21  N   UNL     1       3.135  -1.896   3.681  0.00  0.00    -0.282 N 
ATOM     22  H   UNL     1       3.294  -1.665   2.752  0.00  0.00    +0.155 HD
BRANCH  21  23
ATOM     23  C   UNL     1       3.955  -1.365   4.686  0.00  0.00    +0.079 A 
ATOM     24  C   UNL     1       4.248  -2.118   5.813  0.00  0.00    +0.072 A 
ATOM     25  C   UNL     1       5.059  -1.590   6.805  0.00  0.00    +0.122 A 
ATOM     26  C   UNL     1       5.578  -0.310   6.671  0.00  0.00    +0.049 A 
ATOM     27  C   UNL     1       5.286   0.442   5.549  0.00  0.00    +0.051 A 
ATOM     28  C   UNL     1       4.481  -0.083   4.551  0.00  0.00    +0.141 A 
BRANCH  28  29
ATOM     29  O   UNL     1       4.200   0.656   3.444  0.00  0.00    -0.493 OA
ATOM     30  C   UNL     1       4.774   1.963   3.373  0.00  0.00    +0.277 C 
ENDBRANCH  28  29
BRANCH  25  31
ATOM     31  O   UNL     1       5.347  -2.327   7.911  0.00  0.00    -0.495 OA
ATOM     32  C   UNL     1       6.189  -1.721   8.894  0.00  0.00    +0.277 C 
ENDBRANCH  25  31
ENDBRANCH  21  23
ENDBRANCH  12  19
BRANCH  14  33
ATOM     33  C   UNL     1      -1.526  -5.763   3.615  0.00  0.00    +0.021 C 
BRANCH  33  34
ATOM     34  C   UNL     1      -2.885  -5.896   2.925  0.00  0.00    -0.016 C 
ATOM     35  C   UNL     1      -3.736  -6.927   3.669  0.00  0.00    +0.007 C 
ATOM     36  C   UNL     1      -3.598  -4.542   2.936  0.00  0.00    +0.007 C 
ENDBRANCH  33  34
ENDBRANCH  14  33
TORSDOF 6
