REMARK  Name = ZINC63328872
REMARK  8 active torsions:
REMARK  status: ('A' for Active; 'I' for Inactive)
REMARK    1  A    between atoms: C_1  and  C_2
REMARK    2  A    between atoms: C_4  and  C_28
REMARK    3  A    between atoms: N_6  and  C_22
REMARK    4  A    between atoms: C_7  and  S_10
REMARK    5  A    between atoms: S_10  and  C_11
REMARK    6  A    between atoms: C_11  and  C_12
REMARK    7  A    between atoms: C_18  and  S_20
REMARK    8  A    between atoms: S_20  and  C_21
REMARK                            x       y       z     vdW  Elec       q    Type
REMARK                         _______ _______ _______ _____ _____    ______ ____
ROOT
ATOM      1  C   UNL     1      -0.159   1.612  -0.119  0.00  0.00    -0.012 C 
ATOM      2  C   UNL     1       0.042   0.099  -0.024  0.00  0.00    -0.051 C 
ATOM      3  C   UNL     1      -1.316  -0.644  -0.087  0.00  0.00    +0.055 C 
ATOM      4  N   UNL     1      -1.048  -1.916   0.617  0.00  0.00    -0.333 N 
ATOM      5  C   UNL     1       0.114  -1.692   1.491  0.00  0.00    +0.077 C 
ATOM      6  N   UNL     1       0.546  -0.287   1.322  0.00  0.00    +0.400 N 
ATOM      7  C   UNL     1      -1.720  -0.904  -1.540  0.00  0.00    +0.026 C 
ATOM      8  H   UNL     1       1.553  -0.222   1.353  0.00  0.00    -0.081 HD
ATOM      9  H   UNL     1       0.132   0.296   2.034  0.00  0.00    -0.081 HD
ENDROOT
BRANCH   4  10
ATOM     10  C   UNL     1      -1.765  -3.107   0.479  0.00  0.00    +0.029 A 
ATOM     11  C   UNL     1      -1.153  -4.229  -0.065  0.00  0.00    +0.023 A 
ATOM     12  C   UNL     1      -1.865  -5.404  -0.199  0.00  0.00    +0.002 A 
ATOM     13  C   UNL     1      -3.185  -5.466   0.207  0.00  0.00    +0.000 A 
ATOM     14  C   UNL     1      -3.797  -4.351   0.749  0.00  0.00    +0.002 A 
ATOM     15  C   UNL     1      -3.090  -3.173   0.891  0.00  0.00    +0.023 A 
ENDBRANCH   4  10
BRANCH   5  16
ATOM     16  S   UNL     1      -0.351  -1.989   3.219  0.00  0.00    -0.149 S 
BRANCH  16  17
ATOM     17  C   UNL     1      -1.676  -0.789   3.529  0.00  0.00    +0.165 C 
BRANCH  17  18
ATOM     18  C   UNL     1      -2.160  -0.931   4.949  0.00  0.00    +0.229 C 
ATOM     19  O   UNL     1      -1.660  -1.760   5.680  0.00  0.00    -0.275 OA
ATOM     20  N   UNL     1      -3.148  -0.137   5.407  0.00  0.00    -0.263 N 
ATOM     21  C   UNL     1      -3.595  -0.269   6.720  0.00  0.00    +0.189 A 
ATOM     22  N   UNL     1      -3.193  -1.089   7.677  0.00  0.00    -0.125 NA
ATOM     23  N   UNL     1      -3.711  -1.079   8.827  0.00  0.00    -0.133 NA
ATOM     24  C   UNL     1      -4.688  -0.244   9.148  0.00  0.00    +0.160 A 
ATOM     25  S   UNL     1      -4.871   0.631   7.596  0.00  0.00    -0.024 S 
ATOM     26  H   UNL     1      -3.548   0.525   4.823  0.00  0.00    +0.157 HD
BRANCH  24  27
ATOM     27  S   UNL     1      -5.556  -0.047  10.669  0.00  0.00    -0.100 S 
ATOM     28  C   UNL     1      -4.804  -1.280  11.766  0.00  0.00    +0.092 C 
ENDBRANCH  24  27
ENDBRANCH  17  18
ENDBRANCH  16  17
ENDBRANCH   5  16
TORSDOF 5
