REMARK  Name = ZINC11915840
REMARK  6 active torsions:
REMARK  status: ('A' for Active; 'I' for Inactive)
REMARK    1  A    between atoms: C_4  and  C_7
REMARK    2  A    between atoms: C_9  and  C_12
REMARK    3  A    between atoms: N_14  and  C_15
REMARK    4  A    between atoms: C_16  and  C_24
REMARK    5  A    between atoms: N_26  and  C_27
REMARK    6  A    between atoms: C_27  and  C_28
REMARK                            x       y       z     vdW  Elec       q    Type
REMARK                         _______ _______ _______ _____ _____    ______ ____
ROOT
ATOM      1  C   UNL     1      -3.516  -1.242   0.030  0.00  0.00    +0.085 A 
ATOM      2  C   UNL     1      -4.863  -0.907   0.044  0.00  0.00    +0.069 A 
ATOM      3  C   UNL     1      -5.825  -1.996   0.047  0.00  0.00    -0.023 A 
ATOM      4  C   UNL     1      -5.290  -3.236   0.036  0.00  0.00    -0.004 A 
ATOM      5  S   UNL     1      -3.540  -2.975   0.014  0.00  0.00    -0.077 S 
ATOM      6  C   UNL     1      -6.030  -4.539   0.037  0.00  0.00    +0.043 C 
ATOM      7  C   UNL     1      -7.489  -4.266   0.431  0.00  0.00    +0.005 C 
ATOM      8  C   UNL     1      -8.011  -3.086  -0.395  0.00  0.00    +0.005 C 
ATOM      9  C   UNL     1      -7.335  -1.792   0.062  0.00  0.00    +0.037 C 
ENDROOT
BRANCH   1  12
ATOM     10  C   UNL     1      -1.172  -0.909   0.009  0.00  0.00    +0.270 C 
ATOM     11  O   UNL     1      -1.011  -2.114   0.001  0.00  0.00    -0.268 OA
ATOM     12  N   UNL     1      -2.418  -0.396   0.023  0.00  0.00    -0.274 N 
ATOM     13  H   UNL     1      -2.547   0.565   0.029  0.00  0.00    +0.156 HD
BRANCH  10  16
ATOM     14  C   UNL     1       2.039   0.808  -0.013  0.00  0.00    +0.168 A 
ATOM     15  C   UNL     1       1.370  -0.384  -0.013  0.00  0.00    +0.086 A 
ATOM     16  C   UNL     1       0.002  -0.004   0.002  0.00  0.00    +0.169 A 
ATOM     17  N   UNL     1      -0.016   1.307   0.009  0.00  0.00    -0.073 NA
ATOM     18  O   UNL     1       1.101   1.770   0.001  0.00  0.00    -0.354 OA
BRANCH  14  22
ATOM     19  C   UNL     1       6.251   1.360  -0.051  0.00  0.00    +0.000 A 
ATOM     20  C   UNL     1       5.412   2.460  -0.037  0.00  0.00    +0.001 A 
ATOM     21  C   UNL     1       4.043   2.288  -0.025  0.00  0.00    +0.011 A 
ATOM     22  C   UNL     1       3.505   1.000  -0.027  0.00  0.00    +0.020 A 
ATOM     23  C   UNL     1       4.357  -0.105  -0.036  0.00  0.00    +0.011 A 
ATOM     24  C   UNL     1       5.724   0.081  -0.053  0.00  0.00    +0.001 A 
ENDBRANCH  14  22
ENDBRANCH  10  16
ENDBRANCH   1  12
BRANCH   2  25
ATOM     25  C   UNL     1      -5.298   0.493   0.057  0.00  0.00    +0.247 C 
ATOM     26  O   UNL     1      -5.489   1.080  -0.992  0.00  0.00    -0.270 OA
ATOM     27  N   UNL     1      -5.487   1.129   1.230  0.00  0.00    -0.309 N 
ATOM     28  H   UNL     1      -5.335   0.661   2.066  0.00  0.00    +0.149 HD
BRANCH  27  29
ATOM     29  C   UNL     1      -5.922   2.528   1.242  0.00  0.00    +0.136 C 
BRANCH  29  30
ATOM     30  C   UNL     1      -6.059   3.006   2.689  0.00  0.00    +0.135 C 
ATOM     31  C   UNL     1      -6.517   4.478   2.713  0.00  0.00    +0.035 C 
ATOM     32  C   UNL     1      -7.843   4.450   3.512  0.00  0.00    +0.031 C 
ATOM     33  C   UNL     1      -7.719   3.121   4.300  0.00  0.00    +0.160 C 
ATOM     34  O   UNL     1      -7.066   2.235   3.366  0.00  0.00    -0.375 OA
ENDBRANCH  29  30
ENDBRANCH  27  29
ENDBRANCH   2  25
TORSDOF 6
