REMARK  Name = ZINC12809734
REMARK  6 active torsions:
REMARK  status: ('A' for Active; 'I' for Inactive)
REMARK    1  A    between atoms: C_1  and  C_2
REMARK    2  A    between atoms: C_4  and  S_21
REMARK    3  A    between atoms: C_7  and  N_8
REMARK    4  A    between atoms: C_9  and  C_11
REMARK    5  A    between atoms: C_17  and  C_19
REMARK    6  A    between atoms: S_21  and  C_22
REMARK                            x       y       z     vdW  Elec       q    Type
REMARK                         _______ _______ _______ _____ _____    ______ ____
ROOT
ATOM      1  N   UNL     1      -1.676   2.725  -2.767  0.00  0.00    -0.285 N 
ATOM      2  C   UNL     1      -0.833   3.244  -1.853  0.00  0.00    +0.221 C 
ATOM      3  O   UNL     1       0.204   3.764  -2.210  0.00  0.00    -0.275 OA
ATOM      4  H   UNL     1      -2.532   2.365  -2.488  0.00  0.00    +0.155 HD
ENDROOT
BRANCH   1  11
ATOM      5  C   UNL     1      -2.769   0.681  -4.416  0.00  0.00    +0.046 C 
ATOM      6  C   UNL     1      -1.827   1.724  -4.960  0.00  0.00    -0.028 A 
ATOM      7  C   UNL     1      -1.472   1.703  -6.294  0.00  0.00    +0.021 A 
ATOM      8  C   UNL     1      -0.603   2.663  -6.796  0.00  0.00    +0.023 A 
ATOM      9  C   UNL     1      -0.092   3.645  -5.956  0.00  0.00    +0.017 A 
ATOM     10  C   UNL     1      -0.451   3.668  -4.624  0.00  0.00    +0.024 A 
ATOM     11  C   UNL     1      -1.315   2.704  -4.121  0.00  0.00    +0.036 A 
BRANCH   8  12
ATOM     12  S   UNL     1      -0.149   2.637  -8.499  0.00  0.00    -0.010 S 
BRANCH  12  13
ATOM     13  C   UNL     1       0.954   4.071  -8.552  0.00  0.00    +0.138 C 
ATOM     14  N   UNL     1       1.646   4.971  -8.585  0.00  0.00    -0.183 NA
ENDBRANCH  12  13
ENDBRANCH   8  12
ENDBRANCH   1  11
BRANCH   2  15
ATOM     15  C   UNL     1      -1.177   3.179  -0.387  0.00  0.00    +0.093 C 
ATOM     16  C   UNL     1       0.084   2.869   0.419  0.00  0.00    +0.040 C 
ATOM     17  C   UNL     1       1.008   4.052   0.412  0.00  0.00    -0.030 C 
ATOM     18  C   UNL     1       0.648   5.251   0.084  0.00  0.00    -0.030 C 
ATOM     19  C   UNL     1      -0.742   5.626  -0.340  0.00  0.00    +0.042 C 
ATOM     20  C   UNL     1      -1.731   4.534   0.073  0.00  0.00    +0.118 C 
BRANCH  20  21
ATOM     21  C   UNL     1      -3.065   4.784  -0.582  0.00  0.00    +0.360 C 
ATOM     22  O   UNL     1      -3.538   3.958  -1.325  0.00  0.00    -0.246 OA
ATOM     23  O   UNL     1      -3.727   5.926  -0.340  0.00  0.00    -0.246 OA
ENDBRANCH  20  21
ENDBRANCH   2  15
TORSDOF 5
