REMARK  Name = ZINC16707760
REMARK  8 active torsions:
REMARK  status: ('A' for Active; 'I' for Inactive)
REMARK    1  A    between atoms: C_1  and  C_2
REMARK    2  A    between atoms: C_2  and  C_3
REMARK    3  A    between atoms: C_3  and  N_4
REMARK    4  A    between atoms: N_11  and  C_14
REMARK    5  A    between atoms: C_14  and  C_15
REMARK    6  A    between atoms: N_17  and  C_18
REMARK    7  A    between atoms: C_21  and  S_24
REMARK    8  A    between atoms: S_24  and  N_27
REMARK                            x       y       z     vdW  Elec       q    Type
REMARK                         _______ _______ _______ _____ _____    ______ ____
ROOT
ATOM      1  C   UNL     1      -3.275  -2.657  -0.673  0.00  0.00    +0.237 C 
ATOM      2  O   UNL     1      -3.107  -3.825  -0.951  0.00  0.00    -0.274 OA
ATOM      3  N   UNL     1      -3.609  -1.777  -1.638  0.00  0.00    -0.284 N 
ATOM      4  H   UNL     1      -3.809  -0.856  -1.407  0.00  0.00    +0.155 HD
ENDROOT
BRANCH   3   5
ATOM      5  C   UNL     1      -3.667  -2.191  -2.973  0.00  0.00    +0.034 A 
ATOM      6  C   UNL     1      -3.293  -1.321  -3.989  0.00  0.00    +0.025 A 
ATOM      7  C   UNL     1      -3.345  -1.735  -5.305  0.00  0.00    +0.031 A 
ATOM      8  C   UNL     1      -3.781  -3.010  -5.614  0.00  0.00    +0.113 A 
ATOM      9  C   UNL     1      -4.160  -3.877  -4.605  0.00  0.00    +0.031 A 
ATOM     10  C   UNL     1      -4.104  -3.471  -3.286  0.00  0.00    +0.025 A 
BRANCH   8  11
ATOM     11  S   UNL     1      -3.853  -3.532  -7.295  0.00  0.00    +0.100 S 
ATOM     12  O   UNL     1      -2.929  -2.724  -8.011  0.00  0.00    -0.146 OA
ATOM     13  O   UNL     1      -3.775  -4.951  -7.284  0.00  0.00    -0.146 OA
BRANCH  11  14
ATOM     14  N   UNL     1      -5.360  -3.145  -7.863  0.00  0.00    -0.118 NA
ATOM     15  C   UNL     1      -5.681  -3.423  -9.085  0.00  0.00    +0.117 C 
ATOM     16  C   UNL     1      -4.743  -4.071  -9.977  0.00  0.00    +0.073 C 
ATOM     17  C   UNL     1      -4.549  -3.303 -11.293  0.00  0.00    +0.008 C 
ATOM     18  C   UNL     1      -5.742  -3.619 -12.151  0.00  0.00    +0.002 C 
ATOM     19  C   UNL     1      -6.862  -2.553 -12.047  0.00  0.00    +0.019 C 
ATOM     20  C   UNL     1      -7.020  -2.081 -10.592  0.00  0.00    +0.102 C 
ATOM     21  N   UNL     1      -6.952  -3.111  -9.590  0.00  0.00    -0.331 N 
ATOM     22  H   UNL     1      -7.747  -3.570  -9.277  0.00  0.00    +0.147 HD
ENDBRANCH  11  14
ENDBRANCH   8  11
ENDBRANCH   3   5
BRANCH   1  23
ATOM     23  C   UNL     1      -3.111  -2.188   0.750  0.00  0.00    +0.222 C 
BRANCH  23  31
ATOM     24  N   UNL     1      -1.540  -4.813   2.683  0.00  0.00    -0.292 N 
ATOM     25  C   UNL     1      -2.875  -5.105   2.952  0.00  0.00    +0.070 A 
ATOM     26  C   UNL     1      -3.501  -6.081   3.714  0.00  0.00    +0.028 A 
ATOM     27  C   UNL     1      -4.879  -6.115   3.790  0.00  0.00    +0.002 A 
ATOM     28  C   UNL     1      -5.639  -5.180   3.108  0.00  0.00    +0.002 A 
ATOM     29  C   UNL     1      -5.025  -4.205   2.346  0.00  0.00    +0.028 A 
ATOM     30  C   UNL     1      -3.642  -4.166   2.260  0.00  0.00    +0.070 A 
ATOM     31  N   UNL     1      -2.749  -3.326   1.599  0.00  0.00    -0.283 N 
ATOM     32  C   UNL     1      -1.497  -3.741   1.869  0.00  0.00    +0.331 A 
ATOM     33  O   UNL     1      -0.481  -3.225   1.443  0.00  0.00    -0.246 OA
BRANCH  24  34
ATOM     34  C   UNL     1      -0.381  -5.546   3.197  0.00  0.00    +0.127 C 
BRANCH  34  36
ATOM     35  C   UNL     1       1.192  -7.439   2.763  0.00  0.00    +0.005 C 
ATOM     36  C   UNL     1      -0.019  -6.672   2.226  0.00  0.00    +0.018 C 
ENDBRANCH  34  36
ENDBRANCH  24  34
ENDBRANCH  23  31
ENDBRANCH   1  23
TORSDOF 7
