REMARK  Name = ZINC04508359
REMARK  12 active torsions:
REMARK  status: ('A' for Active; 'I' for Inactive)
REMARK    1  A    between atoms: C_1  and  C_2
REMARK    2  A    between atoms: C_5  and  C_9
REMARK    3  A    between atoms: C_7  and  C_8
REMARK    4  A    between atoms: C_9  and  C_11
REMARK    5  A    between atoms: C_11  and  C_13
REMARK    6  A    between atoms: C_11  and  O_14
REMARK    7  A    between atoms: O_14  and  C_15
REMARK    8  A    between atoms: C_15  and  C_17
REMARK    9  A    between atoms: C_20  and  N_26
REMARK   10  A    between atoms: C_21  and  N_23
REMARK   11  A    between atoms: N_26  and  C_27
REMARK   12  A    between atoms: N_26  and  C_28
REMARK                            x       y       z     vdW  Elec       q    Type
REMARK                         _______ _______ _______ _____ _____    ______ ____
ROOT
ATOM      1  C   UNL     1      -0.956   6.259  -1.068  0.00  0.00    +0.340 C 
ATOM      2  O   UNL     1      -2.001   5.660  -1.226  0.00  0.00    -0.245 OA
ENDROOT
BRANCH   1   3
ATOM      3  C   UNL     1      -0.815   7.639  -1.566  0.00  0.00    +0.061 A 
ATOM      4  C   UNL     1       0.385   8.332  -1.380  0.00  0.00    +0.017 A 
ATOM      5  C   UNL     1       0.516   9.610  -1.846  0.00  0.00    +0.026 A 
ATOM      6  C   UNL     1      -0.546  10.230  -2.498  0.00  0.00    +0.060 A 
ATOM      7  C   UNL     1      -1.746   9.550  -2.683  0.00  0.00    +0.148 A 
ATOM      8  C   UNL     1      -1.884   8.260  -2.220  0.00  0.00    +0.049 A 
BRANCH   7   9
ATOM      9  N   UNL     1      -2.874  10.212  -3.376  0.00  0.00    +0.058 N 
ATOM     10  O   UNL     1      -3.924   9.616  -3.538  0.00  0.00    -0.126 OA
ATOM     11  O   UNL     1      -2.752  11.352  -3.785  0.00  0.00    -0.126 OA
ENDBRANCH   7   9
BRANCH   6  12
ATOM     12  N   UNL     1      -0.408  11.532  -2.965  0.00  0.00    -0.334 N 
ATOM     13  C   UNL     1      -0.108  12.457  -1.864  0.00  0.00    +0.129 C 
ATOM     14  C   UNL     1       0.620  11.609  -4.012  0.00  0.00    +0.129 C 
ENDBRANCH   6  12
ENDBRANCH   1   3
BRANCH   1  15
ATOM     15  O   UNL     1       0.075   5.662  -0.438  0.00  0.00    -0.450 OA
BRANCH  15  16
ATOM     16  C   UNL     1      -0.135   4.302   0.025  0.00  0.00    +0.244 C 
ATOM     17  C   UNL     1      -0.688   4.328   1.451  0.00  0.00    +0.061 C 
BRANCH  16  18
ATOM     18  C   UNL     1       1.176   3.558   0.009  0.00  0.00    +0.203 C 
ATOM     19  O   UNL     1       2.222   4.172   0.003  0.00  0.00    -0.288 OA
BRANCH  18  24
ATOM     20  C   UNL     1       1.219  -2.190  -0.021  0.00  0.00    +0.044 C 
ATOM     21  C   UNL     1       1.208  -0.683  -0.013  0.00  0.00    -0.047 A 
ATOM     22  C   UNL     1       0.002  -0.004   0.002  0.00  0.00    +0.004 A 
ATOM     23  C   UNL     1      -0.017   1.374   0.010  0.00  0.00    +0.012 A 
ATOM     24  C   UNL     1       1.187   2.087   0.002  0.00  0.00    +0.021 A 
ATOM     25  C   UNL     1       2.401   1.393  -0.014  0.00  0.00    +0.015 A 
ATOM     26  C   UNL     1       2.403   0.014  -0.021  0.00  0.00    -0.047 A 
ATOM     27  C   UNL     1       3.711  -0.736  -0.038  0.00  0.00    +0.044 C 
ENDBRANCH  18  24
ENDBRANCH  16  18
ENDBRANCH  15  16
ENDBRANCH   1  15
TORSDOF 7
