REMARK  Name = ZINC24877192
REMARK  14 active torsions:
REMARK  status: ('A' for Active; 'I' for Inactive)
REMARK    1  A    between atoms: C_1  and  C_2
REMARK    2  A    between atoms: C_5  and  C_31
REMARK    3  A    between atoms: C_6  and  O_8
REMARK    4  A    between atoms: O_8  and  C_9
REMARK    5  A    between atoms: C_9  and  C_10
REMARK    6  A    between atoms: C_13  and  S_16
REMARK    7  A    between atoms: N_14  and  N_15
REMARK    8  A    between atoms: S_16  and  C_17
REMARK    9  A    between atoms: C_17  and  C_18
REMARK   10  A    between atoms: C_20  and  C_23
REMARK   11  A    between atoms: C_28  and  O_29
REMARK   12  A    between atoms: O_29  and  C_30
REMARK   13  A    between atoms: C_31  and  C_32
REMARK   14  A    between atoms: C_31  and  C_33
REMARK                            x       y       z     vdW  Elec       q    Type
REMARK                         _______ _______ _______ _____ _____    ______ ____
ROOT
ATOM      1  C   UNL     1      -2.079   1.768  -1.057  0.00  0.00    +0.189 A 
ATOM      2  N   UNL     1      -2.369   2.211  -2.248  0.00  0.00    -0.128 NA
ATOM      3  N   UNL     1      -1.313   2.232  -2.980  0.00  0.00    -0.121 NA
ATOM      4  C   UNL     1      -0.282   1.804  -2.288  0.00  0.00    +0.209 A 
ATOM      5  N   UNL     1      -0.741   1.490  -1.041  0.00  0.00    -0.225 N 
ENDROOT
BRANCH   5   6
ATOM      6  N   UNL     1      -0.012   1.005   0.008  0.00  0.00    -0.295 N 
ATOM      7  H   UNL     1       1.067   0.823  -0.110  0.00  0.00    +0.163 HD
ATOM      8  H   UNL     1      -0.503   0.796   0.969  0.00  0.00    +0.163 HD
ENDBRANCH   5   6
BRANCH   1   9
ATOM      9  C   UNL     1      -3.042   1.594   0.090  0.00  0.00    +0.306 C 
BRANCH   9  10
ATOM     10  O   UNL     1      -3.090   2.798   0.858  0.00  0.00    -0.484 OA
BRANCH  10  16
ATOM     11  C   UNL     1      -6.319   0.475   3.687  0.00  0.00    +0.044 C 
ATOM     12  C   UNL     1      -5.505   1.697   3.347  0.00  0.00    -0.047 A 
ATOM     13  C   UNL     1      -5.598   2.830   4.133  0.00  0.00    +0.004 A 
ATOM     14  C   UNL     1      -4.852   3.953   3.824  0.00  0.00    +0.008 A 
ATOM     15  C   UNL     1      -4.007   3.942   2.731  0.00  0.00    -0.003 A 
ATOM     16  C   UNL     1      -3.916   2.809   1.937  0.00  0.00    +0.125 A 
ATOM     17  C   UNL     1      -4.665   1.684   2.250  0.00  0.00    +0.049 A 
BRANCH  15  18
ATOM     18  C   UNL     1      -3.190   5.164   2.398  0.00  0.00    +0.016 C 
ATOM     19  C   UNL     1      -4.124   6.347   2.138  0.00  0.00    +0.012 C 
ATOM     20  C   UNL     1      -2.264   5.494   3.571  0.00  0.00    +0.012 C 
ENDBRANCH  15  18
ENDBRANCH  10  16
ENDBRANCH   9  10
ENDBRANCH   1   9
BRANCH   4  21
ATOM     21  S   UNL     1       1.377   1.661  -2.862  0.00  0.00    -0.077 S 
BRANCH  21  22
ATOM     22  C   UNL     1       1.175   2.253  -4.560  0.00  0.00    +0.154 C 
BRANCH  22  23
ATOM     23  C   UNL     1       2.506   2.217  -5.266  0.00  0.00    +0.148 A 
ATOM     24  C   UNL     1       3.018   1.185  -5.973  0.00  0.00    +0.077 A 
ATOM     25  C   UNL     1       4.279   1.667  -6.422  0.00  0.00    +0.117 A 
ATOM     26  N   UNL     1       4.388   2.887  -5.956  0.00  0.00    -0.078 NA
ATOM     27  O   UNL     1       3.411   3.205  -5.319  0.00  0.00    -0.358 OA
BRANCH  25  28
ATOM     28  C   UNL     1       5.270   0.937  -7.249  0.00  0.00    +0.045 A 
ATOM     29  C   UNL     1       5.007  -0.365  -7.670  0.00  0.00    +0.014 A 
ATOM     30  C   UNL     1       5.933  -1.040  -8.439  0.00  0.00    +0.001 A 
ATOM     31  C   UNL     1       7.122  -0.428  -8.796  0.00  0.00    +0.004 A 
ATOM     32  C   UNL     1       7.393   0.862  -8.384  0.00  0.00    +0.046 A 
ATOM     33  C   UNL     1       6.470   1.554  -7.615  0.00  0.00    +0.129 A 
BRANCH  33  34
ATOM     34  O   UNL     1       6.733   2.825  -7.215  0.00  0.00    -0.494 OA
ATOM     35  C   UNL     1       7.979   3.390  -7.627  0.00  0.00    +0.277 C 
ENDBRANCH  33  34
ENDBRANCH  25  28
ENDBRANCH  22  23
ENDBRANCH  21  22
ENDBRANCH   4  21
TORSDOF 10
