REMARK  Name = ZINC37128819
REMARK  7 active torsions:
REMARK  status: ('A' for Active; 'I' for Inactive)
REMARK    1  A    between atoms: C_1  and  C_2
REMARK    2  A    between atoms: C_5  and  N_12
REMARK    3  A    between atoms: C_8  and  C_10
REMARK    4  A    between atoms: C_8  and  C_11
REMARK    5  A    between atoms: N_12  and  C_13
REMARK    6  A    between atoms: C_13  and  C_15
REMARK    7  A    between atoms: C_13  and  C_20
REMARK                            x       y       z     vdW  Elec       q    Type
REMARK                         _______ _______ _______ _____ _____    ______ ____
ROOT
ATOM      1  N   UNL     1       2.638  -0.894  -2.532  0.00  0.00    +0.386 N 
ATOM      2  H   UNL     1       3.647  -0.887  -2.555  0.00  0.00    -0.085 HD
ATOM      3  H   UNL     1       2.307  -1.845  -2.595  0.00  0.00    -0.085 HD
ENDROOT
BRANCH   1   7
ATOM      4  C   UNL     1       0.137   1.687   0.037  0.00  0.00    +0.007 C 
ATOM      5  C   UNL     1       0.131   0.161   0.118  0.00  0.00    -0.015 C 
ATOM      6  C   UNL     1       0.655  -0.447  -1.175  0.00  0.00    -0.013 C 
ATOM      7  C   UNL     1       2.172  -0.293  -1.271  0.00  0.00    -0.070 C 
ATOM      8  C   UNL     1       2.818  -1.026  -0.098  0.00  0.00    -0.010 C 
ATOM      9  C   UNL     1       2.373  -0.423   1.230  0.00  0.00    -0.036 C 
ATOM     10  C   UNL     1       0.861  -0.338   1.349  0.00  0.00    +0.009 C 
ATOM     11  C   UNL     1       3.017   0.952   1.423  0.00  0.00    +0.011 C 
ATOM     12  C   UNL     1       2.890  -1.339   2.359  0.00  0.00    +0.011 C 
ENDBRANCH   1   7
BRANCH   1  13
ATOM     13  C   UNL     1       2.118  -0.118  -3.666  0.00  0.00    -0.031 C 
BRANCH  13  14
ATOM     14  C   UNL     1       2.708   1.268  -3.639  0.00  0.00    -0.024 A 
ATOM     15  C   UNL     1       2.109   2.455  -3.902  0.00  0.00    +0.009 A 
ATOM     16  C   UNL     1       2.854   3.616  -3.814  0.00  0.00    +0.008 A 
ATOM     17  C   UNL     1       4.162   3.533  -3.467  0.00  0.00    +0.045 A 
ATOM     18  S   UNL     1       4.374   1.774  -3.246  0.00  0.00    -0.103 S 
ENDBRANCH  13  14
BRANCH  13  19
ATOM     19  C   UNL     1       2.501  -0.810  -4.976  0.00  0.00    -0.020 C 
ATOM     20  C   UNL     1       4.037  -0.895  -5.099  0.00  0.00    +0.002 C 
ATOM     21  C   UNL     1       4.310  -0.666  -6.607  0.00  0.00    +0.000 C 
ATOM     22  C   UNL     1       3.262   0.411  -6.984  0.00  0.00    +0.000 C 
ATOM     23  C   UNL     1       2.009   0.019  -6.174  0.00  0.00    +0.002 C 
ENDBRANCH  13  19
ENDBRANCH   1  13
TORSDOF 4
