REMARK  Name = ZINC67450491
REMARK  7 active torsions:
REMARK  status: ('A' for Active; 'I' for Inactive)
REMARK    1  A    between atoms: C_1  and  N_2
REMARK    2  A    between atoms: N_2  and  C_3
REMARK    3  A    between atoms: C_12  and  C_14
REMARK    4  A    between atoms: C_14  and  N_15
REMARK    5  A    between atoms: N_15  and  C_16
REMARK    6  A    between atoms: C_21  and  S_22
REMARK    7  A    between atoms: S_22  and  C_23
REMARK                            x       y       z     vdW  Elec       q    Type
REMARK                         _______ _______ _______ _____ _____    ______ ____
ROOT
ATOM      1  C   UNL     1      -2.480  -6.537   1.505  0.00  0.00    +0.197 C 
ENDROOT
BRANCH   1  13
ATOM      2  C   UNL     1       0.013   1.427  -0.146  0.00  0.00    +0.133 C 
ATOM      3  N   UNL     1      -0.025  -0.030  -0.289  0.00  0.00    -0.292 N 
ATOM      4  C   UNL     1       1.165  -0.753  -0.745  0.00  0.00    +0.133 C 
ATOM      5  C   UNL     1      -1.155  -0.706  -0.002  0.00  0.00    +0.304 C 
ATOM      6  O   UNL     1      -2.200  -0.104   0.157  0.00  0.00    -0.252 OA
ATOM      7  N   UNL     1      -1.127  -2.049   0.110  0.00  0.00    -0.283 N 
ATOM      8  C   UNL     1       0.143  -2.755   0.332  0.00  0.00    +0.128 C 
ATOM      9  C   UNL     1       0.010  -3.619   1.592  0.00  0.00    +0.127 C 
ATOM     10  N   UNL     1      -1.229  -4.403   1.495  0.00  0.00    -0.297 N 
ATOM     11  C   UNL     1      -2.499  -3.697   1.274  0.00  0.00    +0.127 C 
ATOM     12  C   UNL     1      -2.367  -2.833   0.019  0.00  0.00    +0.128 C 
ATOM     13  C   UNL     1      -1.201  -5.746   1.607  0.00  0.00    +0.233 C 
ATOM     14  O   UNL     1      -0.147  -6.318   1.789  0.00  0.00    -0.274 OA
ENDBRANCH   1  13
BRANCH   1  15
ATOM     15  N   UNL     1      -2.185  -7.964   1.658  0.00  0.00    -0.335 N 
ATOM     16  H   UNL     1      -1.271  -8.258   1.800  0.00  0.00    +0.147 HD
BRANCH  15  17
ATOM     17  C   UNL     1      -3.221  -8.903   1.600  0.00  0.00    +0.041 A 
ATOM     18  C   UNL     1      -4.527  -8.486   1.392  0.00  0.00    +0.024 A 
ATOM     19  C   UNL     1      -5.549  -9.416   1.335  0.00  0.00    +0.002 A 
ATOM     20  C   UNL     1      -5.274 -10.762   1.486  0.00  0.00    +0.001 A 
ATOM     21  C   UNL     1      -3.975 -11.188   1.693  0.00  0.00    +0.017 A 
ATOM     22  C   UNL     1      -2.942 -10.263   1.745  0.00  0.00    +0.037 A 
BRANCH  22  23
ATOM     23  S   UNL     1      -1.285 -10.802   2.002  0.00  0.00    -0.014 S 
BRANCH  23  24
ATOM     24  C   UNL     1      -1.425 -12.606   2.130  0.00  0.00    +0.448 C 
ATOM     25  F   UNL     1      -1.968 -13.117   0.945  0.00  0.00    -0.160 F 
ATOM     26  F   UNL     1      -0.157 -13.159   2.337  0.00  0.00    -0.160 F 
ATOM     27  F   UNL     1      -2.259 -12.934   3.204  0.00  0.00    -0.160 F 
ENDBRANCH  23  24
ENDBRANCH  22  23
ENDBRANCH  15  17
ENDBRANCH   1  15
TORSDOF 5
