REMARK  Name = ZINC22508266
REMARK  5 active torsions:
REMARK  status: ('A' for Active; 'I' for Inactive)
REMARK    1  A    between atoms: C_4  and  O_13
REMARK    2  A    between atoms: C_5  and  C_7
REMARK    3  A    between atoms: N_8  and  N_9
REMARK    4  A    between atoms: O_13  and  C_14
REMARK    5  A    between atoms: C_14  and  C_15
REMARK                            x       y       z     vdW  Elec       q    Type
REMARK                         _______ _______ _______ _____ _____    ______ ____
ROOT
ATOM      1  C   UNL     1      -1.637   7.473  -1.945  0.00  0.00    +0.256 C 
ATOM      2  O   UNL     1      -0.608   8.107  -2.041  0.00  0.00    -0.272 OA
ATOM      3  N   UNL     1      -2.803   8.016  -2.347  0.00  0.00    -0.262 N 
ATOM      4  C   UNL     1      -2.826   9.302  -2.873  0.00  0.00    +0.165 A 
ATOM      5  N   UNL     1      -3.854   9.998  -3.316  0.00  0.00    -0.229 NA
ATOM      6  C   UNL     1      -3.700  11.222  -3.786  0.00  0.00    +0.054 A 
ATOM      7  C   UNL     1      -2.455  11.754  -3.807  0.00  0.00    +0.014 A 
ATOM      8  S   UNL     1      -1.507  10.409  -3.107  0.00  0.00    -0.057 S 
ATOM      9  C   UNL     1      -1.993  13.108  -4.282  0.00  0.00    +0.044 C 
ATOM     10  C   UNL     1      -3.000  14.173  -3.846  0.00  0.00    +0.005 C 
ATOM     11  C   UNL     1      -2.471  15.560  -4.216  0.00  0.00    +0.000 C 
ATOM     12  C   UNL     1      -3.243  16.097  -5.425  0.00  0.00    +0.000 C 
ATOM     13  C   UNL     1      -3.727  14.926  -6.282  0.00  0.00    +0.000 C 
ATOM     14  C   UNL     1      -5.252  14.956  -6.386  0.00  0.00    +0.000 C 
ATOM     15  C   UNL     1      -5.732  13.774  -7.228  0.00  0.00    +0.000 C 
ATOM     16  C   UNL     1      -6.207  12.650  -6.306  0.00  0.00    +0.000 C 
ATOM     17  C   UNL     1      -4.997  11.859  -5.804  0.00  0.00    +0.006 C 
ATOM     18  C   UNL     1      -4.886  12.005  -4.286  0.00  0.00    +0.056 C 
ATOM     19  H   UNL     1      -3.737   7.441  -2.260  0.00  0.00    +0.157 HD
ENDROOT
BRANCH   1  20
ATOM     20  C   UNL     1      -1.612   6.078  -1.375  0.00  0.00    +0.325 C 
BRANCH  20  21
ATOM     21  O   UNL     1      -0.267   5.716  -1.059  0.00  0.00    -0.482 OA
BRANCH  21  25
ATOM     22  C   UNL     1       0.395   1.813   0.137  0.00  0.00    +0.001 A 
ATOM     23  C   UNL     1      -0.857   2.206  -0.304  0.00  0.00    +0.004 A 
ATOM     24  C   UNL     1      -1.081   3.512  -0.698  0.00  0.00    +0.046 A 
ATOM     25  C   UNL     1      -0.049   4.434  -0.666  0.00  0.00    +0.130 A 
ATOM     26  C   UNL     1       1.222   4.040  -0.227  0.00  0.00    +0.036 A 
ATOM     27  C   UNL     1       1.434   2.719   0.175  0.00  0.00    +0.013 A 
BRANCH  26  28
ATOM     28  C   UNL     1       2.329   5.013  -0.188  0.00  0.00    +0.142 C 
ATOM     29  N   UNL     1       2.103   6.263  -0.454  0.00  0.00    -0.186 NA
BRANCH  29  30
ATOM     30  N   UNL     1       3.174   7.159  -0.570  0.00  0.00    -0.191 N 
ATOM     31  C   UNL     1       2.936   8.475  -0.739  0.00  0.00    +0.317 C 
ATOM     32  O   UNL     1       3.860   9.237  -0.947  0.00  0.00    -0.251 OA
ATOM     33  N   UNL     1       1.674   8.945  -0.678  0.00  0.00    -0.312 N 
ATOM     34  H   UNL     1       4.208   6.789  -0.522  0.00  0.00    +0.179 HD
ATOM     35  H   UNL     1       1.480  10.019  -0.816  0.00  0.00    +0.147 HD
ATOM     36  H   UNL     1       0.839   8.255  -0.490  0.00  0.00    +0.147 HD
ENDBRANCH  29  30
ENDBRANCH  26  28
ENDBRANCH  21  25
ENDBRANCH  20  21
ENDBRANCH   1  20
TORSDOF 5
