REMARK  Name = ZINC44895079
REMARK  4 active torsions:
REMARK  status: ('A' for Active; 'I' for Inactive)
REMARK    1  A    between atoms: N_12  and  C_13
REMARK    2  A    between atoms: C_13  and  C_14
REMARK    3  A    between atoms: C_14  and  C_15
REMARK    4  A    between atoms: C_15  and  N_16
REMARK                            x       y       z     vdW  Elec       q    Type
REMARK                         _______ _______ _______ _____ _____    ______ ____
ROOT
ATOM      1  C   UNL     1      -0.005   1.388   0.001  0.00  0.00    +0.013 A 
ATOM      2  C   UNL     1       1.159   2.077  -0.006  0.00  0.00    +0.046 A 
ATOM      3  S   UNL     1       2.366   0.759  -0.019  0.00  0.00    -0.101 S 
ATOM      4  C   UNL     1       1.231  -0.604  -0.017  0.00  0.00    -0.004 A 
ATOM      5  C   UNL     1       0.009  -0.006  -0.003  0.00  0.00    -0.020 A 
ATOM      6  C   UNL     1      -1.260  -0.856   0.013  0.00  0.00    +0.145 C 
ATOM      7  N   UNL     1      -0.879  -2.238  -0.306  0.00  0.00    -0.281 N 
ATOM      8  C   UNL     1       0.275  -2.838   0.381  0.00  0.00    +0.115 C 
ATOM      9  C   UNL     1       1.538  -2.066  -0.032  0.00  0.00    +0.062 C 
ATOM     10  C   UNL     1      -1.577  -2.947  -1.215  0.00  0.00    +0.303 C 
ATOM     11  O   UNL     1      -1.198  -4.055  -1.544  0.00  0.00    -0.253 OA
ATOM     12  N   UNL     1      -2.694  -2.428  -1.761  0.00  0.00    -0.299 N 
ATOM     13  H   UNL     1      -2.957  -1.517  -1.554  0.00  0.00    +0.150 HD
ENDROOT
BRANCH  12  14
ATOM     14  C   UNL     1      -3.512  -3.238  -2.666  0.00  0.00    +0.107 C 
BRANCH  14  15
ATOM     15  C   UNL     1      -4.713  -2.417  -3.141  0.00  0.00    +0.038 C 
BRANCH  15  16
ATOM     16  C   UNL     1      -5.568  -3.264  -4.087  0.00  0.00    +0.109 C 
BRANCH  16  17
ATOM     17  N   UNL     1      -6.718  -2.478  -4.541  0.00  0.00    -0.301 N 
ATOM     18  C   UNL     1      -7.971  -2.504  -3.771  0.00  0.00    +0.108 C 
ATOM     19  C   UNL     1      -8.138  -1.159  -3.062  0.00  0.00    +0.019 C 
ATOM     20  C   UNL     1      -8.822  -0.151  -3.968  0.00  0.00    +0.002 C 
ATOM     21  C   UNL     1      -7.988   0.257  -5.170  0.00  0.00    +0.009 C 
ATOM     22  C   UNL     1      -7.802  -0.923  -6.126  0.00  0.00    +0.096 C 
ATOM     23  C   UNL     1      -6.620  -1.740  -5.648  0.00  0.00    +0.216 C 
ATOM     24  O   UNL     1      -5.582  -1.727  -6.276  0.00  0.00    -0.276 OA
ENDBRANCH  16  17
ENDBRANCH  15  16
ENDBRANCH  14  15
ENDBRANCH  12  14
TORSDOF 4
