REMARK  Name = ZINC39211112
REMARK  7 active torsions:
REMARK  status: ('A' for Active; 'I' for Inactive)
REMARK    1  A    between atoms: C_1  and  C_2
REMARK    2  A    between atoms: C_9  and  C_12
REMARK    3  A    between atoms: C_15  and  N_18
REMARK    4  A    between atoms: C_19  and  C_21
REMARK    5  A    between atoms: C_21  and  S_22
REMARK    6  A    between atoms: S_22  and  C_23
REMARK    7  A    between atoms: C_29  and  C_31
REMARK                            x       y       z     vdW  Elec       q    Type
REMARK                         _______ _______ _______ _____ _____    ______ ____
ROOT
ATOM      1  N   UNL     1      -4.556  -7.973   2.280  0.00  0.00    -0.285 N 
ATOM      2  C   UNL     1      -5.465  -8.123   1.297  0.00  0.00    +0.227 C 
ATOM      3  O   UNL     1      -5.252  -7.659   0.197  0.00  0.00    -0.275 OA
ATOM      4  H   UNL     1      -4.690  -8.409   3.136  0.00  0.00    +0.155 HD
ENDROOT
BRANCH   1   8
ATOM      5  C   UNL     1      -1.165  -5.638   1.642  0.00  0.00    -0.017 A 
ATOM      6  C   UNL     1      -2.360  -5.300   1.034  0.00  0.00    +0.008 A 
ATOM      7  C   UNL     1      -3.486  -6.072   1.243  0.00  0.00    +0.023 A 
ATOM      8  C   UNL     1      -3.417  -7.189   2.065  0.00  0.00    +0.033 A 
ATOM      9  C   UNL     1      -2.215  -7.526   2.675  0.00  0.00    +0.023 A 
ATOM     10  C   UNL     1      -1.092  -6.752   2.458  0.00  0.00    +0.008 A 
BRANCH   5  19
ATOM     11  C   UNL     1       0.009   1.645   0.798  0.00  0.00    +0.044 C 
ATOM     12  C   UNL     1      -0.007   0.150   0.607  0.00  0.00    -0.049 A 
ATOM     13  C   UNL     1      -0.116  -0.395  -0.659  0.00  0.00    +0.005 A 
ATOM     14  C   UNL     1      -0.131  -1.758  -0.847  0.00  0.00    +0.024 A 
ATOM     15  C   UNL     1      -0.039  -2.644   0.241  0.00  0.00    +0.042 A 
ATOM     16  C   UNL     1       0.070  -2.062   1.508  0.00  0.00    +0.031 A 
ATOM     17  C   UNL     1       0.092  -0.699   1.697  0.00  0.00    +0.020 A 
ATOM     18  S   UNL     1       0.166  -3.430   2.640  0.00  0.00    -0.096 S 
ATOM     19  C   UNL     1       0.061  -4.793   1.411  0.00  0.00    +0.164 C 
ATOM     20  N   UNL     1      -0.046  -4.035   0.157  0.00  0.00    -0.327 N 
ATOM     21  H   UNL     1      -0.119  -4.487  -0.698  0.00  0.00    +0.147 HD
ENDBRANCH   5  19
ENDBRANCH   1   8
BRANCH   2  22
ATOM     22  C   UNL     1      -6.748  -8.868   1.565  0.00  0.00    +0.173 C 
BRANCH  22  23
ATOM     23  S   UNL     1      -7.755  -8.899   0.056  0.00  0.00    -0.078 S 
BRANCH  23  24
ATOM     24  C   UNL     1      -9.200  -9.792   0.526  0.00  0.00    +0.170 A 
ATOM     25  N   UNL     1     -10.182 -10.007  -0.392  0.00  0.00    -0.302 N 
ATOM     26  H   UNL     1     -10.085  -9.671  -1.296  0.00  0.00    +0.171 HD
ATOM     27  C   UNL     1     -11.291 -10.691  -0.038  0.00  0.00    +0.253 A 
ATOM     28  O   UNL     1     -12.181 -10.894  -0.848  0.00  0.00    -0.268 OA
ATOM     29  C   UNL     1     -11.401 -11.167   1.280  0.00  0.00    +0.102 A 
ATOM     30  C   UNL     1     -10.384 -10.921   2.157  0.00  0.00    +0.151 A 
ATOM     31  N   UNL     1      -9.308 -10.246   1.760  0.00  0.00    -0.219 NA
BRANCH  30  32
ATOM     32  C   UNL     1     -10.478 -11.420   3.576  0.00  0.00    +0.434 C 
ATOM     33  F   UNL     1     -11.688 -12.099   3.753  0.00  0.00    -0.164 F 
ATOM     34  F   UNL     1      -9.413 -12.289   3.837  0.00  0.00    -0.164 F 
ATOM     35  F   UNL     1     -10.420 -10.334   4.457  0.00  0.00    -0.164 F 
ENDBRANCH  30  32
ENDBRANCH  23  24
ENDBRANCH  22  23
ENDBRANCH   2  22
TORSDOF 6
