REMARK  Name = ZINC00319977
REMARK  4 active torsions:
REMARK  status: ('A' for Active; 'I' for Inactive)
REMARK    1  A    between atoms: C_1  and  C_2
REMARK    2  A    between atoms: C_6  and  C_7
REMARK    3  A    between atoms: C_8  and  N_17
REMARK    4  A    between atoms: N_17  and  C_18
REMARK                            x       y       z     vdW  Elec       q    Type
REMARK                         _______ _______ _______ _____ _____    ______ ____
ROOT
ATOM      1  C   UNL     1      -2.061   1.167  -1.381  0.00  0.00    +0.118 A 
ATOM      2  C   UNL     1      -0.727   1.411  -1.120  0.00  0.00    +0.132 A 
ATOM      3  N   UNL     1      -0.243   2.131  -2.177  0.00  0.00    -0.286 N 
ATOM      4  C   UNL     1       0.996   2.647  -2.450  0.00  0.00    +0.114 A 
ATOM      5  C   UNL     1       1.217   3.336  -3.589  0.00  0.00    +0.058 A 
ATOM      6  C   UNL     1       0.175   3.534  -4.513  0.00  0.00    +0.025 A 
ATOM      7  C   UNL     1      -1.059   3.021  -4.260  0.00  0.00    +0.048 A 
ATOM      8  C   UNL     1      -1.280   2.306  -3.064  0.00  0.00    +0.140 A 
ATOM      9  N   UNL     1      -2.361   1.725  -2.569  0.00  0.00    -0.225 NA
ATOM     10 CL   UNL     1       2.795   3.982  -3.915  0.00  0.00    -0.082 Cl
ENDROOT
BRANCH   1  16
ATOM     11  C   UNL     1      -5.033   0.627  -1.943  0.00  0.00    +0.045 C 
ATOM     12  C   UNL     1      -4.323   0.151  -0.703  0.00  0.00    -0.034 A 
ATOM     13  C   UNL     1      -4.996  -0.572   0.260  0.00  0.00    +0.011 A 
ATOM     14  C   UNL     1      -4.328  -0.981   1.368  0.00  0.00    +0.046 A 
ATOM     15  S   UNL     1      -2.687  -0.346   1.071  0.00  0.00    -0.095 S 
ATOM     16  C   UNL     1      -2.994   0.424  -0.510  0.00  0.00    +0.044 A 
ENDBRANCH   1  16
BRANCH   2  17
ATOM     17  N   UNL     1      -0.012   1.005   0.008  0.00  0.00    -0.326 N 
ATOM     18  H   UNL     1       0.041  -0.002   0.060  0.00  0.00    +0.148 HD
BRANCH  17  19
ATOM     19  C   UNL     1       1.330   1.603   0.024  0.00  0.00    +0.072 C 
ATOM     20  C   UNL     1       2.279   0.751  -0.820  0.00  0.00    +0.022 C 
ATOM     21  C   UNL     1       3.676   1.374  -0.803  0.00  0.00    +0.002 C 
ATOM     22  C   UNL     1       4.190   1.435   0.636  0.00  0.00    +0.000 C 
ATOM     23  C   UNL     1       3.241   2.288   1.481  0.00  0.00    +0.002 C 
ATOM     24  C   UNL     1       1.843   1.665   1.464  0.00  0.00    +0.022 C 
ENDBRANCH  17  19
ENDBRANCH   2  17
TORSDOF 3
