REMARK  Name = ZINC09046107
REMARK  9 active torsions:
REMARK  status: ('A' for Active; 'I' for Inactive)
REMARK    1  A    between atoms: C_1  and  C_2
REMARK    2  A    between atoms: C_2  and  C_3
REMARK    3  A    between atoms: C_9  and  C_10
REMARK    4  A    between atoms: C_14  and  O_16
REMARK    5  A    between atoms: O_16  and  C_17
REMARK    6  A    between atoms: C_17  and  C_18
REMARK    7  A    between atoms: C_18  and  O_19
REMARK    8  A    between atoms: O_19  and  C_20
REMARK    9  A    between atoms: C_23  and  C_26
REMARK                            x       y       z     vdW  Elec       q    Type
REMARK                         _______ _______ _______ _____ _____    ______ ____
ROOT
ATOM      1  C   UNL     1       2.845  -0.769  -8.018  0.00  0.00    -0.021 A 
ATOM      2  C   UNL     1       2.936  -2.166  -7.956  0.00  0.00    +0.008 A 
ATOM      3  C   UNL     1       3.117  -2.894  -9.112  0.00  0.00    +0.004 A 
ATOM      4  C   UNL     1       3.209  -2.252 -10.334  0.00  0.00    +0.045 A 
ATOM      5  C   UNL     1       3.120  -0.868 -10.408  0.00  0.00    +0.121 A 
ATOM      6  C   UNL     1       2.933  -0.123  -9.257  0.00  0.00    +0.053 A 
ENDROOT
BRANCH   1  13
ATOM      7  C   UNL     1       2.648  -1.273  -1.027  0.00  0.00    +0.100 C 
ATOM      8  N   UNL     1       2.431  -0.447  -2.010  0.00  0.00    -0.169 NA
ATOM      9  N   UNL     1       3.052  -0.608  -3.230  0.00  0.00    -0.152 N 
ATOM     10  C   UNL     1       2.958   0.276  -4.327  0.00  0.00    +0.152 C 
ATOM     11  N   UNL     1       2.630   1.534  -4.208  0.00  0.00    -0.283 NA
ATOM     12  C   UNL     1       3.270  -0.370  -5.635  0.00  0.00    +0.081 C 
ATOM     13  C   UNL     1       2.653   0.012  -6.791  0.00  0.00    +0.024 C 
ATOM     14  C   UNL     1       4.288  -1.450  -5.611  0.00  0.00    +0.273 C 
ATOM     15  O   UNL     1       4.936  -1.724  -6.608  0.00  0.00    -0.268 OA
ATOM     16  N   UNL     1       4.475  -2.119  -4.457  0.00  0.00    -0.152 NA
ATOM     17  C   UNL     1       3.857  -1.717  -3.375  0.00  0.00    +0.181 C 
ATOM     18  S   UNL     1       3.806  -2.427  -1.751  0.00  0.00    -0.038 S 
ATOM     19  H   UNL     1       2.437   1.905  -3.333  0.00  0.00    +0.188 HD
BRANCH   7  21
ATOM     20  C   UNL     1       1.123  -0.068   0.512  0.00  0.00    +0.011 C 
ATOM     21  C   UNL     1       2.074  -1.257   0.366  0.00  0.00    +0.061 C 
ENDBRANCH   7  21
ENDBRANCH   1  13
BRANCH   5  22
ATOM     22  O   UNL     1       3.212  -0.245 -11.612  0.00  0.00    -0.489 OA
BRANCH  22  23
ATOM     23  C   UNL     1       3.399  -1.075 -12.759  0.00  0.00    +0.270 C 
BRANCH  23  24
ATOM     24  C   UNL     1       3.479  -0.202 -14.014  0.00  0.00    +0.270 C 
BRANCH  24  25
ATOM     25  O   UNL     1       4.645   0.621 -13.948  0.00  0.00    -0.489 OA
BRANCH  25  26
ATOM     26  C   UNL     1       4.867   1.462 -14.992  0.00  0.00    +0.121 A 
ATOM     27  C   UNL     1       3.976   1.500 -16.055  0.00  0.00    +0.046 A 
ATOM     28  C   UNL     1       4.203   2.356 -17.114  0.00  0.00    +0.007 A 
ATOM     29  C   UNL     1       5.316   3.176 -17.116  0.00  0.00    -0.050 A 
ATOM     30  C   UNL     1       6.206   3.140 -16.058  0.00  0.00    +0.007 A 
ATOM     31  C   UNL     1       5.980   2.289 -14.993  0.00  0.00    +0.046 A 
ATOM     32  C   UNL     1       5.562   4.109 -18.274  0.00  0.00    +0.044 C 
ENDBRANCH  25  26
ENDBRANCH  24  25
ENDBRANCH  23  24
ENDBRANCH  22  23
ENDBRANCH   5  22
TORSDOF 7
