REMARK  Name = ZINC12710776
REMARK  11 active torsions:
REMARK  status: ('A' for Active; 'I' for Inactive)
REMARK    1  A    between atoms: C_1  and  C_2
REMARK    2  A    between atoms: C_2  and  N_3
REMARK    3  A    between atoms: N_3  and  C_4
REMARK    4  A    between atoms: N_3  and  C_6
REMARK    5  A    between atoms: C_4  and  C_5
REMARK    6  A    between atoms: C_6  and  C_7
REMARK    7  A    between atoms: C_7  and  C_8
REMARK    8  A    between atoms: C_8  and  N_9
REMARK    9  A    between atoms: N_9  and  C_10
REMARK   10  A    between atoms: C_10  and  C_11
REMARK   11  A    between atoms: N_28  and  C_29
REMARK                            x       y       z     vdW  Elec       q    Type
REMARK                         _______ _______ _______ _____ _____    ______ ____
ROOT
ATOM      1  N   UNL     1       2.127  -4.497  -3.857  0.00  0.00    -0.281 N 
ATOM      2  C   UNL     1       1.560  -4.579  -5.077  0.00  0.00    +0.303 C 
ATOM      3  O   UNL     1       2.216  -4.958  -6.028  0.00  0.00    -0.253 OA
ATOM      4  N   UNL     1       0.266  -4.240  -5.243  0.00  0.00    -0.296 N 
ATOM      5  H   UNL     1      -0.257  -3.937  -4.485  0.00  0.00    +0.151 HD
ENDROOT
BRANCH   4   6
ATOM      6  C   UNL     1      -0.350  -4.329  -6.569  0.00  0.00    +0.074 C 
ATOM      7  C   UNL     1      -0.065  -3.045  -7.351  0.00  0.00    +0.022 C 
ATOM      8  C   UNL     1      -0.709  -3.138  -8.736  0.00  0.00    +0.002 C 
ATOM      9  C   UNL     1      -2.220  -3.318  -8.585  0.00  0.00    +0.000 C 
ATOM     10  C   UNL     1      -2.505  -4.602  -7.803  0.00  0.00    +0.002 C 
ATOM     11  C   UNL     1      -1.862  -4.509  -6.418  0.00  0.00    +0.022 C 
ENDBRANCH   4   6
BRANCH   1  12
ATOM     12  C   UNL     1       1.336  -4.039  -2.711  0.00  0.00    +0.108 C 
BRANCH  12  13
ATOM     13  C   UNL     1       1.453  -2.519  -2.586  0.00  0.00    +0.000 C 
BRANCH  13  14
ATOM     14  C   UNL     1       0.628  -2.041  -1.389  0.00  0.00    -0.077 C 
BRANCH  14  15
ATOM     15  N   UNL     1       0.827  -0.598  -1.203  0.00  0.00    +0.379 N 
ATOM     16  H   UNL     1       1.813  -0.402  -1.119  0.00  0.00    -0.082 HD
BRANCH  15  18
ATOM     17  C   UNL     1       0.597   1.616  -2.224  0.00  0.00    -0.017 C 
ATOM     18  C   UNL     1       0.280   0.126  -2.359  0.00  0.00    -0.082 C 
ENDBRANCH  15  18
BRANCH  15  19
ATOM     19  C   UNL     1       0.136  -0.162   0.018  0.00  0.00    -0.082 C 
ATOM     20  C   UNL     1       0.810  -0.793   1.238  0.00  0.00    -0.017 C 
ENDBRANCH  15  19
ENDBRANCH  14  15
ENDBRANCH  13  14
ENDBRANCH  12  13
ENDBRANCH   1  12
BRANCH   1  21
ATOM     21  C   UNL     1       3.533  -4.865  -3.676  0.00  0.00    +0.149 C 
BRANCH  21  22
ATOM     22  C   UNL     1       3.629  -6.332  -3.345  0.00  0.00    +0.035 A 
ATOM     23  C   UNL     1       3.861  -7.235  -4.332  0.00  0.00    +0.020 A 
ATOM     24  C   UNL     1       3.949  -8.651  -3.979  0.00  0.00    +0.003 A 
ATOM     25  C   UNL     1       4.184  -9.626  -4.957  0.00  0.00    +0.059 A 
ATOM     26  C   UNL     1       4.261 -10.952  -4.594  0.00  0.00    +0.167 A 
ATOM     27  C   UNL     1       4.105 -11.327  -3.253  0.00  0.00    +0.168 A 
ATOM     28  C   UNL     1       3.873 -10.371  -2.281  0.00  0.00    +0.075 A 
ATOM     29  C   UNL     1       3.792  -9.029  -2.631  0.00  0.00    +0.053 A 
ATOM     30  N   UNL     1       3.559  -8.062  -1.675  0.00  0.00    -0.322 N 
ATOM     31  H   UNL     1       3.452  -8.323  -0.747  0.00  0.00    +0.169 HD
ATOM     32  C   UNL     1       3.484  -6.762  -2.010  0.00  0.00    +0.254 A 
ATOM     33  O   UNL     1       3.281  -5.934  -1.139  0.00  0.00    -0.268 OA
ATOM     34  O   UNL     1       4.225 -12.684  -3.167  0.00  0.00    -0.453 OA
ATOM     35  C   UNL     1       4.044 -13.173  -4.509  0.00  0.00    +0.466 C 
ATOM     36  O   UNL     1       4.477 -12.078  -5.337  0.00  0.00    -0.453 OA
ENDBRANCH  21  22
ENDBRANCH   1  21
TORSDOF 9
