REMARK  Name = ZINC09804765
REMARK  4 active torsions:
REMARK  status: ('A' for Active; 'I' for Inactive)
REMARK    1  A    between atoms: C_1  and  N_45
REMARK    2  A    between atoms: C_9  and  O_26
REMARK    3  A    between atoms: C_11  and  C_14
REMARK    4  A    between atoms: C_17  and  C_19
REMARK                            x       y       z     vdW  Elec       q    Type
REMARK                         _______ _______ _______ _____ _____    ______ ____
ROOT
ATOM      1  C   UNL     1      -2.491  -0.925   8.371  0.00  0.00    -0.096 C 
ATOM      2  C   UNL     1      -1.133  -1.743   6.540  0.00  0.00    -0.074 C 
ATOM      3  C   UNL     1      -1.216  -2.351   5.138  0.00  0.00    +0.018 C 
ATOM      4  C   UNL     1      -1.814  -1.308   4.200  0.00  0.00    -0.027 A 
ATOM      5  C   UNL     1      -2.484  -0.247   4.710  0.00  0.00    -0.021 A 
ATOM      6  S   UNL     1      -2.992   0.692   3.295  0.00  0.00    -0.080 S 
ATOM      7  C   UNL     1      -2.330  -0.298   2.067  0.00  0.00    +0.080 A 
ATOM      8  C   UNL     1      -1.721  -1.357   2.754  0.00  0.00    +0.067 A 
ATOM      9  C   UNL     1      -1.056  -2.404   1.935  0.00  0.00    +0.220 C 
ATOM     10  N   UNL     1      -0.871  -2.155   0.667  0.00  0.00    -0.220 NA
ATOM     11  C   UNL     1      -1.210  -0.899   0.009  0.00  0.00    +0.260 C 
ATOM     12  N   UNL     1      -2.316  -0.208   0.698  0.00  0.00    -0.311 N 
ATOM     13  C   UNL     1      -2.727   0.041   6.158  0.00  0.00    -0.036 C 
ATOM     14  H   UNL     1      -2.994   0.285   0.211  0.00  0.00    +0.149 HD
ATOM     15  N   UNL     1      -2.455  -1.203   6.919  0.00  0.00    +0.381 N 
ATOM     16  H   UNL     1      -3.177  -1.897   6.694  0.00  0.00    -0.082 HD
ENDROOT
BRANCH  11  17
ATOM     17  C   UNL     1       0.002  -0.004   0.002  0.00  0.00    +0.148 A 
ATOM     18  C   UNL     1       1.284  -0.418  -0.012  0.00  0.00    +0.049 A 
ATOM     19  C   UNL     1       2.091   0.738  -0.014  0.00  0.00    +0.050 A 
ATOM     20  C   UNL     1       1.248   1.804  -0.000  0.00  0.00    +0.135 A 
ATOM     21  O   UNL     1      -0.016   1.339   0.009  0.00  0.00    -0.456 OA
BRANCH  20  22
ATOM     22  C   UNL     1       1.649   3.226   0.004  0.00  0.00    +0.018 A 
ATOM     23  C   UNL     1       0.677   4.229   0.019  0.00  0.00    +0.011 A 
ATOM     24  C   UNL     1       1.057   5.554   0.022  0.00  0.00    +0.002 A 
ATOM     25  C   UNL     1       2.399   5.893   0.011  0.00  0.00    +0.015 A 
ATOM     26  C   UNL     1       3.368   4.904  -0.004  0.00  0.00    +0.019 A 
ATOM     27  C   UNL     1       3.000   3.574  -0.002  0.00  0.00    +0.026 A 
ATOM     28 BR   UNL     1       5.199   5.378  -0.021  0.00  0.00    -0.050 Br
ENDBRANCH  20  22
ENDBRANCH  11  17
BRANCH   9  29
ATOM     29  O   UNL     1      -0.656  -3.574   2.484  0.00  0.00    -0.492 OA
ATOM     30  H   UNL     1      -0.235  -4.179   1.858  0.00  0.00    +0.294 HD
ENDBRANCH   9  29
TORSDOF 3
