REMARK  Name = ZINC18182968
REMARK  7 active torsions:
REMARK  status: ('A' for Active; 'I' for Inactive)
REMARK    1  A    between atoms: C_1  and  C_2
REMARK    2  A    between atoms: N_4  and  C_5
REMARK    3  A    between atoms: C_14  and  C_17
REMARK    4  A    between atoms: C_17  and  O_19
REMARK    5  A    between atoms: O_19  and  C_20
REMARK    6  A    between atoms: C_20  and  C_21
REMARK    7  A    between atoms: C_24  and  C_26
REMARK                            x       y       z     vdW  Elec       q    Type
REMARK                         _______ _______ _______ _____ _____    ______ ____
ROOT
ATOM      1  C   UNL     1       0.020  -2.136  -1.177  0.00  0.00    +0.036 C 
ATOM      2  C   UNL     1      -1.215  -2.667  -0.447  0.00  0.00    +0.029 C 
ATOM      3  C   UNL     1      -1.195  -4.197  -0.455  0.00  0.00    -0.008 C 
ATOM      4  C   UNL     1       0.068  -4.694   0.252  0.00  0.00    +0.007 C 
ATOM      5  C   UNL     1       1.304  -4.163  -0.479  0.00  0.00    -0.008 C 
ATOM      6  C   UNL     1       1.283  -2.633  -0.470  0.00  0.00    +0.029 C 
ATOM      7  C   UNL     1       1.297  -4.665  -1.924  0.00  0.00    +0.021 C 
ATOM      8  C   UNL     1       0.034  -4.168  -2.631  0.00  0.00    +0.070 C 
ATOM      9  C   UNL     1      -1.201  -4.699  -1.900  0.00  0.00    +0.021 C 
ATOM     10  C   UNL     1       0.013  -2.639  -2.622  0.00  0.00    +0.043 C 
ENDROOT
BRANCH   1  14
ATOM     11  C   UNL     1      -0.018   1.503   0.010  0.00  0.00    +0.109 C 
ATOM     12  C   UNL     1       0.002  -0.004   0.002  0.00  0.00    +0.210 C 
ATOM     13  O   UNL     1       0.020  -0.616   1.049  0.00  0.00    -0.276 OA
ATOM     14  N   UNL     1       0.000  -0.672  -1.169  0.00  0.00    -0.310 N 
ATOM     15  H   UNL     1      -0.015  -0.182  -2.006  0.00  0.00    +0.149 HD
ENDBRANCH   1  14
BRANCH   8  16
ATOM     16  C   UNL     1       0.027  -4.663  -4.054  0.00  0.00    +0.314 C 
ATOM     17  O   UNL     1       0.008  -3.873  -4.968  0.00  0.00    -0.250 OA
BRANCH  16  18
ATOM     18  O   UNL     1       0.043  -5.981  -4.306  0.00  0.00    -0.458 OA
BRANCH  18  19
ATOM     19  C   UNL     1       0.035  -6.379  -5.679  0.00  0.00    +0.288 C 
BRANCH  19  20
ATOM     20  C   UNL     1       0.055  -7.883  -5.766  0.00  0.00    +0.086 A 
ATOM     21  C   UNL     1       0.070  -8.631  -4.631  0.00  0.00    +0.074 A 
ATOM     22  S   UNL     1       0.089 -10.280  -5.322  0.00  0.00    -0.075 S 
ATOM     23  C   UNL     1       0.074  -9.795  -7.043  0.00  0.00    +0.109 A 
ATOM     24  N   UNL     1       0.051  -8.474  -6.938  0.00  0.00    -0.241 NA
BRANCH  23  25
ATOM     25  C   UNL     1       0.079 -10.640  -8.256  0.00  0.00    +0.007 A 
ATOM     26  C   UNL     1       0.071 -10.051  -9.521  0.00  0.00    +0.010 A 
ATOM     27  C   UNL     1       0.076 -10.845 -10.649  0.00  0.00    +0.001 A 
ATOM     28  C   UNL     1       0.089 -12.223 -10.529  0.00  0.00    +0.000 A 
ATOM     29  C   UNL     1       0.097 -12.814  -9.278  0.00  0.00    +0.001 A 
ATOM     30  C   UNL     1       0.099 -12.031  -8.142  0.00  0.00    +0.010 A 
ENDBRANCH  23  25
ENDBRANCH  19  20
ENDBRANCH  18  19
ENDBRANCH  16  18
ENDBRANCH   8  16
TORSDOF 6
