REMARK  Name = ZINC63480022
REMARK  4 active torsions:
REMARK  status: ('A' for Active; 'I' for Inactive)
REMARK    1  A    between atoms: C_1  and  C_2
REMARK    2  A    between atoms: C_16  and  C_19
REMARK    3  A    between atoms: C_19  and  C_20
REMARK    4  A    between atoms: N_31  and  C_34
REMARK                            x       y       z     vdW  Elec       q    Type
REMARK                         _______ _______ _______ _____ _____    ______ ____
ROOT
ATOM      1  C   UNL     1      -0.991   0.862  -0.593  0.00  0.00    +0.045 C 
ATOM      2  C   UNL     1      -0.726  -0.612  -0.422  0.00  0.00    -0.029 A 
ATOM      3  C   UNL     1      -0.640  -1.429  -1.531  0.00  0.00    +0.005 A 
ATOM      4  C   UNL     1      -0.397  -2.782  -1.384  0.00  0.00    +0.001 A 
ATOM      5  C   UNL     1      -0.238  -3.320  -0.119  0.00  0.00    +0.008 A 
ATOM      6  C   UNL     1      -0.323  -2.509   0.990  0.00  0.00    +0.004 A 
ATOM      7  C   UNL     1      -0.561  -1.144   0.855  0.00  0.00    +0.042 A 
ATOM      8  N   UNL     1      -0.596  -0.533   2.110  0.00  0.00    -0.283 N 
ATOM      9  C   UNL     1      -0.389  -1.413   3.109  0.00  0.00    +0.243 C 
ATOM     10  O   UNL     1      -0.363  -1.167   4.296  0.00  0.00    -0.273 OA
ATOM     11  C   UNL     1      -0.206  -2.761   2.467  0.00  0.00    +0.136 C 
ATOM     12  C   UNL     1       1.156  -3.362   2.831  0.00  0.00    +0.123 C 
ATOM     13  C   UNL     1       0.890  -4.889   2.956  0.00  0.00    +0.107 C 
ATOM     14  C   UNL     1      -0.613  -5.054   2.647  0.00  0.00    +0.072 C 
ATOM     15  N   UNL     1      -1.215  -3.731   2.931  0.00  0.00    -0.295 NA
ATOM     16  C   UNL     1       1.710  -5.479   1.831  0.00  0.00    +0.232 C 
ATOM     17  O   UNL     1       1.791  -6.659   1.567  0.00  0.00    -0.274 OA
ATOM     18  N   UNL     1       2.333  -4.495   1.171  0.00  0.00    -0.210 N 
ATOM     19  C   UNL     1       2.096  -3.253   1.652  0.00  0.00    +0.233 C 
ATOM     20  O   UNL     1       2.555  -2.219   1.215  0.00  0.00    -0.274 OA
ATOM     21  H   UNL     1      -0.752   0.414   2.246  0.00  0.00    +0.155 HD
ATOM     22  H   UNL     1      -1.387  -3.629   3.920  0.00  0.00    +0.124 HD
ENDROOT
BRANCH  18  23
ATOM     23  C   UNL     1       3.171  -4.731   0.071  0.00  0.00    +0.044 A 
ATOM     24  C   UNL     1       2.639  -5.214  -1.116  0.00  0.00    +0.027 A 
ATOM     25  C   UNL     1       3.466  -5.446  -2.198  0.00  0.00    +0.040 A 
ATOM     26  C   UNL     1       4.824  -5.197  -2.099  0.00  0.00    +0.124 A 
ATOM     27  C   UNL     1       5.356  -4.714  -0.915  0.00  0.00    +0.040 A 
ATOM     28  C   UNL     1       4.532  -4.476   0.167  0.00  0.00    +0.027 A 
ATOM     29  F   UNL     1       5.631  -5.424  -3.158  0.00  0.00    -0.205 F 
ENDBRANCH  18  23
BRANCH  14  30
ATOM     30  C   UNL     1      -1.224  -6.139   3.536  0.00  0.00    +0.052 C 
BRANCH  30  31
ATOM     31  C   UNL     1      -2.658  -6.370   3.135  0.00  0.00    -0.040 C 
ATOM     32  C   UNL     1      -3.123  -7.317   2.288  0.00  0.00    -0.001 A 
ATOM     33  C   UNL     1      -2.459  -8.374   1.517  0.00  0.00    +0.010 A 
ATOM     34  C   UNL     1      -3.208  -9.187   0.738  0.00  0.00    +0.001 A 
ATOM     35  C   UNL     1      -4.600  -9.045   0.648  0.00  0.00    +0.002 A 
ATOM     36  C   UNL     1      -5.281  -8.098   1.327  0.00  0.00    +0.026 A 
ATOM     37  C   UNL     1      -4.594  -7.188   2.177  0.00  0.00    +0.043 A 
ATOM     38  N   UNL     1      -5.021  -6.200   2.926  0.00  0.00    -0.380 N 
ATOM     39  C   UNL     1      -3.869  -5.594   3.602  0.00  0.00    +0.144 C 
ATOM     40  H   UNL     1      -5.945  -5.920   3.020  0.00  0.00    +0.160 HD
ENDBRANCH  30  31
ENDBRANCH  14  30
TORSDOF 3
