REMARK  Name = ZINC24423827
REMARK  7 active torsions:
REMARK  status: ('A' for Active; 'I' for Inactive)
REMARK    1  A    between atoms: C_1  and  C_2
REMARK    2  A    between atoms: C_3  and  C_30
REMARK    3  A    between atoms: N_4  and  C_24
REMARK    4  A    between atoms: C_5  and  S_7
REMARK    5  A    between atoms: S_7  and  C_8
REMARK    6  A    between atoms: C_8  and  C_9
REMARK    7  A    between atoms: N_14  and  C_15
REMARK                            x       y       z     vdW  Elec       q    Type
REMARK                         _______ _______ _______ _____ _____    ______ ____
ROOT
ATOM      1  C   UNL     1       6.968  -2.980   4.087  0.00  0.00    +0.231 C 
ATOM      2  O   UNL     1       6.234  -3.945   4.090  0.00  0.00    -0.274 OA
ATOM      3  N   UNL     1       6.588  -1.846   3.466  0.00  0.00    -0.239 N 
ATOM      4  C   UNL     1       5.392  -1.784   2.849  0.00  0.00    +0.310 C 
ATOM      5  O   UNL     1       4.655  -2.751   2.853  0.00  0.00    -0.252 OA
ATOM      6  N   UNL     1       5.011  -0.649   2.228  0.00  0.00    -0.269 N 
ATOM      7  H   UNL     1       7.254  -0.971   3.463  0.00  0.00    +0.159 HD
ATOM      8  H   UNL     1       5.711   0.195   2.150  0.00  0.00    +0.156 HD
ENDROOT
BRANCH   6   9
ATOM      9  C   UNL     1       3.725  -0.546   1.683  0.00  0.00    +0.038 A 
ATOM     10  C   UNL     1       2.658  -1.190   2.296  0.00  0.00    +0.027 A 
ATOM     11  C   UNL     1       1.388  -1.090   1.759  0.00  0.00    +0.051 A 
ATOM     12  C   UNL     1       1.176  -0.346   0.610  0.00  0.00    +0.166 A 
ATOM     13  C   UNL     1       2.244   0.302  -0.006  0.00  0.00    +0.168 A 
ATOM     14  C   UNL     1       3.516   0.200   0.532  0.00  0.00    +0.073 A 
ATOM     15  O   UNL     1       1.779   0.960  -1.108  0.00  0.00    -0.453 OA
ATOM     16  C   UNL     1       0.353   1.045  -0.931  0.00  0.00    +0.466 C 
ATOM     17  O   UNL     1       0.041  -0.093  -0.107  0.00  0.00    -0.453 OA
ENDBRANCH   6   9
BRANCH   1  18
ATOM     18  C   UNL     1       8.306  -3.049   4.777  0.00  0.00    +0.173 C 
BRANCH  18  19
ATOM     19  S   UNL     1       8.523  -4.690   5.510  0.00  0.00    -0.078 S 
BRANCH  19  24
ATOM     20  C   UNL     1      13.127  -2.630   7.008  0.00  0.00    +0.067 C 
ATOM     21  C   UNL     1      12.010  -3.627   6.835  0.00  0.00    +0.060 A 
ATOM     22  C   UNL     1      11.998  -4.885   7.308  0.00  0.00    +0.039 A 
ATOM     23  N   UNL     1      10.799  -5.446   6.928  0.00  0.00    -0.320 N 
ATOM     24  C   UNL     1      10.120  -4.496   6.228  0.00  0.00    +0.170 A 
ATOM     25  N   UNL     1      10.859  -3.413   6.176  0.00  0.00    -0.227 NA
ATOM     26  C   UNL     1      13.089  -5.554   8.104  0.00  0.00    +0.065 C 
BRANCH  23  27
ATOM     27  C   UNL     1      10.342  -6.807   7.219  0.00  0.00    +0.089 C 
ATOM     28  C   UNL     1      10.094  -7.554   5.907  0.00  0.00    +0.025 C 
ATOM     29  C   UNL     1       9.617  -8.975   6.211  0.00  0.00    +0.002 C 
ATOM     30  C   UNL     1       8.318  -8.915   7.018  0.00  0.00    +0.000 C 
ATOM     31  C   UNL     1       8.566  -8.169   8.330  0.00  0.00    +0.002 C 
ATOM     32  C   UNL     1       9.044  -6.747   8.025  0.00  0.00    +0.025 C 
ENDBRANCH  23  27
ENDBRANCH  19  24
ENDBRANCH  18  19
ENDBRANCH   1  18
TORSDOF 5
