REMARK  Name = ZINC32883972
REMARK  7 active torsions:
REMARK  status: ('A' for Active; 'I' for Inactive)
REMARK    1  A    between atoms: C_3  and  C_6
REMARK    2  A    between atoms: C_14  and  C_16
REMARK    3  A    between atoms: C_16  and  S_17
REMARK    4  A    between atoms: S_17  and  C_18
REMARK    5  A    between atoms: C_21  and  C_24
REMARK    6  A    between atoms: C_24  and  C_25
REMARK    7  A    between atoms: C_25  and  C_26
REMARK                            x       y       z     vdW  Elec       q    Type
REMARK                         _______ _______ _______ _____ _____    ______ ____
ROOT
ATOM      1  C   UNL     1      -0.547   3.887   2.069  0.00  0.00    +0.253 C 
ATOM      2  O   UNL     1      -1.137   4.951   2.081  0.00  0.00    -0.269 OA
ATOM      3  N   UNL     1      -0.460   3.177   0.927  0.00  0.00    -0.294 N 
ATOM      4  C   UNL     1       0.369   1.965   0.864  0.00  0.00    +0.127 C 
ATOM      5  C   UNL     1       1.367   2.114  -0.291  0.00  0.00    +0.127 C 
ATOM      6  N   UNL     1       0.637   2.540  -1.494  0.00  0.00    -0.298 N 
ATOM      7  C   UNL     1      -0.189   3.753  -1.428  0.00  0.00    +0.127 C 
ATOM      8  C   UNL     1      -1.190   3.603  -0.276  0.00  0.00    +0.127 C 
ATOM      9  C   UNL     1       0.725   1.830  -2.637  0.00  0.00    +0.226 C 
ATOM     10  O   UNL     1       1.410   0.831  -2.679  0.00  0.00    -0.275 OA
ENDROOT
BRANCH   1  13
ATOM     11  C   UNL     1       1.040   3.342   5.441  0.00  0.00    +0.008 A 
ATOM     12  C   UNL     1       0.494   4.075   4.417  0.00  0.00    +0.021 A 
ATOM     13  C   UNL     1       0.069   3.377   3.298  0.00  0.00    +0.074 A 
ATOM     14  S   UNL     1       0.475   1.696   3.738  0.00  0.00    -0.092 S 
ATOM     15  C   UNL     1       1.147   1.994   5.309  0.00  0.00    +0.046 A 
ENDBRANCH   1  13
BRANCH   9  16
ATOM     16  C   UNL     1      -0.029   2.280  -3.862  0.00  0.00    +0.173 C 
BRANCH  16  17
ATOM     17  S   UNL     1       0.290   1.129  -5.222  0.00  0.00    -0.077 S 
BRANCH  17  18
ATOM     18  C   UNL     1      -0.685   1.873  -6.487  0.00  0.00    +0.185 A 
ATOM     19  N   UNL     1      -0.830   1.425  -7.769  0.00  0.00    -0.206 NA
ATOM     20  H   UNL     1      -1.568   3.623  -5.511  0.00  0.00    +0.191 HD
ATOM     21  C   UNL     1      -1.673   2.314  -8.378  0.00  0.00    +0.152 A 
ATOM     22  N   UNL     1      -1.982   3.222  -7.497  0.00  0.00    -0.157 NA
ATOM     23  N   UNL     1      -1.408   2.963  -6.376  0.00  0.00    -0.254 N 
BRANCH  21  24
ATOM     24  C   UNL     1      -2.154   2.254  -9.805  0.00  0.00    +0.078 C 
BRANCH  24  25
ATOM     25  C   UNL     1      -3.684   2.265  -9.828  0.00  0.00    +0.011 C 
BRANCH  25  26
ATOM     26  C   UNL     1      -4.173   2.204 -11.277  0.00  0.00    -0.011 C 
ATOM     27  C   UNL     1      -3.812   3.512 -12.011  0.00  0.00    +0.003 C 
ATOM     28  C   UNL     1      -5.025   3.773 -12.939  0.00  0.00    +0.000 C 
ATOM     29  C   UNL     1      -6.225   3.331 -12.065  0.00  0.00    +0.000 C 
ATOM     30  C   UNL     1      -5.707   2.089 -11.311  0.00  0.00    +0.003 C 
ENDBRANCH  25  26
ENDBRANCH  24  25
ENDBRANCH  21  24
ENDBRANCH  17  18
ENDBRANCH  16  17
ENDBRANCH   9  16
TORSDOF 7
