REMARK  Name = ZINC33026995
REMARK  12 active torsions:
REMARK  status: ('A' for Active; 'I' for Inactive)
REMARK    1  A    between atoms: C_1  and  C_2
REMARK    2  A    between atoms: C_2  and  C_3
REMARK    3  A    between atoms: C_3  and  C_5
REMARK    4  A    between atoms: C_3  and  N_6
REMARK    5  A    between atoms: N_6  and  C_7
REMARK    6  A    between atoms: C_8  and  C_27
REMARK    7  A    between atoms: C_10  and  C_12
REMARK    8  A    between atoms: C_15  and  C_17
REMARK    9  A    between atoms: C_17  and  O_18
REMARK   10  A    between atoms: O_18  and  C_19
REMARK   11  A    between atoms: C_22  and  C_26
REMARK   12  A    between atoms: C_23  and  C_25
REMARK                            x       y       z     vdW  Elec       q    Type
REMARK                         _______ _______ _______ _____ _____    ______ ____
ROOT
ATOM      1  C   UNL     1       3.352   2.660   0.699  0.00  0.00    +0.190 A 
ATOM      2  C   UNL     1       3.380   2.683  -0.664  0.00  0.00    +0.055 A 
ATOM      3  C   UNL     1       2.125   2.219  -1.102  0.00  0.00    +0.049 A 
ATOM      4  C   UNL     1       1.397   1.946  -0.001  0.00  0.00    +0.143 A 
ATOM      5  O   UNL     1       2.141   2.211   1.085  0.00  0.00    -0.451 OA
ENDROOT
BRANCH   1   9
ATOM      6  C   UNL     1       5.593   3.459   3.407  0.00  0.00    +0.225 A 
ATOM      7  C   UNL     1       6.375   3.758   2.301  0.00  0.00    +0.201 A 
ATOM      8  N   UNL     1       5.623   3.491   1.200  0.00  0.00    -0.194 NA
ATOM      9  C   UNL     1       4.450   3.056   1.591  0.00  0.00    +0.266 A 
ATOM     10  O   UNL     1       4.406   3.033   2.938  0.00  0.00    -0.418 OA
BRANCH   6  11
ATOM     11  N   UNL     1       5.959   3.582   4.729  0.00  0.00    -0.310 N 
ATOM     12  H   UNL     1       6.962   3.949   4.991  0.00  0.00    +0.149 HD
BRANCH  11  13
ATOM     13  C   UNL     1       5.011   3.223   5.787  0.00  0.00    +0.070 C 
ATOM     14  C   UNL     1       4.099   4.415   6.082  0.00  0.00    +0.028 C 
BRANCH  13  16
ATOM     15  C   UNL     1       6.598   1.577   6.796  0.00  0.00    +0.005 C 
ATOM     16  C   UNL     1       5.781   2.845   7.055  0.00  0.00    +0.018 C 
ENDBRANCH  13  16
ENDBRANCH  11  13
ENDBRANCH   6  11
BRANCH   7  17
ATOM     17  C   UNL     1       7.719   4.253   2.316  0.00  0.00    +0.124 C 
ATOM     18  N   UNL     1       8.785   4.645   2.328  0.00  0.00    -0.189 NA
ENDBRANCH   7  17
ENDBRANCH   1   9
BRANCH   4  19
ATOM     19  C   UNL     1      -0.017   1.425   0.010  0.00  0.00    +0.303 C 
BRANCH  19  20
ATOM     20  O   UNL     1       0.002  -0.004   0.002  0.00  0.00    -0.484 OA
BRANCH  20  21
ATOM     21  C   UNL     1      -1.200  -0.637   0.010  0.00  0.00    +0.121 A 
ATOM     22  C   UNL     1      -2.375   0.101   0.031  0.00  0.00    +0.046 A 
ATOM     23  C   UNL     1      -3.595  -0.545   0.034  0.00  0.00    +0.007 A 
ATOM     24  C   UNL     1      -3.648  -1.927   0.026  0.00  0.00    -0.047 A 
ATOM     25  C   UNL     1      -2.479  -2.665   0.011  0.00  0.00    -0.044 A 
ATOM     26  C   UNL     1      -1.255  -2.023   0.003  0.00  0.00    +0.049 A 
ATOM     27  C   UNL     1      -2.540  -4.171   0.003  0.00  0.00    +0.044 C 
ATOM     28  C   UNL     1      -4.981  -2.629   0.035  0.00  0.00    +0.044 C 
ENDBRANCH  20  21
ENDBRANCH  19  20
ENDBRANCH   4  19
TORSDOF 8
