REMARK  Name = ZINC41089692
REMARK  7 active torsions:
REMARK  status: ('A' for Active; 'I' for Inactive)
REMARK    1  A    between atoms: C_1  and  C_2
REMARK    2  A    between atoms: C_6  and  C_12
REMARK    3  A    between atoms: C_12  and  S_13
REMARK    4  A    between atoms: S_13  and  C_14
REMARK    5  A    between atoms: C_19  and  N_20
REMARK    6  A    between atoms: N_23  and  C_24
REMARK    7  A    between atoms: C_29  and  C_30
REMARK                            x       y       z     vdW  Elec       q    Type
REMARK                         _______ _______ _______ _____ _____    ______ ____
ROOT
ATOM      1  C   UNL     1      -3.067  -7.556   1.456  0.00  0.00    +0.029 A 
ATOM      2  C   UNL     1      -3.108  -8.214   0.234  0.00  0.00    +0.016 A 
ATOM      3  C   UNL     1      -3.804  -9.402   0.113  0.00  0.00    +0.001 A 
ATOM      4  C   UNL     1      -4.460  -9.939   1.206  0.00  0.00    +0.002 A 
ATOM      5  C   UNL     1      -4.424  -9.290   2.426  0.00  0.00    +0.024 A 
ATOM      6  C   UNL     1      -3.724  -8.101   2.559  0.00  0.00    +0.048 A 
ENDROOT
BRANCH   6   7
ATOM      7  N   UNL     1      -3.682  -7.444   3.797  0.00  0.00    -0.268 N 
ATOM      8  C   UNL     1      -3.859  -8.143   4.936  0.00  0.00    +0.308 C 
ATOM      9  O   UNL     1      -3.951  -9.355   4.898  0.00  0.00    -0.252 OA
ATOM     10  N   UNL     1      -3.933  -7.498   6.117  0.00  0.00    -0.269 N 
ATOM     11  H   UNL     1      -3.526  -6.488   3.834  0.00  0.00    +0.156 HD
ATOM     12  H   UNL     1      -3.927  -6.528   6.142  0.00  0.00    +0.156 HD
BRANCH  10  13
ATOM     13  C   UNL     1      -4.017  -8.227   7.309  0.00  0.00    +0.039 A 
ATOM     14  C   UNL     1      -4.716  -9.427   7.342  0.00  0.00    +0.024 A 
ATOM     15  C   UNL     1      -4.797 -10.145   8.519  0.00  0.00    +0.003 A 
ATOM     16  C   UNL     1      -4.184  -9.671   9.664  0.00  0.00    +0.020 A 
ATOM     17  C   UNL     1      -3.487  -8.476   9.635  0.00  0.00    +0.046 A 
ATOM     18  C   UNL     1      -3.397  -7.756   8.458  0.00  0.00    -0.011 A 
ATOM     19  C   UNL     1      -2.633  -6.457   8.425  0.00  0.00    +0.047 C 
ATOM     20 CL   UNL     1      -2.720  -7.883  11.075  0.00  0.00    -0.083 Cl
ENDBRANCH  10  13
ENDBRANCH   6   7
BRANCH   1  21
ATOM     21  S   UNL     1      -2.182  -6.040   1.614  0.00  0.00    -0.117 S 
BRANCH  21  22
ATOM     22  C   UNL     1      -1.516  -5.746  -0.047  0.00  0.00    +0.130 C 
BRANCH  22  28
ATOM     23  C   UNL     1      -0.033   1.493  -0.020  0.00  0.00    +0.089 C 
ATOM     24  C   UNL     1      -0.020  -0.014  -0.031  0.00  0.00    +0.134 A 
ATOM     25  C   UNL     1      -1.110  -0.803  -0.019  0.00  0.00    +0.093 A 
ATOM     26  C   UNL     1      -0.685  -2.150  -0.035  0.00  0.00    +0.177 A 
ATOM     27  N   UNL     1      -1.356  -3.297  -0.032  0.00  0.00    -0.230 NA
ATOM     28  C   UNL     1      -0.726  -4.463  -0.051  0.00  0.00    +0.059 A 
ATOM     29  C   UNL     1       0.653  -4.502  -0.074  0.00  0.00    +0.097 A 
ATOM     30  C   UNL     1       1.364  -3.293  -0.077  0.00  0.00    +0.287 A 
ATOM     31  O   UNL     1       2.585  -3.290  -0.098  0.00  0.00    -0.265 OA
ATOM     32  N   UNL     1       0.675  -2.135  -0.057  0.00  0.00    -0.119 N 
ATOM     33  O   UNL     1       1.080  -0.779  -0.060  0.00  0.00    -0.373 OA
ENDBRANCH  22  28
ENDBRANCH  21  22
ENDBRANCH   1  21
TORSDOF 5
