REMARK  Name = ZINC32961405
REMARK  7 active torsions:
REMARK  status: ('A' for Active; 'I' for Inactive)
REMARK    1  A    between atoms: C_1  and  C_2
REMARK    2  A    between atoms: C_6  and  N_8
REMARK    3  A    between atoms: C_13  and  C_15
REMARK    4  A    between atoms: C_16  and  C_18
REMARK    5  A    between atoms: C_18  and  C_19
REMARK    6  A    between atoms: C_19  and  C_24
REMARK    7  A    between atoms: C_24  and  C_25
REMARK                            x       y       z     vdW  Elec       q    Type
REMARK                         _______ _______ _______ _____ _____    ______ ____
ROOT
ATOM      1  C   UNL     1       1.418  -5.043   8.068  0.00  0.00    -0.014 C 
ATOM      2  C   UNL     1       0.149  -5.919   8.114  0.00  0.00    +0.008 C 
ATOM      3  C   UNL     1      -0.099  -6.150   9.626  0.00  0.00    +0.001 C 
ATOM      4  C   UNL     1       0.284  -4.784  10.247  0.00  0.00    +0.001 C 
ATOM      5  C   UNL     1       1.504  -4.322   9.424  0.00  0.00    +0.008 C 
ENDROOT
BRANCH   1   6
ATOM      6  C   UNL     1       1.309  -4.020   6.936  0.00  0.00    +0.103 C 
BRANCH   6  14
ATOM      7  N   UNL     1      -0.105  -2.557   2.518  0.00  0.00    -0.324 N 
ATOM      8  C   UNL     1       0.186  -1.885   3.792  0.00  0.00    +0.124 C 
ATOM      9  C   UNL     1       1.366  -2.598   4.465  0.00  0.00    +0.126 C 
ATOM     10  N   UNL     1       1.099  -4.043   4.471  0.00  0.00    -0.298 N 
ATOM     11  C   UNL     1       0.809  -4.715   3.197  0.00  0.00    +0.130 C 
ATOM     12  C   UNL     1      -0.377  -4.002   2.526  0.00  0.00    +0.088 C 
ATOM     13  C   UNL     1      -1.660  -4.279   3.312  0.00  0.00    +0.029 C 
ATOM     14  C   UNL     1       1.122  -4.740   5.625  0.00  0.00    +0.216 C 
ATOM     15  O   UNL     1       0.992  -5.945   5.608  0.00  0.00    -0.276 OA
BRANCH   7  21
ATOM     16  C   UNL     1      -0.488  -2.499  -2.381  0.00  0.00    +0.044 C 
ATOM     17  C   UNL     1      -0.312  -1.782  -1.067  0.00  0.00    -0.049 A 
ATOM     18  C   UNL     1      -0.174  -0.406  -1.046  0.00  0.00    +0.003 A 
ATOM     19  C   UNL     1      -0.012   0.257   0.157  0.00  0.00    +0.002 A 
ATOM     20  C   UNL     1       0.012  -0.454   1.341  0.00  0.00    +0.023 A 
ATOM     21  C   UNL     1      -0.128  -1.835   1.323  0.00  0.00    +0.030 A 
ATOM     22  C   UNL     1      -0.296  -2.498   0.113  0.00  0.00    +0.026 A 
ENDBRANCH   7  21
ENDBRANCH   6  14
ENDBRANCH   1   6
BRANCH   1  23
ATOM     23  C   UNL     1       2.654  -5.921   7.862  0.00  0.00    +0.080 C 
BRANCH  23  24
ATOM     24  C   UNL     1       3.894  -5.066   7.924  0.00  0.00    +0.122 C 
ATOM     25  N   UNL     1       5.074  -5.670   7.641  0.00  0.00    -0.300 N 
ATOM     26  C   UNL     1       6.321  -5.178   8.016  0.00  0.00    +0.059 A 
ATOM     27  C   UNL     1       7.433  -6.012   8.039  0.00  0.00    +0.025 A 
ATOM     28  C   UNL     1       8.664  -5.508   8.410  0.00  0.00    +0.002 A 
ATOM     29  C   UNL     1       8.796  -4.177   8.761  0.00  0.00    +0.002 A 
ATOM     30  C   UNL     1       7.693  -3.342   8.741  0.00  0.00    +0.031 A 
ATOM     31  C   UNL     1       6.464  -3.841   8.371  0.00  0.00    +0.134 A 
ATOM     32  S   UNL     1       5.036  -2.807   8.342  0.00  0.00    +0.102 S 
ATOM     33  O   UNL     1       5.081  -2.078   7.123  0.00  0.00    -0.146 OA
ATOM     34  O   UNL     1       4.961  -2.173   9.611  0.00  0.00    -0.146 OA
ATOM     35  N   UNL     1       3.736  -3.832   8.234  0.00  0.00    -0.118 NA
ATOM     36  H   UNL     1       5.048  -6.502   7.143  0.00  0.00    +0.153 HD
ENDBRANCH  23  24
ENDBRANCH   1  23
TORSDOF 5
