REMARK  Name = ZINC08700768
REMARK  8 active torsions:
REMARK  status: ('A' for Active; 'I' for Inactive)
REMARK    1  A    between atoms: C_1  and  C_2
REMARK    2  A    between atoms: C_2  and  O_3
REMARK    3  A    between atoms: O_3  and  C_4
REMARK    4  A    between atoms: C_7  and  N_10
REMARK    5  A    between atoms: N_12  and  C_27
REMARK    6  A    between atoms: C_30  and  O_33
REMARK    7  A    between atoms: O_33  and  C_34
REMARK    8  A    between atoms: C_34  and  C_35
REMARK                            x       y       z     vdW  Elec       q    Type
REMARK                         _______ _______ _______ _____ _____    ______ ____
ROOT
ATOM      1  N   UNL     1      -5.901  -0.084  -1.053  0.00  0.00    -0.225 NA
ATOM      2  C   UNL     1      -4.904   0.573  -0.510  0.00  0.00    +0.173 C 
ATOM      3  N   UNL     1      -4.926   1.807   0.108  0.00  0.00    -0.214 N 
ATOM      4  C   UNL     1      -3.820   2.328   0.612  0.00  0.00    +0.264 C 
ATOM      5  O   UNL     1      -3.820   3.411   1.165  0.00  0.00    -0.269 OA
ATOM      6  C   UNL     1      -2.577   1.528   0.466  0.00  0.00    +0.091 C 
ATOM      7  C   UNL     1      -1.291   1.818   0.887  0.00  0.00    +0.065 C 
ATOM      8  C   UNL     1      -0.795   3.092   1.449  0.00  0.00    +0.010 A 
ATOM      9  C   UNL     1      -1.401   4.316   1.718  0.00  0.00    +0.010 A 
ATOM     10  C   UNL     1      -0.655   5.346   2.252  0.00  0.00    +0.001 A 
ATOM     11  C   UNL     1       0.692   5.162   2.518  0.00  0.00    +0.002 A 
ATOM     12  C   UNL     1       1.303   3.953   2.254  0.00  0.00    +0.024 A 
ATOM     13  C   UNL     1       0.568   2.902   1.717  0.00  0.00    +0.042 A 
ATOM     14  N   UNL     1       0.929   1.607   1.363  0.00  0.00    -0.281 N 
ATOM     15  C   UNL     1      -0.119   0.923   0.874  0.00  0.00    +0.250 C 
ATOM     16  O   UNL     1      -0.103  -0.230   0.485  0.00  0.00    -0.270 OA
ATOM     17  S   UNL     1      -3.191   0.085  -0.392  0.00  0.00    -0.048 S 
ATOM     18  H   UNL     1       1.824   1.244   1.457  0.00  0.00    +0.155 HD
ENDROOT
BRANCH   1  22
ATOM     19  C   UNL     1      -5.245  -3.788  -2.780  0.00  0.00    +0.121 A 
ATOM     20  C   UNL     1      -6.338  -3.598  -1.946  0.00  0.00    +0.048 A 
ATOM     21  C   UNL     1      -6.561  -2.366  -1.369  0.00  0.00    +0.031 A 
ATOM     22  C   UNL     1      -5.684  -1.308  -1.624  0.00  0.00    +0.067 A 
ATOM     23  C   UNL     1      -4.589  -1.503  -2.469  0.00  0.00    +0.031 A 
ATOM     24  C   UNL     1      -4.371  -2.740  -3.037  0.00  0.00    +0.048 A 
BRANCH  19  25
ATOM     25  O   UNL     1      -5.029  -5.005  -3.348  0.00  0.00    -0.492 OA
BRANCH  25  27
ATOM     26  C   UNL     1      -3.809  -6.560  -4.737  0.00  0.00    +0.048 C 
ATOM     27  C   UNL     1      -3.886  -5.131  -4.195  0.00  0.00    +0.225 C 
ENDBRANCH  25  27
ENDBRANCH  19  25
ENDBRANCH   1  22
BRANCH   3  28
ATOM     28  C   UNL     1      -6.133   2.512   0.206  0.00  0.00    +0.044 A 
ATOM     29  C   UNL     1      -6.960   2.325   1.307  0.00  0.00    +0.027 A 
ATOM     30  C   UNL     1      -8.146   3.023   1.405  0.00  0.00    +0.047 A 
ATOM     31  C   UNL     1      -8.518   3.905   0.401  0.00  0.00    +0.121 A 
ATOM     32  C   UNL     1      -7.696   4.089  -0.701  0.00  0.00    +0.047 A 
ATOM     33  C   UNL     1      -6.507   3.394  -0.799  0.00  0.00    +0.027 A 
BRANCH  31  34
ATOM     34  O   UNL     1      -9.690   4.589   0.497  0.00  0.00    -0.492 OA
BRANCH  34  35
ATOM     35  C   UNL     1     -10.487   4.351   1.659  0.00  0.00    +0.225 C 
ATOM     36  C   UNL     1     -11.756   5.203   1.590  0.00  0.00    +0.048 C 
ENDBRANCH  34  35
ENDBRANCH  31  34
ENDBRANCH   3  28
TORSDOF 6
