REMARK  Name = ZINC63494556
REMARK  8 active torsions:
REMARK  status: ('A' for Active; 'I' for Inactive)
REMARK    1  A    between atoms: C_1  and  C_2
REMARK    2  A    between atoms: C_11  and  C_17
REMARK    3  A    between atoms: N_19  and  C_20
REMARK    4  A    between atoms: C_20  and  C_21
REMARK    5  A    between atoms: C_21  and  O_22
REMARK    6  A    between atoms: O_22  and  C_23
REMARK    7  A    between atoms: C_27  and  C_34
REMARK    8  A    between atoms: C_30  and  C_33
REMARK                            x       y       z     vdW  Elec       q    Type
REMARK                         _______ _______ _______ _____ _____    ______ ____
ROOT
ATOM      1  C   UNL     1       1.331  -4.245   5.573  0.00  0.00    +0.230 C 
ATOM      2  O   UNL     1       2.387  -4.478   5.023  0.00  0.00    -0.274 OA
ATOM      3  N   UNL     1       1.275  -4.167   6.918  0.00  0.00    -0.312 N 
ATOM      4  H   UNL     1       0.431  -3.980   7.357  0.00  0.00    +0.149 HD
ENDROOT
BRANCH   1  15
ATOM      5  C   UNL     1      -0.018   1.503   0.010  0.00  0.00    +0.044 C 
ATOM      6  C   UNL     1       0.002  -0.004   0.002  0.00  0.00    -0.050 A 
ATOM      7  C   UNL     1       0.006  -0.686  -1.211  0.00  0.00    +0.005 A 
ATOM      8  C   UNL     1       0.024  -2.048  -1.249  0.00  0.00    +0.024 A 
ATOM      9  C   UNL     1       0.040  -2.785  -0.054  0.00  0.00    +0.042 A 
ATOM     10  N   UNL     1       0.059  -4.124  -0.092  0.00  0.00    -0.281 N 
ATOM     11  C   UNL     1       0.074  -4.891   0.979  0.00  0.00    +0.249 C 
ATOM     12  O   UNL     1       0.090  -6.106   0.855  0.00  0.00    -0.270 OA
ATOM     13  C   UNL     1       0.073  -4.284   2.349  0.00  0.00    +0.049 C 
ATOM     14  C   UNL     1       0.088  -4.932   3.530  0.00  0.00    +0.011 C 
ATOM     15  C   UNL     1       0.083  -4.043   4.754  0.00  0.00    +0.160 C 
ATOM     16  S   UNL     1       0.056  -2.372   3.995  0.00  0.00    -0.107 S 
ATOM     17  C   UNL     1       0.053  -2.814   2.384  0.00  0.00    +0.030 C 
ATOM     18  C   UNL     1       0.037  -2.088   1.181  0.00  0.00    +0.011 A 
ATOM     19  C   UNL     1       0.022  -0.685   1.183  0.00  0.00    +0.014 A 
ATOM     20  H   UNL     1       0.060  -4.555  -0.961  0.00  0.00    +0.155 HD
ENDBRANCH   1  15
BRANCH   3  21
ATOM     21  C   UNL     1       2.489  -4.363   7.714  0.00  0.00    +0.132 C 
BRANCH  21  22
ATOM     22  C   UNL     1       2.151  -4.222   9.200  0.00  0.00    +0.179 C 
BRANCH  22  23
ATOM     23  O   UNL     1       1.269  -5.276   9.590  0.00  0.00    -0.372 OA
BRANCH  23  24
ATOM     24  C   UNL     1       0.890  -5.238  10.967  0.00  0.00    +0.071 C 
ATOM     25  C   UNL     1       0.175  -3.918  11.262  0.00  0.00    +0.038 C 
ATOM     26  C   UNL     1      -0.231  -3.876  12.737  0.00  0.00    -0.007 C 
ATOM     27  C   UNL     1      -1.172  -5.045  13.040  0.00  0.00    +0.010 C 
ATOM     28  C   UNL     1      -0.457  -6.364  12.745  0.00  0.00    -0.029 C 
ATOM     29  C   UNL     1      -0.051  -6.406  11.270  0.00  0.00    +0.041 C 
ATOM     30  C   UNL     1       0.793  -6.475  13.621  0.00  0.00    +0.013 C 
ATOM     31  C   UNL     1       1.733  -5.306  13.318  0.00  0.00    -0.029 C 
ATOM     32  C   UNL     1       1.018  -3.986  13.613  0.00  0.00    +0.010 C 
ATOM     33  C   UNL     1       2.139  -5.348  11.843  0.00  0.00    +0.041 C 
ATOM     34  C   UNL     1       2.983  -5.417  14.194  0.00  0.00    +0.011 C 
ATOM     35  C   UNL     1      -1.397  -7.533  13.048  0.00  0.00    +0.011 C 
ENDBRANCH  23  24
ENDBRANCH  22  23
ENDBRANCH  21  22
ENDBRANCH   3  21
TORSDOF 5
