REMARK  Name = ZINC35452555
REMARK  10 active torsions:
REMARK  status: ('A' for Active; 'I' for Inactive)
REMARK    1  A    between atoms: C_1  and  C_2
REMARK    2  A    between atoms: C_2  and  C_3
REMARK    3  A    between atoms: C_8  and  N_9
REMARK    4  A    between atoms: C_10  and  C_12
REMARK    5  A    between atoms: C_12  and  N_13
REMARK    6  A    between atoms: N_13  and  C_14
REMARK    7  A    between atoms: N_13  and  S_15
REMARK    8  A    between atoms: S_15  and  C_18
REMARK    9  A    between atoms: C_23  and  C_24
REMARK   10  A    between atoms: C_28  and  C_31
REMARK                            x       y       z     vdW  Elec       q    Type
REMARK                         _______ _______ _______ _____ _____    ______ ____
ROOT
ATOM      1  S   UNL     1      -2.059  -1.810  -7.040  0.00  0.00    +0.061 S 
ATOM      2  O   UNL     1      -2.611  -1.538  -8.322  0.00  0.00    -0.153 OA
ATOM      3  O   UNL     1      -0.763  -2.367  -6.872  0.00  0.00    -0.153 OA
ENDROOT
BRANCH   1   4
ATOM      4  C   UNL     1      -3.184  -2.896  -6.228  0.00  0.00    +0.112 A 
ATOM      5  C   UNL     1      -2.735  -3.716  -5.208  0.00  0.00    +0.076 A 
ATOM      6  C   UNL     1      -3.618  -4.569  -4.570  0.00  0.00    +0.145 A 
ATOM      7  C   UNL     1      -4.957  -4.599  -4.957  0.00  0.00    +0.076 A 
ATOM      8  C   UNL     1      -5.401  -3.775  -5.978  0.00  0.00    +0.032 A 
ATOM      9  C   UNL     1      -4.513  -2.922  -6.608  0.00  0.00    -0.022 A 
ATOM     10  C   UNL     1      -4.995  -2.020  -7.716  0.00  0.00    +0.046 C 
ATOM     11  N   UNL     1      -5.841  -5.469  -4.303  0.00  0.00    -0.280 N 
ATOM     12  C   UNL     1      -5.467  -6.018  -3.127  0.00  0.00    +0.258 C 
ATOM     13  O   UNL     1      -6.202  -6.798  -2.558  0.00  0.00    -0.271 OA
ATOM     14  C   UNL     1      -4.133  -5.659  -2.524  0.00  0.00    +0.256 C 
ATOM     15  O   UNL     1      -3.194  -5.381  -3.566  0.00  0.00    -0.478 OA
ATOM     16  C   UNL     1      -3.625  -6.829  -1.679  0.00  0.00    +0.062 C 
ATOM     17  H   UNL     1      -6.707  -5.673  -4.689  0.00  0.00    +0.155 HD
ENDBRANCH   1   4
BRANCH   1  18
ATOM     18  N   UNL     1      -2.072  -0.379  -6.207  0.00  0.00    -0.171 NA
ATOM     19  C   UNL     1      -3.089   0.632  -6.503  0.00  0.00    +0.132 C 
BRANCH  18  20
ATOM     20  C   UNL     1      -1.066  -0.125  -5.172  0.00  0.00    +0.205 C 
BRANCH  20  22
ATOM     21  N   UNL     1      -0.944  -0.150  -2.702  0.00  0.00    -0.284 N 
ATOM     22  C   UNL     1      -1.657  -0.409  -3.816  0.00  0.00    +0.233 C 
ATOM     23  O   UNL     1      -2.775  -0.871  -3.726  0.00  0.00    -0.274 OA
ATOM     24  H   UNL     1      -0.079   0.284  -2.770  0.00  0.00    +0.155 HD
BRANCH  21  30
ATOM     25  C   UNL     1      -0.590  -0.924  -0.442  0.00  0.00    -0.026 A 
ATOM     26  C   UNL     1      -1.093  -1.270   0.797  0.00  0.00    +0.005 A 
ATOM     27  C   UNL     1      -2.453  -1.206   1.035  0.00  0.00    +0.000 A 
ATOM     28  C   UNL     1      -3.315  -0.795   0.034  0.00  0.00    +0.002 A 
ATOM     29  C   UNL     1      -2.818  -0.448  -1.207  0.00  0.00    +0.023 A 
ATOM     30  C   UNL     1      -1.451  -0.506  -1.447  0.00  0.00    +0.037 A 
BRANCH  25  32
ATOM     31  C   UNL     1       1.518   0.382  -0.461  0.00  0.00    +0.009 C 
ATOM     32  C   UNL     1       0.893  -0.994  -0.700  0.00  0.00    +0.033 C 
ENDBRANCH  25  32
ENDBRANCH  21  30
ENDBRANCH  20  22
ENDBRANCH  18  20
ENDBRANCH   1  18
TORSDOF 6
