REMARK  Name = ZINC63550516
REMARK  10 active torsions:
REMARK  status: ('A' for Active; 'I' for Inactive)
REMARK    1  A    between atoms: C_1  and  C_2
REMARK    2  A    between atoms: C_7  and  C_8
REMARK    3  A    between atoms: C_10  and  C_13
REMARK    4  A    between atoms: C_13  and  N_14
REMARK    5  A    between atoms: N_14  and  C_15
REMARK    6  A    between atoms: C_15  and  C_16
REMARK    7  A    between atoms: C_15  and  C_22
REMARK    8  A    between atoms: C_22  and  C_23
REMARK    9  A    between atoms: C_22  and  C_24
REMARK   10  A    between atoms: C_22  and  C_25
REMARK                            x       y       z     vdW  Elec       q    Type
REMARK                         _______ _______ _______ _____ _____    ______ ____
ROOT
ATOM      1  N   UNL     1       1.632   0.005   6.675  0.00  0.00    +0.390 N 
ATOM      2  H   UNL     1       2.140   0.800   6.317  0.00  0.00    -0.084 HD
ATOM      3  H   UNL     1       0.653   0.102   6.448  0.00  0.00    -0.084 HD
ENDROOT
BRANCH   1   4
ATOM      4  C   UNL     1       2.157  -1.225   6.068  0.00  0.00    +0.019 C 
BRANCH   4   7
ATOM      5  C   UNL     1       2.633  -0.684   2.511  0.00  0.00    +0.202 A 
ATOM      6  N   UNL     1       3.026  -0.636   3.797  0.00  0.00    -0.193 NA
ATOM      7  C   UNL     1       2.090  -1.112   4.567  0.00  0.00    +0.211 A 
ATOM      8  O   UNL     1       1.057  -1.486   3.799  0.00  0.00    -0.340 OA
ATOM      9  N   UNL     1       1.427  -1.193   2.460  0.00  0.00    -0.056 NA
BRANCH   5  16
ATOM     10  C   UNL     1       3.978   1.875   2.603  0.00  0.00    +0.044 C 
ATOM     11  C   UNL     1       4.083   1.001   1.380  0.00  0.00    -0.040 A 
ATOM     12  C   UNL     1       4.829   1.416   0.295  0.00  0.00    +0.004 A 
ATOM     13  C   UNL     1       4.925   0.614  -0.828  0.00  0.00    +0.000 A 
ATOM     14  C   UNL     1       4.275  -0.607  -0.871  0.00  0.00    +0.001 A 
ATOM     15  C   UNL     1       3.527  -1.031   0.208  0.00  0.00    +0.012 A 
ATOM     16  C   UNL     1       3.431  -0.230   1.345  0.00  0.00    +0.025 A 
ENDBRANCH   5  16
ENDBRANCH   4   7
ENDBRANCH   1   4
BRANCH   1  17
ATOM     17  C   UNL     1       1.792  -0.061   8.134  0.00  0.00    -0.035 C 
BRANCH  17  18
ATOM     18  C   UNL     1       3.259  -0.069   8.479  0.00  0.00    -0.061 A 
ATOM     19  C   UNL     1       4.136   0.743   7.785  0.00  0.00    +0.002 A 
ATOM     20  C   UNL     1       5.481   0.736   8.101  0.00  0.00    +0.000 A 
ATOM     21  C   UNL     1       5.950  -0.083   9.112  0.00  0.00    +0.000 A 
ATOM     22  C   UNL     1       5.072  -0.894   9.806  0.00  0.00    +0.000 A 
ATOM     23  C   UNL     1       3.726  -0.884   9.493  0.00  0.00    +0.002 A 
ENDBRANCH  17  18
BRANCH  17  24
ATOM     24  C   UNL     1       1.123   1.155   8.777  0.00  0.00    -0.046 C 
ATOM     25  C   UNL     1      -0.388   1.091   8.542  0.00  0.00    +0.009 C 
ATOM     26  C   UNL     1       1.405   1.157  10.280  0.00  0.00    +0.009 C 
ATOM     27  C   UNL     1       1.682   2.434   8.151  0.00  0.00    +0.009 C 
ENDBRANCH  17  24
ENDBRANCH   1  17
TORSDOF 6
