REMARK  Name = ZINC38564980
REMARK  8 active torsions:
REMARK  status: ('A' for Active; 'I' for Inactive)
REMARK    1  A    between atoms: C_1  and  C_2
REMARK    2  A    between atoms: C_5  and  C_8
REMARK    3  A    between atoms: C_10  and  C_22
REMARK    4  A    between atoms: N_24  and  C_25
REMARK    5  A    between atoms: C_25  and  C_26
REMARK    6  A    between atoms: C_26  and  C_27
REMARK    7  A    between atoms: C_27  and  C_28
REMARK    8  A    between atoms: C_27  and  C_29
REMARK                            x       y       z     vdW  Elec       q    Type
REMARK                         _______ _______ _______ _____ _____    ______ ____
ROOT
ATOM      1  C   UNL     1       0.059  -4.243  -0.021  0.00  0.00    +0.076 C 
ATOM      2  N   UNL     1      -0.031  -4.903  -1.153  0.00  0.00    -0.244 NA
ATOM      3  C   UNL     1      -0.163  -6.235  -1.244  0.00  0.00    +0.126 C 
ATOM      4  C   UNL     1      -0.507  -7.008  -0.133  0.00  0.00    +0.039 C 
ATOM      5  C   UNL     1      -0.500  -6.351   1.090  0.00  0.00    -0.008 C 
ATOM      6  C   UNL     1      -1.052  -6.605   2.317  0.00  0.00    +0.004 A 
ATOM      7  C   UNL     1      -1.629  -7.770   2.874  0.00  0.00    +0.010 A 
ATOM      8  C   UNL     1      -2.139  -7.663   4.134  0.00  0.00    +0.001 A 
ATOM      9  C   UNL     1      -2.116  -6.480   4.875  0.00  0.00    +0.002 A 
ATOM     10  C   UNL     1      -1.562  -5.322   4.422  0.00  0.00    +0.026 A 
ATOM     11  C   UNL     1      -0.985  -5.352   3.121  0.00  0.00    +0.044 A 
ATOM     12  N   UNL     1      -0.339  -4.417   2.468  0.00  0.00    -0.372 N 
ATOM     13  C   UNL     1       0.187  -5.002   1.252  0.00  0.00    +0.160 C 
ATOM     14  H   UNL     1      -0.230  -3.496   2.750  0.00  0.00    +0.161 HD
ENDROOT
BRANCH   1  19
ATOM     15  C   UNL     1      -0.018   1.503   0.011  0.00  0.00    +0.044 C 
ATOM     16  C   UNL     1       0.002  -0.004   0.003  0.00  0.00    -0.050 A 
ATOM     17  C   UNL     1      -0.604  -0.695  -1.033  0.00  0.00    +0.004 A 
ATOM     18  C   UNL     1      -0.590  -2.073  -1.049  0.00  0.00    +0.010 A 
ATOM     19  C   UNL     1       0.040  -2.774  -0.013  0.00  0.00    -0.001 A 
ATOM     20  C   UNL     1       0.651  -2.068   1.030  0.00  0.00    +0.010 A 
ATOM     21  C   UNL     1       0.632  -0.690   1.027  0.00  0.00    +0.004 A 
ENDBRANCH   1  19
BRANCH   3  22
ATOM     22  C   UNL     1       0.060  -6.899  -2.548  0.00  0.00    +0.262 C 
ATOM     23  O   UNL     1      -0.056  -8.105  -2.644  0.00  0.00    -0.269 OA
ATOM     24  N   UNL     1       0.392  -6.166  -3.629  0.00  0.00    -0.310 N 
ATOM     25  H   UNL     1       0.485  -5.203  -3.553  0.00  0.00    +0.149 HD
BRANCH  24  26
ATOM     26  C   UNL     1       0.613  -6.823  -4.920  0.00  0.00    +0.105 C 
BRANCH  26  27
ATOM     27  C   UNL     1       0.975  -5.772  -5.971  0.00  0.00    +0.022 C 
BRANCH  27  28
ATOM     28  C   UNL     1       1.206  -6.458  -7.319  0.00  0.00    -0.016 C 
ATOM     29  C   UNL     1       1.445  -5.399  -8.397  0.00  0.00    +0.007 C 
ATOM     30  C   UNL     1       2.429  -7.373  -7.223  0.00  0.00    +0.007 C 
ENDBRANCH  27  28
ENDBRANCH  26  27
ENDBRANCH  24  26
ENDBRANCH   3  22
TORSDOF 5
