REMARK  Name = ZINC42667150
REMARK  7 active torsions:
REMARK  status: ('A' for Active; 'I' for Inactive)
REMARK    1  A    between atoms: C_1  and  C_2
REMARK    2  A    between atoms: C_2  and  C_4
REMARK    3  A    between atoms: C_2  and  N_14
REMARK    4  A    between atoms: N_6  and  C_7
REMARK    5  A    between atoms: N_14  and  C_15
REMARK    6  A    between atoms: C_18  and  N_21
REMARK    7  A    between atoms: N_24  and  C_25
REMARK                            x       y       z     vdW  Elec       q    Type
REMARK                         _______ _______ _______ _____ _____    ______ ____
ROOT
ATOM      1  N   UNL     1      -0.144  -0.662   1.484  0.00  0.00    -0.333 N 
ATOM      2  H   UNL     1       0.774  -0.843   1.232  0.00  0.00    +0.147 HD
ENDROOT
BRANCH   1   3
ATOM      3  C   UNL     1      -0.544  -0.801   2.818  0.00  0.00    +0.028 A 
ATOM      4  C   UNL     1      -1.861  -0.547   3.178  0.00  0.00    +0.025 A 
ATOM      5  C   UNL     1      -2.255  -0.685   4.495  0.00  0.00    +0.025 A 
ATOM      6  C   UNL     1      -1.335  -1.078   5.457  0.00  0.00    +0.035 A 
ATOM      7  C   UNL     1      -0.018  -1.332   5.097  0.00  0.00    +0.025 A 
ATOM      8  C   UNL     1       0.375  -1.200   3.780  0.00  0.00    +0.025 A 
BRANCH   6   9
ATOM      9  N   UNL     1      -1.735  -1.217   6.794  0.00  0.00    -0.269 N 
ATOM     10  C   UNL     1      -2.971  -1.670   7.083  0.00  0.00    +0.304 C 
ATOM     11  O   UNL     1      -3.768  -1.877   6.188  0.00  0.00    -0.253 OA
ATOM     12  N   UNL     1      -3.324  -1.893   8.364  0.00  0.00    -0.296 N 
ATOM     13  H   UNL     1      -1.122  -0.988   7.510  0.00  0.00    +0.156 HD
ATOM     14  H   UNL     1      -2.689  -1.727   9.079  0.00  0.00    +0.151 HD
BRANCH  12  15
ATOM     15  C   UNL     1      -4.668  -2.385   8.679  0.00  0.00    +0.075 C 
ATOM     16  C   UNL     1      -5.399  -1.737   9.856  0.00  0.00    +0.024 C 
ATOM     17  C   UNL     1      -4.848  -3.158   9.987  0.00  0.00    +0.024 C 
ENDBRANCH  12  15
ENDBRANCH   6   9
ENDBRANCH   1   3
BRANCH   1  19
ATOM     18  C   UNL     1      -1.201   1.286   0.450  0.00  0.00    +0.038 C 
ATOM     19  C   UNL     1      -1.114  -0.241   0.469  0.00  0.00    +0.154 C 
BRANCH  19  20
ATOM     20  C   UNL     1      -0.671  -0.736  -0.884  0.00  0.00    +0.237 C 
ATOM     21  O   UNL     1       0.353  -1.377  -0.990  0.00  0.00    -0.273 OA
ATOM     22  N   UNL     1      -1.413  -0.467  -1.976  0.00  0.00    -0.284 N 
ATOM     23  H   UNL     1      -2.266  -0.013  -1.883  0.00  0.00    +0.155 HD
BRANCH  22  24
ATOM     24  C   UNL     1      -0.955  -0.842  -3.244  0.00  0.00    +0.034 A 
ATOM     25  C   UNL     1      -1.216  -0.036  -4.344  0.00  0.00    +0.025 A 
ATOM     26  C   UNL     1      -0.762  -0.409  -5.595  0.00  0.00    +0.022 A 
ATOM     27  C   UNL     1      -0.048  -1.583  -5.751  0.00  0.00    +0.041 A 
ATOM     28  C   UNL     1       0.214  -2.388  -4.656  0.00  0.00    +0.022 A 
ATOM     29  C   UNL     1      -0.233  -2.017  -3.403  0.00  0.00    +0.025 A 
ATOM     30 CL   UNL     1       0.520  -2.049  -7.324  0.00  0.00    -0.084 Cl
ENDBRANCH  22  24
ENDBRANCH  19  20
ENDBRANCH   1  19
TORSDOF 6
