REMARK  Name = ZINC04399832
REMARK  7 active torsions:
REMARK  status: ('A' for Active; 'I' for Inactive)
REMARK    1  A    between atoms: C_1  and  C_2
REMARK    2  A    between atoms: C_2  and  C_3
REMARK    3  A    between atoms: C_3  and  C_5
REMARK    4  A    between atoms: C_3  and  N_6
REMARK    5  A    between atoms: C_7  and  C_9
REMARK    6  A    between atoms: C_15  and  C_24
REMARK    7  A    between atoms: C_18  and  C_20
REMARK                            x       y       z     vdW  Elec       q    Type
REMARK                         _______ _______ _______ _____ _____    ______ ____
ROOT
ATOM      1  C   UNL     1      -0.214   0.412  -4.817  0.00  0.00    +0.096 A 
ATOM      2  C   UNL     1      -1.606   0.674  -4.870  0.00  0.00    +0.149 A 
ATOM      3  N   UNL     1      -1.918   0.984  -6.099  0.00  0.00    -0.177 NA
ATOM      4  N   UNL     1      -0.769   0.942  -6.888  0.00  0.00    -0.238 N 
ATOM      5  C   UNL     1       0.275   0.595  -6.097  0.00  0.00    +0.130 A 
ATOM      6  N   UNL     1       1.567   0.465  -6.573  0.00  0.00    -0.322 N 
ATOM      7  C   UNL     1       1.723   0.445  -8.040  0.00  0.00    +0.104 C 
ATOM      8  C   UNL     1       0.824   1.533  -8.639  0.00  0.00    +0.063 C 
ATOM      9  C   UNL     1      -0.645   1.219  -8.322  0.00  0.00    +0.215 C 
ATOM     10  H   UNL     1       2.328   0.391  -5.976  0.00  0.00    +0.148 HD
ENDROOT
BRANCH   7  11
ATOM     11  C   UNL     1       1.317  -0.904  -8.574  0.00  0.00    -0.024 A 
ATOM     12  C   UNL     1       0.212  -1.549  -8.050  0.00  0.00    +0.009 A 
ATOM     13  C   UNL     1      -0.166  -2.787  -8.537  0.00  0.00    +0.050 A 
ATOM     14  C   UNL     1       0.564  -3.384  -9.552  0.00  0.00    +0.166 A 
ATOM     15  C   UNL     1       1.677  -2.735 -10.080  0.00  0.00    +0.167 A 
ATOM     16  C   UNL     1       2.046  -1.492  -9.591  0.00  0.00    +0.055 A 
ATOM     17  O   UNL     1       2.217  -3.520 -11.057  0.00  0.00    -0.453 OA
ATOM     18  C   UNL     1       1.670  -4.834 -10.841  0.00  0.00    +0.466 C 
ATOM     19  O   UNL     1       0.407  -4.577 -10.198  0.00  0.00    -0.453 OA
ENDBRANCH   7  11
BRANCH   1  21
ATOM     20  N   UNL     1      -0.055  -0.114  -2.441  0.00  0.00    -0.309 N 
ATOM     21  C   UNL     1       0.561   0.028  -3.631  0.00  0.00    +0.249 C 
ATOM     22  O   UNL     1       1.759  -0.163  -3.722  0.00  0.00    -0.270 OA
ATOM     23  H   UNL     1      -1.010   0.038  -2.368  0.00  0.00    +0.149 HD
BRANCH  20  24
ATOM     24  C   UNL     1       0.718  -0.497  -1.257  0.00  0.00    +0.070 C 
ATOM     25  C   UNL     1       0.849  -2.021  -1.205  0.00  0.00    +0.028 C 
BRANCH  24  27
ATOM     26  C   UNL     1      -0.019   1.526   0.010  0.00  0.00    +0.005 C 
ATOM     27  C   UNL     1       0.002  -0.004   0.002  0.00  0.00    +0.018 C 
ENDBRANCH  24  27
ENDBRANCH  20  24
ENDBRANCH   1  21
BRANCH   9  28
ATOM     28  C   UNL     1      -1.506   2.431  -8.686  0.00  0.00    +0.412 C 
ATOM     29  F   UNL     1      -1.075   3.545  -7.958  0.00  0.00    -0.168 F 
ATOM     30  F   UNL     1      -1.386   2.693 -10.055  0.00  0.00    -0.168 F 
ATOM     31  F   UNL     1      -2.844   2.161  -8.379  0.00  0.00    -0.168 F 
ENDBRANCH   9  28
TORSDOF 5
