REMARK  Name = ZINC16434014
REMARK  19 active torsions:
REMARK  status: ('A' for Active; 'I' for Inactive)
REMARK    1  A    between atoms: C_1  and  C_2
REMARK    2  A    between atoms: C_2  and  C_3
REMARK    3  A    between atoms: C_3  and  C_4
REMARK    4  A    between atoms: C_4  and  C_5
REMARK    5  A    between atoms: C_5  and  C_6
REMARK    6  A    between atoms: C_9  and  C_12
REMARK    7  A    between atoms: N_14  and  C_15
REMARK    8  A    between atoms: N_14  and  C_19
REMARK    9  A    between atoms: C_15  and  C_16
REMARK   10  A    between atoms: C_16  and  C_17
REMARK   11  A    between atoms: C_16  and  C_18
REMARK   12  A    between atoms: C_19  and  C_20
REMARK   13  A    between atoms: N_22  and  C_23
REMARK   14  A    between atoms: C_25  and  C_35
REMARK   15  A    between atoms: N_27  and  C_28
REMARK   16  A    between atoms: C_31  and  C_34
REMARK   17  A    between atoms: C_35  and  C_36
REMARK   18  A    between atoms: C_35  and  C_37
REMARK   19  A    between atoms: C_35  and  C_38
REMARK                            x       y       z     vdW  Elec       q    Type
REMARK                         _______ _______ _______ _____ _____    ______ ____
ROOT
ATOM      1  C   UNL     1      -0.536   3.002   0.665  0.00  0.00    +0.236 C 
ATOM      2  O   UNL     1      -1.326   2.133   0.969  0.00  0.00    -0.274 OA
ATOM      3  N   UNL     1       0.788   2.783   0.787  0.00  0.00    -0.269 N 
ATOM      4  H   UNL     1       1.419   3.476   0.539  0.00  0.00    +0.156 HD
ENDROOT
BRANCH   3   5
ATOM      5  C   UNL     1       1.250   1.556   1.264  0.00  0.00    +0.129 A 
ATOM      6  C   UNL     1       0.482   0.499   1.645  0.00  0.00    +0.069 A 
ATOM      7  C   UNL     1       1.338  -0.527   2.055  0.00  0.00    +0.071 A 
ATOM      8  N   UNL     1       2.573  -0.113   1.929  0.00  0.00    -0.169 NA
ATOM      9  N   UNL     1       2.552   1.195   1.427  0.00  0.00    -0.218 N 
BRANCH   9  10
ATOM     10  C   UNL     1       3.671   1.990   1.147  0.00  0.00    +0.067 A 
ATOM     11  C   UNL     1       3.650   2.867   0.070  0.00  0.00    +0.028 A 
ATOM     12  C   UNL     1       4.753   3.654  -0.200  0.00  0.00    +0.005 A 
ATOM     13  C   UNL     1       5.881   3.561   0.594  0.00  0.00    -0.050 A 
ATOM     14  C   UNL     1       5.908   2.684   1.663  0.00  0.00    +0.005 A 
ATOM     15  C   UNL     1       4.806   1.899   1.942  0.00  0.00    +0.028 A 
ATOM     16  C   UNL     1       7.085   4.416   0.292  0.00  0.00    +0.044 C 
ENDBRANCH   9  10
BRANCH   7  17
ATOM     17  C   UNL     1       0.910  -1.882   2.558  0.00  0.00    +0.006 C 
ATOM     18  C   UNL     1       0.440  -2.738   1.379  0.00  0.00    +0.017 C 
ATOM     19  C   UNL     1       2.093  -2.567   3.246  0.00  0.00    +0.017 C 
ATOM     20  C   UNL     1      -0.236  -1.717   3.557  0.00  0.00    +0.017 C 
ENDBRANCH   7  17
ENDBRANCH   3   5
BRANCH   1  21
ATOM     21  C   UNL     1      -1.036   4.327   0.149  0.00  0.00    +0.204 C 
BRANCH  21  24
ATOM     22  C   UNL     1      -3.142   4.091  -1.054  0.00  0.00    +0.247 C 
ATOM     23  O   UNL     1      -4.357   4.112  -1.092  0.00  0.00    -0.270 OA
ATOM     24  N   UNL     1      -2.501   4.316   0.110  0.00  0.00    -0.288 N 
BRANCH  22  28
ATOM     25  C   UNL     1      -0.918   3.313  -4.588  0.00  0.00    -0.047 A 
ATOM     26  C   UNL     1      -2.211   3.797  -4.680  0.00  0.00    +0.004 A 
ATOM     27  C   UNL     1      -2.939   4.052  -3.536  0.00  0.00    +0.013 A 
ATOM     28  C   UNL     1      -2.368   3.820  -2.284  0.00  0.00    +0.037 A 
ATOM     29  C   UNL     1      -1.061   3.338  -2.198  0.00  0.00    +0.013 A 
ATOM     30  C   UNL     1      -0.346   3.082  -3.349  0.00  0.00    +0.004 A 
BRANCH  25  31
ATOM     31  C   UNL     1      -0.129   3.036  -5.842  0.00  0.00    +0.035 C 
BRANCH  31  32
ATOM     32  C   UNL     1       0.642   4.294  -6.247  0.00  0.00    +0.005 C 
BRANCH  32  33
ATOM     33  C   UNL     1       1.443   4.013  -7.520  0.00  0.00    +0.000 C 
BRANCH  33  35
ATOM     34  C   UNL     1       3.015   4.989  -9.199  0.00  0.00    +0.004 C 
ATOM     35  C   UNL     1       2.214   5.271  -7.926  0.00  0.00    -0.003 C 
ENDBRANCH  33  35
ENDBRANCH  32  33
ENDBRANCH  31  32
ENDBRANCH  25  31
ENDBRANCH  22  28
BRANCH  24  36
ATOM     36  C   UNL     1      -3.268   4.547   1.337  0.00  0.00    +0.111 C 
BRANCH  36  37
ATOM     37  C   UNL     1      -3.409   6.052   1.573  0.00  0.00    +0.000 C 
ATOM     38  C   UNL     1      -4.242   6.669   0.448  0.00  0.00    +0.009 C 
ATOM     39  C   UNL     1      -4.105   6.294   2.914  0.00  0.00    +0.009 C 
ENDBRANCH  36  37
ENDBRANCH  24  36
ENDBRANCH  21  24
ENDBRANCH   1  21
TORSDOF 12
