REMARK  Name = ZINC04436115
REMARK  3 active torsions:
REMARK  status: ('A' for Active; 'I' for Inactive)
REMARK    1  A    between atoms: C_1  and  S_2
REMARK    2  A    between atoms: S_2  and  C_3
REMARK    3  A    between atoms: C_8  and  C_18
REMARK                            x       y       z     vdW  Elec       q    Type
REMARK                         _______ _______ _______ _____ _____    ______ ____
ROOT
ATOM      1  C   UNL     1       0.848  -0.411  -1.489  0.00  0.00    +0.210 A 
ATOM      2  N   UNL     1       1.343   0.472  -2.369  0.00  0.00    -0.187 NA
ATOM      3  C   UNL     1       1.904  -0.167  -3.359  0.00  0.00    +0.219 A 
ATOM      4  N   UNL     1       1.783  -1.497  -3.125  0.00  0.00    -0.220 N 
ATOM      5  N   UNL     1       1.102  -1.629  -1.915  0.00  0.00    -0.141 NA
ATOM      6  C   UNL     1       2.307  -2.520  -4.021  0.00  0.00    +0.175 C 
ATOM      7  C   UNL     1       2.672  -1.904  -5.354  0.00  0.00    +0.041 C 
ATOM      8  C   UNL     1       2.767  -0.568  -5.525  0.00  0.00    +0.020 C 
ATOM      9  N   UNL     1       2.535   0.312  -4.495  0.00  0.00    -0.287 N 
ATOM     10  C   UNL     1       3.126   0.018  -6.870  0.00  0.00    +0.052 C 
ATOM     11  C   UNL     1       4.041  -0.948  -7.625  0.00  0.00    +0.014 C 
ATOM     12  C   UNL     1       3.306  -2.284  -7.782  0.00  0.00    +0.080 C 
ATOM     13  C   UNL     1       2.914  -2.788  -6.421  0.00  0.00    +0.163 C 
ATOM     14  O   UNL     1       2.803  -3.984  -6.240  0.00  0.00    -0.292 OA
ATOM     15  H   UNL     1       2.806   1.241  -4.562  0.00  0.00    +0.155 HD
ENDROOT
BRANCH   6  16
ATOM     16  C   UNL     1       3.535  -3.142  -3.407  0.00  0.00    -0.017 A 
ATOM     17  C   UNL     1       4.632  -2.354  -3.110  0.00  0.00    +0.007 A 
ATOM     18  C   UNL     1       5.759  -2.923  -2.547  0.00  0.00    +0.022 A 
ATOM     19  C   UNL     1       5.790  -4.280  -2.280  0.00  0.00    +0.059 A 
ATOM     20  C   UNL     1       4.691  -5.068  -2.577  0.00  0.00    +0.060 A 
ATOM     21  C   UNL     1       3.561  -4.496  -3.135  0.00  0.00    +0.027 A 
ATOM     22 CL   UNL     1       4.727  -6.771  -2.243  0.00  0.00    -0.082 Cl
ATOM     23 CL   UNL     1       7.205  -4.995  -1.573  0.00  0.00    -0.082 Cl
ENDBRANCH   6  16
BRANCH   1  25
ATOM     24  C   UNL     1      -0.022   1.810   0.012  0.00  0.00    +0.093 C 
ATOM     25  S   UNL     1       0.002  -0.004   0.002  0.00  0.00    -0.088 S 
ENDBRANCH   1  25
TORSDOF 2
