REMARK  Name = ZINC36601077
REMARK  13 active torsions:
REMARK  status: ('A' for Active; 'I' for Inactive)
REMARK    1  A    between atoms: C_1  and  C_2
REMARK    2  A    between atoms: C_5  and  C_7
REMARK    3  A    between atoms: C_7  and  N_8
REMARK    4  A    between atoms: N_8  and  C_9
REMARK    5  A    between atoms: C_9  and  C_11
REMARK    6  A    between atoms: C_9  and  C_24
REMARK    7  A    between atoms: C_11  and  C_12
REMARK    8  A    between atoms: C_11  and  C_18
REMARK    9  A    between atoms: N_26  and  C_27
REMARK   10  A    between atoms: C_27  and  C_28
REMARK   11  A    between atoms: C_27  and  C_29
REMARK   12  A    between atoms: C_27  and  C_30
REMARK   13  A    between atoms: C_31  and  C_33
REMARK                            x       y       z     vdW  Elec       q    Type
REMARK                         _______ _______ _______ _____ _____    ______ ____
ROOT
ATOM      1  C   UNL     1       3.088  -3.319  -2.252  0.00  0.00    +0.174 C 
ENDROOT
BRANCH   1   2
ATOM      2  C   UNL     1       3.668  -4.535  -2.927  0.00  0.00    +0.235 C 
ATOM      3  O   UNL     1       3.131  -5.615  -2.797  0.00  0.00    -0.274 OA
ATOM      4  N   UNL     1       4.785  -4.423  -3.674  0.00  0.00    -0.309 N 
ATOM      5  H   UNL     1       5.214  -3.560  -3.777  0.00  0.00    +0.149 HD
BRANCH   4   6
ATOM      6  C   UNL     1       5.349  -5.605  -4.330  0.00  0.00    +0.026 C 
ATOM      7  C   UNL     1       4.317  -6.196  -5.293  0.00  0.00    +0.031 C 
ATOM      8  C   UNL     1       6.604  -5.206  -5.109  0.00  0.00    +0.031 C 
ATOM      9  C   UNL     1       5.715  -6.649  -3.272  0.00  0.00    +0.031 C 
ENDBRANCH   4   6
ENDBRANCH   1   2
BRANCH   1  10
ATOM     10  N   UNL     1       1.886  -3.701  -1.507  0.00  0.00    -0.280 N 
ATOM     11  C   UNL     1       1.999  -4.242  -0.277  0.00  0.00    +0.237 C 
ATOM     12  O   UNL     1       3.096  -4.411   0.212  0.00  0.00    -0.274 OA
BRANCH  11  13
ATOM     13  C   UNL     1       0.763  -4.635   0.490  0.00  0.00    +0.159 C 
ATOM     14  C   UNL     1       0.142  -3.397   1.174  0.00  0.00    +0.041 C 
ATOM     15  C   UNL     1       0.790  -3.454   2.577  0.00  0.00    +0.098 C 
ATOM     16  C   UNL     1       1.141  -4.913   2.765  0.00  0.00    +0.214 C 
ATOM     17  O   UNL     1       1.408  -5.433   3.828  0.00  0.00    -0.276 OA
ATOM     18  N   UNL     1       1.113  -5.553   1.580  0.00  0.00    -0.304 N 
ATOM     19  H   UNL     1       1.299  -6.497   1.462  0.00  0.00    +0.149 HD
ENDBRANCH  11  13
BRANCH  10  20
ATOM     20  C   UNL     1       0.561  -3.497  -2.098  0.00  0.00    +0.182 C 
BRANCH  20  25
ATOM     21  C   UNL     1       0.182  -6.736  -5.945  0.00  0.00    +0.086 C 
ATOM     22  C   UNL     1       0.015  -6.117  -4.582  0.00  0.00    +0.102 A 
ATOM     23  C   UNL     1      -0.678  -6.646  -3.557  0.00  0.00    +0.045 A 
ATOM     24  C   UNL     1      -0.571  -5.738  -2.478  0.00  0.00    +0.046 A 
ATOM     25  C   UNL     1       0.180  -4.708  -2.908  0.00  0.00    +0.122 A 
ATOM     26  O   UNL     1       0.537  -4.946  -4.181  0.00  0.00    -0.463 OA
ENDBRANCH  20  25
ENDBRANCH  10  20
ENDBRANCH   1  10
BRANCH   1  27
ATOM     27  C   UNL     1       2.721  -2.276  -3.310  0.00  0.00    +0.078 C 
BRANCH  27  28
ATOM     28  C   UNL     1       1.979  -1.138  -2.657  0.00  0.00    -0.038 A 
ATOM     29  C   UNL     1       0.881  -0.580  -3.283  0.00  0.00    +0.004 A 
ATOM     30  C   UNL     1       0.200   0.463  -2.684  0.00  0.00    +0.000 A 
ATOM     31  C   UNL     1       0.617   0.948  -1.459  0.00  0.00    +0.000 A 
ATOM     32  C   UNL     1       1.715   0.389  -0.832  0.00  0.00    +0.000 A 
ATOM     33  C   UNL     1       2.393  -0.657  -1.429  0.00  0.00    +0.004 A 
ENDBRANCH  27  28
BRANCH  27  34
ATOM     34  C   UNL     1       3.979  -1.751  -3.954  0.00  0.00    -0.038 A 
ATOM     35  C   UNL     1       4.890  -1.031  -3.205  0.00  0.00    +0.004 A 
ATOM     36  C   UNL     1       6.043  -0.549  -3.796  0.00  0.00    +0.000 A 
ATOM     37  C   UNL     1       6.285  -0.788  -5.136  0.00  0.00    +0.000 A 
ATOM     38  C   UNL     1       5.374  -1.509  -5.885  0.00  0.00    +0.000 A 
ATOM     39  C   UNL     1       4.223  -1.994  -5.293  0.00  0.00    +0.004 A 
ENDBRANCH  27  34
ENDBRANCH   1  27
TORSDOF 9
