REMARK  Name = ZINC23558204
REMARK  9 active torsions:
REMARK  status: ('A' for Active; 'I' for Inactive)
REMARK    1  A    between atoms: C_1  and  C_2
REMARK    2  A    between atoms: C_2  and  C_3
REMARK    3  A    between atoms: C_3  and  N_4
REMARK    4  A    between atoms: C_13  and  S_14
REMARK    5  A    between atoms: S_14  and  C_15
REMARK    6  A    between atoms: C_15  and  C_17
REMARK    7  A    between atoms: C_15  and  C_18
REMARK    8  A    between atoms: N_20  and  C_21
REMARK    9  A    between atoms: C_21  and  C_22
REMARK                            x       y       z     vdW  Elec       q    Type
REMARK                         _______ _______ _______ _____ _____    ______ ____
ROOT
ATOM      1  S   UNL     1      10.010  -1.237   0.966  0.00  0.00    -0.075 S 
ENDROOT
BRANCH   1  11
ATOM      2  N   UNL     1      12.249  -1.532  -0.531  0.00  0.00    -0.287 N 
ATOM      3  C   UNL     1      12.958  -1.872  -1.623  0.00  0.00    +0.263 A 
ATOM      4  O   UNL     1      14.167  -1.719  -1.649  0.00  0.00    -0.267 OA
ATOM      5  C   UNL     1      12.271  -2.414  -2.755  0.00  0.00    +0.076 A 
ATOM      6  C   UNL     1      12.844  -2.848  -4.040  0.00  0.00    -0.023 A 
ATOM      7  C   UNL     1      11.987  -3.329  -4.954  0.00  0.00    -0.004 A 
ATOM      8  S   UNL     1      10.388  -3.236  -4.183  0.00  0.00    -0.073 S 
ATOM      9  C   UNL     1      10.881  -2.548  -2.624  0.00  0.00    +0.117 A 
ATOM     10  N   UNL     1      10.239  -2.198  -1.515  0.00  0.00    -0.216 NA
ATOM     11  C   UNL     1      10.894  -1.696  -0.488  0.00  0.00    +0.173 A 
ATOM     12  C   UNL     1      12.684  -3.744  -6.223  0.00  0.00    +0.043 C 
ATOM     13  C   UNL     1      14.173  -3.858  -5.827  0.00  0.00    +0.010 C 
ATOM     14  C   UNL     1      14.255  -2.887  -4.633  0.00  0.00    +0.037 C 
BRANCH   2  15
ATOM     15  C   UNL     1      12.943  -0.976   0.633  0.00  0.00    +0.127 C 
BRANCH  15  17
ATOM     16  C   UNL     1      14.088  -1.532   2.783  0.00  0.00    +0.005 C 
ATOM     17  C   UNL     1      13.363  -2.113   1.567  0.00  0.00    +0.018 C 
ENDBRANCH  15  17
ENDBRANCH   2  15
ENDBRANCH   1  11
BRANCH   1  18
ATOM     18  C   UNL     1       8.326  -1.665   0.457  0.00  0.00    +0.137 C 
ATOM     19  C   UNL     1       8.224  -3.177   0.252  0.00  0.00    +0.029 C 
BRANCH  18  20
ATOM     20  C   UNL     1       7.355  -1.236   1.526  0.00  0.00    +0.226 C 
ATOM     21  O   UNL     1       7.746  -1.037   2.657  0.00  0.00    -0.275 OA
ATOM     22  N   UNL     1       6.051  -1.073   1.226  0.00  0.00    -0.310 N 
ATOM     23  H   UNL     1       5.696  -1.253   0.201  0.00  0.00    +0.149 HD
BRANCH  22  24
ATOM     24  C   UNL     1       5.107  -0.655   2.265  0.00  0.00    +0.139 C 
BRANCH  24  25
ATOM     25  C   UNL     1       3.725  -0.548   1.674  0.00  0.00    -0.027 A 
ATOM     26  C   UNL     1       2.885  -1.646   1.677  0.00  0.00    +0.009 A 
ATOM     27  C   UNL     1       1.617  -1.553   1.135  0.00  0.00    +0.050 A 
ATOM     28  C   UNL     1       1.183  -0.356   0.589  0.00  0.00    +0.166 A 
ATOM     29  C   UNL     1       2.028   0.751   0.586  0.00  0.00    +0.167 A 
ATOM     30  C   UNL     1       3.298   0.650   1.131  0.00  0.00    +0.054 A 
ATOM     31  O   UNL     1       1.376   1.797  -0.001  0.00  0.00    -0.453 OA
ATOM     32  C   UNL     1      -0.018   1.436   0.010  0.00  0.00    +0.466 C 
ATOM     33  O   UNL     1       0.002  -0.004   0.002  0.00  0.00    -0.453 OA
ENDBRANCH  24  25
ENDBRANCH  22  24
ENDBRANCH  18  20
ENDBRANCH   1  18
TORSDOF 7
