REMARK  Name = ZINC43527967
REMARK  8 active torsions:
REMARK  status: ('A' for Active; 'I' for Inactive)
REMARK    1  A    between atoms: C_1  and  C_2
REMARK    2  A    between atoms: C_4  and  C_27
REMARK    3  A    between atoms: C_6  and  C_8
REMARK    4  A    between atoms: C_17  and  C_19
REMARK    5  A    between atoms: C_19  and  N_20
REMARK    6  A    between atoms: N_23  and  C_24
REMARK    7  A    between atoms: C_24  and  C_25
REMARK    8  A    between atoms: C_24  and  C_26
REMARK                            x       y       z     vdW  Elec       q    Type
REMARK                         _______ _______ _______ _____ _____    ______ ____
ROOT
ATOM      1  C   UNL     1       0.051  -2.697   2.514  0.00  0.00    +0.024 C 
ATOM      2  C   UNL     1      -0.754  -3.994   2.401  0.00  0.00    -0.068 C 
ATOM      3  N   UNL     1       0.106  -5.144   2.689  0.00  0.00    +0.383 N 
ATOM      4  C   UNL     1       1.203  -5.223   1.721  0.00  0.00    -0.078 C 
ATOM      5  C   UNL     1       2.073  -3.966   1.812  0.00  0.00    -0.015 C 
ATOM      6  C   UNL     1       1.497  -3.040   2.895  0.00  0.00    -0.007 C 
ATOM      7  C   UNL     1       1.478  -3.805   4.225  0.00  0.00    -0.010 C 
ATOM      8  C   UNL     1       0.627  -5.069   4.056  0.00  0.00    -0.051 C 
ATOM      9  H   UNL     1      -0.446  -5.984   2.603  0.00  0.00    -0.081 HD
ENDROOT
BRANCH   1  15
ATOM     10  C   UNL     1      -0.018   1.503   0.010  0.00  0.00    +0.088 C 
ATOM     11  C   UNL     1       0.002  -0.004   0.002  0.00  0.00    +0.127 A 
ATOM     12  N   UNL     1       0.005  -0.637  -1.152  0.00  0.00    -0.232 NA
ATOM     13  C   UNL     1       0.023  -1.970  -1.197  0.00  0.00    +0.081 A 
ATOM     14  C   UNL     1       0.038  -2.686   0.008  0.00  0.00    +0.052 A 
ATOM     15  C   UNL     1       0.035  -1.975   1.192  0.00  0.00    +0.047 A 
ATOM     16  N   UNL     1       0.022  -0.650   1.151  0.00  0.00    -0.237 NA
BRANCH  13  17
ATOM     17  C   UNL     1       0.026  -2.678  -2.491  0.00  0.00    +0.038 A 
ATOM     18  C   UNL     1       0.018  -2.159  -3.760  0.00  0.00    +0.017 A 
ATOM     19  C   UNL     1       0.023  -3.025  -4.829  0.00  0.00    +0.008 A 
ATOM     20  C   UNL     1       0.035  -4.364  -4.597  0.00  0.00    +0.046 A 
ATOM     21  S   UNL     1       0.049  -4.434  -2.813  0.00  0.00    -0.095 S 
ENDBRANCH  13  17
ENDBRANCH   1  15
BRANCH   8  22
ATOM     22  C   UNL     1       1.487  -6.303   4.339  0.00  0.00    +0.090 C 
BRANCH  22  23
ATOM     23  N   UNL     1       0.705  -7.514   4.077  0.00  0.00    -0.301 N 
ATOM     24  C   UNL     1       1.261  -8.728   4.260  0.00  0.00    +0.300 C 
ATOM     25  O   UNL     1       2.411  -8.818   4.643  0.00  0.00    -0.253 OA
ATOM     26  N   UNL     1       0.541  -9.841   4.018  0.00  0.00    -0.297 N 
ATOM     27  H   UNL     1      -0.213  -7.441   3.771  0.00  0.00    +0.150 HD
ATOM     28  H   UNL     1      -0.377  -9.769   3.713  0.00  0.00    +0.150 HD
BRANCH  26  29
ATOM     29  C   UNL     1       1.145 -11.161   4.217  0.00  0.00    +0.068 C 
ATOM     30  C   UNL     1       1.009 -11.569   5.686  0.00  0.00    +0.027 C 
ATOM     31  C   UNL     1       0.431 -12.187   3.335  0.00  0.00    +0.027 C 
ENDBRANCH  26  29
ENDBRANCH  22  23
ENDBRANCH   8  22
TORSDOF 5
