REMARK  Name = ZINC37361558
REMARK  9 active torsions:
REMARK  status: ('A' for Active; 'I' for Inactive)
REMARK    1  A    between atoms: C_1  and  C_2
REMARK    2  A    between atoms: C_2  and  C_3
REMARK    3  A    between atoms: C_2  and  C_4
REMARK    4  A    between atoms: C_7  and  C_10
REMARK    5  A    between atoms: C_12  and  N_34
REMARK    6  A    between atoms: N_13  and  C_27
REMARK    7  A    between atoms: N_19  and  C_20
REMARK    8  A    between atoms: C_20  and  C_21
REMARK    9  A    between atoms: C_27  and  C_28
REMARK                            x       y       z     vdW  Elec       q    Type
REMARK                         _______ _______ _______ _____ _____    ______ ____
ROOT
ATOM      1  C   UNL     1      -5.636  -1.437   0.081  0.00  0.00    +0.089 A 
ATOM      2  C   UNL     1      -6.264  -1.805  -1.129  0.00  0.00    +0.086 A 
ATOM      3  C   UNL     1      -5.947  -1.728  -2.480  0.00  0.00    +0.126 A 
ATOM      4  N   UNL     1      -6.973  -2.258  -3.168  0.00  0.00    -0.244 N 
ATOM      5  N   UNL     1      -7.969  -2.688  -2.284  0.00  0.00    -0.149 NA
ATOM      6  C   UNL     1      -7.593  -2.439  -1.049  0.00  0.00    +0.188 A 
ATOM      7  N   UNL     1      -8.128  -2.628   0.173  0.00  0.00    -0.193 NA
ATOM      8  C   UNL     1      -7.471  -2.253   1.251  0.00  0.00    +0.218 A 
ATOM      9  N   UNL     1      -6.270  -1.684   1.220  0.00  0.00    -0.214 NA
ATOM     10  N   UNL     1      -8.061  -2.468   2.484  0.00  0.00    -0.311 N 
ATOM     11  H   UNL     1      -7.600  -2.202   3.295  0.00  0.00    +0.149 HD
ENDROOT
BRANCH   1  15
ATOM     12  C   UNL     1      -1.804   0.402   0.074  0.00  0.00    -0.045 A 
ATOM     13  C   UNL     1      -2.074  -0.626   0.960  0.00  0.00    +0.004 A 
ATOM     14  C   UNL     1      -3.316  -1.227   0.967  0.00  0.00    +0.010 A 
ATOM     15  C   UNL     1      -4.301  -0.796   0.079  0.00  0.00    +0.001 A 
ATOM     16  C   UNL     1      -4.023   0.241  -0.812  0.00  0.00    +0.010 A 
ATOM     17  C   UNL     1      -2.779   0.838  -0.806  0.00  0.00    +0.004 A 
BRANCH  12  19
ATOM     18  C   UNL     1      -0.169   1.661   1.448  0.00  0.00    +0.012 C 
ATOM     19  C   UNL     1      -0.446   1.054   0.071  0.00  0.00    +0.013 C 
ATOM     20  C   UNL     1       0.622   0.006  -0.248  0.00  0.00    +0.012 C 
ENDBRANCH  12  19
ENDBRANCH   1  15
BRANCH   3  21
ATOM     21  N   UNL     1      -4.788  -1.201  -3.019  0.00  0.00    -0.343 N 
ATOM     22  H   UNL     1      -4.000  -1.094  -2.463  0.00  0.00    +0.144 HD
ATOM     23  H   UNL     1      -4.763  -0.938  -3.952  0.00  0.00    +0.144 HD
ENDBRANCH   3  21
BRANCH  10  24
ATOM     24  C   UNL     1      -9.381  -3.098   2.564  0.00  0.00    +0.136 C 
BRANCH  24  25
ATOM     25  C   UNL     1      -9.800  -3.218   4.031  0.00  0.00    +0.135 C 
ATOM     26  C   UNL     1     -11.180  -3.914   4.141  0.00  0.00    +0.035 C 
ATOM     27  C   UNL     1     -11.103  -4.497   5.578  0.00  0.00    +0.031 C 
ATOM     28  C   UNL     1      -9.606  -4.854   5.706  0.00  0.00    +0.160 C 
ATOM     29  O   UNL     1      -8.890  -4.072   4.741  0.00  0.00    -0.375 OA
ENDBRANCH  24  25
ENDBRANCH  10  24
BRANCH   4  30
ATOM     30  C   UNL     1      -7.039  -2.370  -4.627  0.00  0.00    +0.180 C 
BRANCH  30  31
ATOM     31  C   UNL     1      -6.447  -3.687  -5.058  0.00  0.00    -0.026 A 
ATOM     32  C   UNL     1      -5.096  -3.779  -5.338  0.00  0.00    +0.005 A 
ATOM     33  C   UNL     1      -4.553  -4.988  -5.732  0.00  0.00    +0.000 A 
ATOM     34  C   UNL     1      -5.361  -6.104  -5.847  0.00  0.00    +0.000 A 
ATOM     35  C   UNL     1      -6.711  -6.012  -5.566  0.00  0.00    +0.000 A 
ATOM     36  C   UNL     1      -7.253  -4.805  -5.167  0.00  0.00    +0.005 A 
ENDBRANCH  30  31
ENDBRANCH   4  30
TORSDOF 7
