REMARK  Name = ZINC20751666
REMARK  3 active torsions:
REMARK  status: ('A' for Active; 'I' for Inactive)
REMARK    1  A    between atoms: C_9  and  O_31
REMARK    2  A    between atoms: C_10  and  C_11
REMARK    3  A    between atoms: C_21  and  N_28
REMARK                            x       y       z     vdW  Elec       q    Type
REMARK                         _______ _______ _______ _____ _____    ______ ____
ROOT
ATOM      1  C   UNL     1      -3.828   2.301  -0.486  0.00  0.00    +0.109 C 
ATOM      2  C   UNL     1      -4.266   2.388   0.961  0.00  0.00    +0.029 C 
ATOM      3  C   UNL     1      -3.560   1.490   1.982  0.00  0.00    +0.033 C 
ATOM      4  C   UNL     1      -4.668   1.274   3.017  0.00  0.00    -0.030 C 
ATOM      5  C   UNL     1      -5.846   1.421   2.444  0.00  0.00    -0.023 C 
ATOM      6  C   UNL     1      -5.654   1.674   0.995  0.00  0.00    +0.051 C 
ATOM      7  C   UNL     1      -6.581   2.509   0.201  0.00  0.00    +0.014 A 
ATOM      8  C   UNL     1      -7.922   2.600   0.511  0.00  0.00    +0.132 A 
ATOM      9  C   UNL     1      -8.771   3.372  -0.259  0.00  0.00    +0.036 A 
ATOM     10  C   UNL     1      -8.269   4.059  -1.350  0.00  0.00    +0.042 A 
ATOM     11  C   UNL     1      -6.929   3.980  -1.663  0.00  0.00    +0.145 A 
ATOM     12  C   UNL     1      -6.058   3.207  -0.890  0.00  0.00    +0.069 A 
ATOM     13  N   UNL     1      -4.713   3.186  -1.260  0.00  0.00    -0.334 N 
ATOM     14  F   UNL     1      -6.452   4.657  -2.731  0.00  0.00    -0.204 F 
ATOM     15  H   UNL     1      -4.304   3.788  -2.085  0.00  0.00    +0.147 HD
ENDROOT
BRANCH   1  25
ATOM     16  C   UNL     1       0.676   0.025  -1.339  0.00  0.00    +0.001 A 
ATOM     17  C   UNL     1      -0.640  -0.418  -1.220  0.00  0.00    +0.001 A 
ATOM     18  C   UNL     1      -1.656   0.458  -0.990  0.00  0.00    +0.009 A 
ATOM     19  C   UNL     1      -1.376   1.829  -0.860  0.00  0.00    -0.009 A 
ATOM     20  C   UNL     1      -0.038   2.280  -0.981  0.00  0.00    -0.017 A 
ATOM     21  C   UNL     1       0.984   1.346  -1.224  0.00  0.00    +0.008 A 
ATOM     22  C   UNL     1       0.243   3.652  -0.858  0.00  0.00    +0.012 A 
ATOM     23  C   UNL     1      -0.769   4.529  -0.623  0.00  0.00    +0.046 A 
ATOM     24  C   UNL     1      -2.090   4.087  -0.503  0.00  0.00    +0.122 A 
ATOM     25  C   UNL     1      -2.399   2.761  -0.618  0.00  0.00    +0.022 A 
BRANCH  24  26
ATOM     26  O   UNL     1      -3.080   4.987  -0.269  0.00  0.00    -0.506 OA
ATOM     27  H   UNL     1      -4.122   4.647  -0.173  0.00  0.00    +0.292 HD
ENDBRANCH  24  26
ENDBRANCH   1  25
BRANCH   8  28
ATOM     28  N   UNL     1      -8.457   1.865   1.679  0.00  0.00    +0.057 N 
ATOM     29  O   UNL     1      -8.207   0.681   1.820  0.00  0.00    -0.126 OA
ATOM     30  O   UNL     1      -9.146   2.443   2.500  0.00  0.00    -0.126 OA
ENDBRANCH   8  28
TORSDOF 3
