REMARK  Name = ZINC34829940
REMARK  10 active torsions:
REMARK  status: ('A' for Active; 'I' for Inactive)
REMARK    1  A    between atoms: C_1  and  C_2
REMARK    2  A    between atoms: C_2  and  C_3
REMARK    3  A    between atoms: C_3  and  C_4
REMARK    4  A    between atoms: C_4  and  N_5
REMARK    5  A    between atoms: C_13  and  C_15
REMARK    6  A    between atoms: C_16  and  C_18
REMARK    7  A    between atoms: C_18  and  N_19
REMARK    8  A    between atoms: C_27  and  C_29
REMARK    9  A    between atoms: C_32  and  O_35
REMARK   10  A    between atoms: O_35  and  C_36
REMARK                            x       y       z     vdW  Elec       q    Type
REMARK                         _______ _______ _______ _____ _____    ______ ____
ROOT
ATOM      1  C   UNL     1      -9.058  -4.930   1.366  0.00  0.00    +0.020 C 
ENDROOT
BRANCH   1  12
ATOM      2  N   UNL     1      -2.841  -2.583   0.781  0.00  0.00    -0.299 N 
ATOM      3  C   UNL     1      -3.041  -3.887   0.505  0.00  0.00    +0.303 C 
ATOM      4  O   UNL     1      -2.089  -4.627   0.347  0.00  0.00    -0.253 OA
ATOM      5  N   UNL     1      -4.295  -4.370   0.404  0.00  0.00    -0.280 N 
ATOM      6  C   UNL     1      -5.452  -3.466   0.463  0.00  0.00    +0.128 C 
ATOM      7  C   UNL     1      -6.392  -3.945   1.576  0.00  0.00    +0.126 C 
ATOM      8  N   UNL     1      -6.627  -5.386   1.404  0.00  0.00    -0.300 N 
ATOM      9  C   UNL     1      -5.470  -6.290   1.346  0.00  0.00    +0.130 C 
ATOM     10  C   UNL     1      -4.529  -5.810   0.227  0.00  0.00    +0.092 C 
ATOM     11  C   UNL     1      -3.199  -6.561   0.314  0.00  0.00    +0.030 C 
ATOM     12  C   UNL     1      -7.881  -5.869   1.303  0.00  0.00    +0.199 C 
ATOM     13  O   UNL     1      -8.062  -7.060   1.162  0.00  0.00    -0.278 OA
ATOM     14  H   UNL     1      -3.597  -1.977   0.835  0.00  0.00    +0.150 HD
BRANCH   2  15
ATOM     15  C   UNL     1      -1.483  -2.080   1.000  0.00  0.00    +0.106 C 
BRANCH  15  16
ATOM     16  C   UNL     1      -1.536  -0.579   1.293  0.00  0.00    +0.018 C 
BRANCH  16  18
ATOM     17  C   UNL     1      -0.171   1.447   1.815  0.00  0.00    +0.004 C 
ATOM     18  C   UNL     1      -0.118  -0.053   1.522  0.00  0.00    -0.002 C 
ENDBRANCH  16  18
ENDBRANCH  15  16
ENDBRANCH   2  15
ENDBRANCH   1  12
BRANCH   1  19
ATOM     19  N   UNL     1     -10.304  -5.697   1.233  0.00  0.00    +0.393 N 
ATOM     20  C   UNL     1     -10.434  -6.609   2.377  0.00  0.00    -0.072 C 
ATOM     21  C   UNL     1     -11.545  -7.630   2.075  0.00  0.00    +0.024 C 
ATOM     22  C   UNL     1     -12.724  -6.873   1.557  0.00  0.00    -0.010 A 
ATOM     23  C   UNL     1     -12.732  -5.576   1.139  0.00  0.00    -0.047 A 
ATOM     24  C   UNL     1     -13.954  -5.073   0.698  0.00  0.00    +0.010 A 
ATOM     25  C   UNL     1     -15.051  -5.865   0.697  0.00  0.00    +0.045 A 
ATOM     26  S   UNL     1     -14.398  -7.401   1.335  0.00  0.00    -0.101 S 
ATOM     27  C   UNL     1     -11.439  -4.768   1.174  0.00  0.00    -0.005 C 
ATOM     28  H   UNL     1     -10.272  -6.237   0.381  0.00  0.00    -0.080 HD
BRANCH  27  29
ATOM     29  C   UNL     1     -11.337  -3.924  -0.070  0.00  0.00    -0.056 A 
ATOM     30  C   UNL     1     -10.929  -4.496  -1.261  0.00  0.00    +0.006 A 
ATOM     31  C   UNL     1     -10.834  -3.724  -2.403  0.00  0.00    +0.046 A 
ATOM     32  C   UNL     1     -11.149  -2.374  -2.354  0.00  0.00    +0.120 A 
ATOM     33  C   UNL     1     -11.558  -1.802  -1.158  0.00  0.00    +0.046 A 
ATOM     34  C   UNL     1     -11.656  -2.579  -0.021  0.00  0.00    +0.006 A 
BRANCH  32  35
ATOM     35  O   UNL     1     -11.056  -1.613  -3.476  0.00  0.00    -0.495 OA
ATOM     36  C   UNL     1     -11.396  -0.230  -3.352  0.00  0.00    +0.277 C 
ENDBRANCH  32  35
ENDBRANCH  27  29
ENDBRANCH   1  19
TORSDOF 7
