REMARK  Name = ZINC09725646
REMARK  8 active torsions:
REMARK  status: ('A' for Active; 'I' for Inactive)
REMARK    1  A    between atoms: C_1  and  O_2
REMARK    2  A    between atoms: O_2  and  C_3
REMARK    3  A    between atoms: C_12  and  C_13
REMARK    4  A    between atoms: C_13  and  N_15
REMARK    5  A    between atoms: N_17  and  C_29
REMARK    6  A    between atoms: C_21  and  S_25
REMARK    7  A    between atoms: S_25  and  N_28
REMARK    8  A    between atoms: C_29  and  C_30
REMARK                            x       y       z     vdW  Elec       q    Type
REMARK                         _______ _______ _______ _____ _____    ______ ____
ROOT
ATOM      1  N   UNL     1       1.448  -4.916  -0.042  0.00  0.00    -0.152 NA
ATOM      2  C   UNL     1       1.504  -6.243  -0.051  0.00  0.00    +0.167 A 
ATOM      3  N   UNL     1       0.473  -7.131  -0.041  0.00  0.00    -0.317 N 
ATOM      4  C   UNL     1       0.728  -8.490  -0.058  0.00  0.00    +0.058 A 
ATOM      5  C   UNL     1      -0.193  -9.549  -0.056  0.00  0.00    +0.029 A 
ATOM      6  C   UNL     1       0.237 -10.855  -0.067  0.00  0.00    +0.030 A 
ATOM      7  C   UNL     1       1.587 -11.166  -0.082  0.00  0.00    +0.106 A 
ATOM      8  C   UNL     1       2.517 -10.141  -0.085  0.00  0.00    +0.045 A 
ATOM      9  C   UNL     1       2.087  -8.835  -0.073  0.00  0.00    +0.041 A 
ATOM     10  S   UNL     1       2.908  -7.261  -0.070  0.00  0.00    -0.052 S 
ENDROOT
BRANCH   7  11
ATOM     11  S   UNL     1       2.114 -12.847  -0.097  0.00  0.00    +0.056 S 
ATOM     12  O   UNL     1       3.429 -12.866   0.441  0.00  0.00    -0.153 OA
ATOM     13  O   UNL     1       1.052 -13.610   0.459  0.00  0.00    -0.153 OA
BRANCH  11  14
ATOM     14  N   UNL     1       2.245 -13.305  -1.683  0.00  0.00    -0.204 NA
ATOM     15  H   UNL     1       2.041 -12.671  -2.389  0.00  0.00    +0.144 HD
ATOM     16  H   UNL     1       2.526 -14.206  -1.906  0.00  0.00    +0.144 HD
ENDBRANCH  11  14
ENDBRANCH   7  11
BRANCH   1  17
ATOM     17  C   UNL     1       2.577  -4.199  -0.048  0.00  0.00    +0.273 C 
ATOM     18  O   UNL     1       3.658  -4.764  -0.062  0.00  0.00    -0.268 OA
BRANCH  17  28
ATOM     19  C   UNL     1       3.709  -1.971  -0.045  0.00  0.00    +0.133 A 
ATOM     20  C   UNL     1       3.674  -0.608  -0.037  0.00  0.00    +0.055 A 
ATOM     21  C   UNL     1       2.440   0.063  -0.021  0.00  0.00    -0.014 A 
ATOM     22  C   UNL     1       2.379   1.467  -0.013  0.00  0.00    +0.008 A 
ATOM     23  C   UNL     1       1.169   2.090   0.002  0.00  0.00    +0.001 A 
ATOM     24  C   UNL     1      -0.016   1.356   0.009  0.00  0.00    +0.001 A 
ATOM     25  C   UNL     1       0.002  -0.004   0.002  0.00  0.00    +0.008 A 
ATOM     26  C   UNL     1       1.234  -0.684  -0.013  0.00  0.00    -0.017 A 
ATOM     27  C   UNL     1       1.286  -2.085  -0.022  0.00  0.00    +0.025 A 
ATOM     28  C   UNL     1       2.516  -2.722  -0.038  0.00  0.00    +0.081 A 
BRANCH  19  30
ATOM     29  C   UNL     1       6.079  -1.796  -0.067  0.00  0.00    +0.277 C 
ATOM     30  O   UNL     1       4.905  -2.612  -0.060  0.00  0.00    -0.494 OA
ENDBRANCH  19  30
ENDBRANCH  17  28
ENDBRANCH   1  17
BRANCH   3  31
ATOM     31  C   UNL     1      -0.910  -6.647  -0.017  0.00  0.00    +0.151 C 
BRANCH  31  32
ATOM     32  C   UNL     1      -0.966  -5.324   0.702  0.00  0.00    -0.013 C 
ATOM     33  C   UNL     1      -1.492  -4.279   0.111  0.00  0.00    +0.005 C 
ENDBRANCH  31  32
ENDBRANCH   3  31
TORSDOF 7
