REMARK  Name = ZINC65256320
REMARK  3 active torsions:
REMARK  status: ('A' for Active; 'I' for Inactive)
REMARK    1  A    between atoms: C_4  and  C_7
REMARK    2  A    between atoms: C_18  and  C_20
REMARK    3  A    between atoms: N_25  and  C_28
REMARK                            x       y       z     vdW  Elec       q    Type
REMARK                         _______ _______ _______ _____ _____    ______ ____
ROOT
ATOM      1  C   UNL     1       3.433  -1.095   0.221  0.00  0.00    -0.023 C 
ATOM      2  C   UNL     1       3.884  -1.442   1.644  0.00  0.00    +0.095 C 
ATOM      3  N   UNL     1       5.117  -2.241   1.560  0.00  0.00    -0.318 N 
ATOM      4  C   UNL     1       5.128  -3.407   0.663  0.00  0.00    +0.087 C 
ATOM      5  C   UNL     1       4.618  -2.966  -0.713  0.00  0.00    -0.062 C 
ATOM      6  N   UNL     1       3.304  -2.327  -0.566  0.00  0.00    +0.386 N 
ATOM      7  C   UNL     1       6.239  -1.903   2.306  0.00  0.00    +0.122 A 
ATOM      8  C   UNL     1       6.193  -0.802   3.161  0.00  0.00    +0.044 A 
ATOM      9  C   UNL     1       7.314  -0.472   3.900  0.00  0.00    +0.006 A 
ATOM     10  C   UNL     1       8.453  -1.254   3.764  0.00  0.00    +0.033 A 
ATOM     11  C   UNL     1       8.432  -2.339   2.894  0.00  0.00    +0.128 A 
ATOM     12  N   UNL     1       7.336  -2.631   2.202  0.00  0.00    -0.227 NA
ATOM     13  H   UNL     1       2.674  -2.961  -0.096  0.00  0.00    -0.085 HD
ATOM     14  H   UNL     1       2.935  -2.105  -1.478  0.00  0.00    -0.085 HD
ENDROOT
BRANCH  11  15
ATOM     15  C   UNL     1       9.643  -3.180   2.740  0.00  0.00    +0.265 C 
ATOM     16  O   UNL     1      10.580  -3.039   3.500  0.00  0.00    -0.268 OA
ATOM     17  N   UNL     1       9.703  -4.100   1.758  0.00  0.00    -0.293 N 
ATOM     18  C   UNL     1       8.660  -4.162   0.725  0.00  0.00    +0.127 C 
ATOM     19  C   UNL     1       9.326  -4.057  -0.652  0.00  0.00    +0.124 C 
ATOM     20  N   UNL     1      10.438  -5.017  -0.710  0.00  0.00    -0.327 N 
ATOM     21  C   UNL     1      11.481  -4.955   0.323  0.00  0.00    +0.124 C 
ATOM     22  C   UNL     1      10.818  -5.056   1.697  0.00  0.00    +0.127 C 
BRANCH  20  23
ATOM     23  C   UNL     1      10.501  -5.972  -1.729  0.00  0.00    +0.030 A 
ATOM     24  C   UNL     1      11.614  -6.795  -1.844  0.00  0.00    +0.026 A 
ATOM     25  C   UNL     1      11.674  -7.738  -2.851  0.00  0.00    +0.040 A 
ATOM     26  C   UNL     1      10.625  -7.863  -3.747  0.00  0.00    +0.124 A 
ATOM     27  C   UNL     1       9.514  -7.044  -3.635  0.00  0.00    +0.040 A 
ATOM     28  C   UNL     1       9.448  -6.103  -2.626  0.00  0.00    +0.026 A 
ATOM     29  F   UNL     1      10.686  -8.786  -4.731  0.00  0.00    -0.205 F 
ENDBRANCH  20  23
ENDBRANCH  11  15
BRANCH   1  33
ATOM     30  C   UNL     1      -0.341   0.900   0.370  0.00  0.00    +0.000 A 
ATOM     31  C   UNL     1       0.822   1.632   0.218  0.00  0.00    +0.000 A 
ATOM     32  C   UNL     1       2.043   0.987   0.170  0.00  0.00    +0.002 A 
ATOM     33  C   UNL     1       2.102  -0.391   0.275  0.00  0.00    -0.060 A 
ATOM     34  C   UNL     1       0.939  -1.122   0.427  0.00  0.00    +0.002 A 
ATOM     35  C   UNL     1      -0.283  -0.477   0.474  0.00  0.00    +0.000 A 
ENDBRANCH   1  33
TORSDOF 3
