REMARK  Name = ZINC00519104
REMARK  6 active torsions:
REMARK  status: ('A' for Active; 'I' for Inactive)
REMARK    1  A    between atoms: C_1  and  C_2
REMARK    2  A    between atoms: C_2  and  N_14
REMARK    3  A    between atoms: C_8  and  C_9
REMARK    4  A    between atoms: C_8  and  C_10
REMARK    5  A    between atoms: N_14  and  C_15
REMARK    6  A    between atoms: C_20  and  N_21
REMARK                            x       y       z     vdW  Elec       q    Type
REMARK                         _______ _______ _______ _____ _____    ______ ____
ROOT
ATOM      1  C   UNL     1       0.516   1.581  -0.350  0.00  0.00    +0.061 C 
ATOM      2  C   UNL     1       0.150   0.138  -0.117  0.00  0.00    +0.012 C 
ATOM      3  C   UNL     1       0.073  -0.346   1.148  0.00  0.00    +0.016 C 
ATOM      4  C   UNL     1       0.323   0.461   2.394  0.00  0.00    +0.034 C 
ATOM      5  C   UNL     1       0.121  -0.483   3.588  0.00  0.00    +0.011 C 
ATOM      6  C   UNL     1      -0.833   0.713   3.363  0.00  0.00    -0.024 C 
ATOM      7  C   UNL     1      -0.706   1.901   4.320  0.00  0.00    +0.012 C 
ATOM      8  C   UNL     1      -2.249   0.415   2.866  0.00  0.00    +0.012 C 
ATOM      9  C   UNL     1      -0.227  -1.846   2.973  0.00  0.00    +0.084 C 
ATOM     10  C   UNL     1      -0.256  -1.660   1.479  0.00  0.00    +0.161 C 
ATOM     11  O   UNL     1      -0.514  -2.535   0.675  0.00  0.00    -0.292 OA
ENDROOT
BRANCH   2  12
ATOM     12  N   UNL     1      -0.103  -0.680  -1.176  0.00  0.00    -0.316 N 
ATOM     13  H   UNL     1       0.427  -1.482  -1.307  0.00  0.00    +0.152 HD
BRANCH  12  14
ATOM     14  C   UNL     1      -1.127  -0.364  -2.076  0.00  0.00    +0.052 A 
ATOM     15  C   UNL     1      -1.974   0.704  -1.819  0.00  0.00    +0.025 A 
ATOM     16  C   UNL     1      -2.985   1.014  -2.708  0.00  0.00    +0.002 A 
ATOM     17  C   UNL     1      -3.157   0.262  -3.856  0.00  0.00    +0.002 A 
ATOM     18  C   UNL     1      -2.319  -0.805  -4.120  0.00  0.00    +0.024 A 
ATOM     19  C   UNL     1      -1.297  -1.120  -3.236  0.00  0.00    +0.046 A 
BRANCH  19  20
ATOM     20  N   UNL     1      -0.444  -2.195  -3.505  0.00  0.00    -0.357 N 
ATOM     21  H   UNL     1       0.267  -2.417  -2.884  0.00  0.00    +0.142 HD
ATOM     22  H   UNL     1      -0.563  -2.719  -4.312  0.00  0.00    +0.142 HD
ENDBRANCH  19  20
ENDBRANCH  12  14
ENDBRANCH   2  12
TORSDOF 3
