REMARK  Name = ZINC04641177
REMARK  14 active torsions:
REMARK  status: ('A' for Active; 'I' for Inactive)
REMARK    1  A    between atoms: C_1  and  C_2
REMARK    2  A    between atoms: C_2  and  O_3
REMARK    3  A    between atoms: O_3  and  C_4
REMARK    4  A    between atoms: C_4  and  C_6
REMARK    5  A    between atoms: C_8  and  C_32
REMARK    6  A    between atoms: C_15  and  C_26
REMARK    7  A    between atoms: C_17  and  C_21
REMARK    8  A    between atoms: C_18  and  C_20
REMARK    9  A    between atoms: C_21  and  O_23
REMARK   10  A    between atoms: O_23  and  C_24
REMARK   11  A    between atoms: C_24  and  C_25
REMARK   12  A    between atoms: C_27  and  C_31
REMARK   13  A    between atoms: C_36  and  O_38
REMARK   14  A    between atoms: O_38  and  C_39
REMARK                            x       y       z     vdW  Elec       q    Type
REMARK                         _______ _______ _______ _____ _____    ______ ____
ROOT
ATOM      1  C   UNL     1      -0.843   1.825   3.469  0.00  0.00    +0.176 C 
ATOM      2  C   UNL     1       0.003   1.218   4.594  0.00  0.00    +0.046 C 
ATOM      3  C   UNL     1      -0.592   1.650   5.936  0.00  0.00    +0.060 C 
ATOM      4  C   UNL     1      -0.615   3.157   6.018  0.00  0.00    +0.016 C 
ATOM      5  C   UNL     1      -0.755   3.912   4.907  0.00  0.00    +0.025 C 
ATOM      6  C   UNL     1      -0.882   3.319   3.639  0.00  0.00    +0.176 C 
ATOM      7  O   UNL     1      -1.026   4.027   2.661  0.00  0.00    -0.291 OA
ATOM      8  C   UNL     1      -0.773   5.417   4.996  0.00  0.00    +0.099 C 
ATOM      9  C   UNL     1      -1.049   5.870   6.400  0.00  0.00    +0.066 C 
ATOM     10  C   UNL     1      -0.898   5.037   7.444  0.00  0.00    +0.016 C 
ATOM     11  N   UNL     1      -0.494   3.746   7.248  0.00  0.00    -0.321 N 
ATOM     12  C   UNL     1      -1.176   5.530   8.841  0.00  0.00    +0.061 C 
ATOM     13  H   UNL     1      -0.069   3.179   8.089  0.00  0.00    +0.152 HD
ENDROOT
BRANCH   8  14
ATOM     14  C   UNL     1       0.564   5.955   4.557  0.00  0.00    +0.005 A 
ATOM     15  C   UNL     1       0.851   6.798   3.535  0.00  0.00    -0.039 A 
ATOM     16  C   UNL     1       2.166   7.162   3.316  0.00  0.00    +0.011 A 
ATOM     17  C   UNL     1       3.130   6.665   4.129  0.00  0.00    +0.046 A 
ATOM     18  S   UNL     1       2.180   5.654   5.253  0.00  0.00    -0.100 S 
ATOM     19  C   UNL     1      -0.248   7.331   2.652  0.00  0.00    +0.044 C 
ENDBRANCH   8  14
BRANCH   2  20
ATOM     20  C   UNL     1      -0.016  -0.285   4.487  0.00  0.00    -0.039 A 
ATOM     21  C   UNL     1      -1.215  -0.968   4.569  0.00  0.00    +0.004 A 
ATOM     22  C   UNL     1      -1.236  -2.347   4.471  0.00  0.00    +0.004 A 
ATOM     23  C   UNL     1      -0.058  -3.046   4.292  0.00  0.00    +0.045 A 
ATOM     24  C   UNL     1       1.147  -2.363   4.210  0.00  0.00    +0.120 A 
ATOM     25  C   UNL     1       1.165  -0.979   4.303  0.00  0.00    +0.049 A 
BRANCH  24  26
ATOM     26  O   UNL     1       2.307  -3.048   4.033  0.00  0.00    -0.495 OA
ATOM     27  C   UNL     1       2.213  -4.471   3.941  0.00  0.00    +0.277 C 
ENDBRANCH  24  26
ENDBRANCH   2  20
BRANCH   1  28
ATOM     28  C   UNL     1      -0.228   1.484   2.136  0.00  0.00    +0.318 C 
ATOM     29  O   UNL     1       0.783   0.824   2.088  0.00  0.00    -0.250 OA
BRANCH  28  30
ATOM     30  O   UNL     1      -0.804   1.914   1.002  0.00  0.00    -0.464 OA
BRANCH  30  32
ATOM     31  C   UNL     1      -0.952   2.124  -1.419  0.00  0.00    +0.048 C 
ATOM     32  C   UNL     1      -0.157   1.548  -0.245  0.00  0.00    +0.229 C 
ENDBRANCH  30  32
ENDBRANCH  28  30
ENDBRANCH   1  28
BRANCH   9  33
ATOM     33  C   UNL     1      -1.475   7.199   6.629  0.00  0.00    +0.338 C 
ATOM     34  O   UNL     1      -1.802   7.549   7.748  0.00  0.00    -0.245 OA
BRANCH  33  35
ATOM     35  O   UNL     1      -1.520   8.079   5.607  0.00  0.00    -0.462 OA
BRANCH  35  36
ATOM     36  C   UNL     1      -1.960   9.404   5.910  0.00  0.00    +0.229 C 
ATOM     37  C   UNL     1      -1.944  10.251   4.636  0.00  0.00    +0.048 C 
ENDBRANCH  35  36
ENDBRANCH  33  35
ENDBRANCH   9  33
TORSDOF 9
