REMARK  Name = ZINC30983221
REMARK  10 active torsions:
REMARK  status: ('A' for Active; 'I' for Inactive)
REMARK    1  A    between atoms: C_1  and  C_2
REMARK    2  A    between atoms: C_5  and  S_8
REMARK    3  A    between atoms: S_8  and  C_9
REMARK    4  A    between atoms: C_9  and  C_10
REMARK    5  A    between atoms: C_10  and  C_11
REMARK    6  A    between atoms: C_11  and  N_12
REMARK    7  A    between atoms: C_13  and  C_15
REMARK    8  A    between atoms: N_18  and  C_21
REMARK    9  A    between atoms: C_21  and  C_22
REMARK   10  A    between atoms: C_24  and  C_27
REMARK                            x       y       z     vdW  Elec       q    Type
REMARK                         _______ _______ _______ _____ _____    ______ ____
ROOT
ATOM      1  C   UNL     1       0.606  -2.171  -1.026  0.00  0.00    +0.071 C 
ATOM      2  C   UNL     1       1.353  -2.680   0.210  0.00  0.00    -0.006 C 
ATOM      3  C   UNL     1       1.423  -4.208   0.165  0.00  0.00    -0.077 C 
ATOM      4  N   UNL     1       2.118  -4.631  -1.058  0.00  0.00    +0.386 N 
ATOM      5  C   UNL     1       1.393  -4.195  -2.259  0.00  0.00    -0.077 C 
ATOM      6  C   UNL     1       1.322  -2.667  -2.286  0.00  0.00    -0.006 C 
ATOM      7  H   UNL     1       3.105  -4.146  -1.068  0.00  0.00    -0.081 HD
ENDROOT
BRANCH   1   9
ATOM      8  N   UNL     1       0.002  -0.004   0.002  0.00  0.00    -0.315 N 
ATOM      9  C   UNL     1       0.585  -0.664  -1.018  0.00  0.00    +0.216 C 
ATOM     10  O   UNL     1       1.093  -0.046  -1.929  0.00  0.00    -0.276 OA
ATOM     11  H   UNL     1      -0.459  -0.565   0.828  0.00  0.00    +0.149 HD
BRANCH   8  12
ATOM     12  C   UNL     1      -0.018   1.461   0.010  0.00  0.00    +0.105 C 
BRANCH  12  13
ATOM     13  C   UNL     1      -0.734   1.954   1.269  0.00  0.00    +0.030 C 
BRANCH  13  14
ATOM     14  C   UNL     1      -0.755   3.484   1.277  0.00  0.00    +0.076 C 
BRANCH  14  15
ATOM     15  S   UNL     1      -1.604   4.069   2.770  0.00  0.00    -0.125 S 
BRANCH  15  20
ATOM     16  C   UNL     1      -1.402  10.084   2.302  0.00  0.00    +0.044 C 
ATOM     17  C   UNL     1      -1.452   8.582   2.419  0.00  0.00    -0.050 A 
ATOM     18  C   UNL     1      -2.064   7.995   3.512  0.00  0.00    +0.004 A 
ATOM     19  C   UNL     1      -2.112   6.620   3.622  0.00  0.00    +0.015 A 
ATOM     20  C   UNL     1      -1.545   5.825   2.633  0.00  0.00    +0.008 A 
ATOM     21  C   UNL     1      -0.927   6.418   1.539  0.00  0.00    +0.015 A 
ATOM     22  C   UNL     1      -0.887   7.794   1.432  0.00  0.00    +0.004 A 
ENDBRANCH  15  20
ENDBRANCH  14  15
ENDBRANCH  13  14
ENDBRANCH  12  13
ENDBRANCH   8  12
ENDBRANCH   1   9
BRANCH   4  23
ATOM     23  C   UNL     1       2.326  -6.085  -1.068  0.00  0.00    +0.022 C 
BRANCH  23  24
ATOM     24  C   UNL     1       3.275  -6.465   0.039  0.00  0.00    +0.211 A 
ATOM     25  N   UNL     1       2.950  -6.782   1.268  0.00  0.00    -0.193 NA
ATOM     26  C   UNL     1       4.118  -7.045   1.896  0.00  0.00    +0.202 A 
ATOM     27  N   UNL     1       5.075  -6.874   1.021  0.00  0.00    -0.056 NA
ATOM     28  O   UNL     1       4.607  -6.546  -0.049  0.00  0.00    -0.340 OA
BRANCH  26  29
ATOM     29  C   UNL     1       4.284  -7.451   3.314  0.00  0.00    +0.023 A 
ATOM     30  C   UNL     1       3.167  -7.589   4.136  0.00  0.00    +0.014 A 
ATOM     31  C   UNL     1       3.325  -7.972   5.452  0.00  0.00    +0.039 A 
ATOM     32  C   UNL     1       4.593  -8.209   5.959  0.00  0.00    +0.123 A 
ATOM     33  C   UNL     1       5.706  -8.068   5.146  0.00  0.00    +0.039 A 
ATOM     34  C   UNL     1       5.556  -7.691   3.828  0.00  0.00    +0.014 A 
ATOM     35  F   UNL     1       4.743  -8.579   7.250  0.00  0.00    -0.205 F 
ENDBRANCH  26  29
ENDBRANCH  23  24
ENDBRANCH   4  23
TORSDOF 9
