REMARK  Name = ZINC08896154
REMARK  9 active torsions:
REMARK  status: ('A' for Active; 'I' for Inactive)
REMARK    1  A    between atoms: C_1  and  C_2
REMARK    2  A    between atoms: C_5  and  C_35
REMARK    3  A    between atoms: N_8  and  S_10
REMARK    4  A    between atoms: S_10  and  C_13
REMARK    5  A    between atoms: C_17  and  C_19
REMARK    6  A    between atoms: N_21  and  C_22
REMARK    7  A    between atoms: C_22  and  C_23
REMARK    8  A    between atoms: C_23  and  C_25
REMARK    9  A    between atoms: C_23  and  N_65
REMARK                            x       y       z     vdW  Elec       q    Type
REMARK                         _______ _______ _______ _____ _____    ______ ____
ROOT
ATOM      1  C   UNL     1      -1.381   1.230   4.995  0.00  0.00    +0.106 A 
ATOM      2  C   UNL     1      -0.553   1.702   5.999  0.00  0.00    +0.030 A 
ATOM      3  C   UNL     1      -0.973   2.731   6.822  0.00  0.00    +0.022 A 
ATOM      4  C   UNL     1      -2.226   3.287   6.654  0.00  0.00    +0.053 A 
ATOM      5  C   UNL     1      -3.067   2.811   5.645  0.00  0.00    +0.057 A 
ATOM      6  C   UNL     1      -2.634   1.775   4.815  0.00  0.00    +0.043 A 
ATOM      7 CL   UNL     1      -2.754   4.574   7.692  0.00  0.00    -0.083 Cl
ENDROOT
BRANCH   5   8
ATOM      8  C   UNL     1      -4.409   3.401   5.458  0.00  0.00    +0.246 C 
ATOM      9  O   UNL     1      -4.783   4.302   6.183  0.00  0.00    -0.270 OA
ATOM     10  N   UNL     1      -5.218   2.939   4.484  0.00  0.00    -0.312 N 
ATOM     11  H   UNL     1      -4.920   2.220   3.906  0.00  0.00    +0.149 HD
BRANCH  10  12
ATOM     12  C   UNL     1      -6.549   3.524   4.298  0.00  0.00    +0.097 C 
BRANCH  12  13
ATOM     13  C   UNL     1      -7.209   2.908   3.063  0.00  0.00    +0.016 C 
BRANCH  13  18
ATOM     14  C   UNL     1      -8.281   5.037   2.569  0.00  0.00    -0.078 C 
ATOM     15  C   UNL     1      -9.568   5.460   1.817  0.00  0.00    -0.020 C 
ATOM     16  C   UNL     1      -9.852   4.244   0.906  0.00  0.00    -0.020 C 
ATOM     17  C   UNL     1      -9.119   3.064   1.571  0.00  0.00    -0.078 C 
ATOM     18  N   UNL     1      -8.504   3.599   2.786  0.00  0.00    +0.387 N 
ATOM     19  H   UNL     1      -9.136   3.462   3.584  0.00  0.00    -0.081 HD
ENDBRANCH  13  18
BRANCH  13  20
ATOM     20  C   UNL     1      -7.457   1.441   3.306  0.00  0.00    +0.093 A 
ATOM     21  C   UNL     1      -6.694   0.429   2.857  0.00  0.00    +0.043 A 
ATOM     22  C   UNL     1      -7.290  -0.768   3.314  0.00  0.00    +0.041 A 
ATOM     23  C   UNL     1      -8.383  -0.416   4.016  0.00  0.00    +0.195 A 
ATOM     24  O   UNL     1      -8.476   0.923   4.012  0.00  0.00    -0.469 OA
ENDBRANCH  13  20
ENDBRANCH  12  13
ENDBRANCH  10  12
ENDBRANCH   5   8
BRANCH   1  25
ATOM     25  S   UNL     1      -0.833  -0.078   3.948  0.00  0.00    +0.061 S 
ATOM     26  O   UNL     1      -2.002  -0.711   3.445  0.00  0.00    -0.153 OA
ATOM     27  O   UNL     1       0.165  -0.785   4.670  0.00  0.00    -0.153 OA
BRANCH  25  33
ATOM     28  C   UNL     1       3.501   0.646   1.407  0.00  0.00    +0.009 C 
ATOM     29  C   UNL     1       2.023   0.255   1.459  0.00  0.00    +0.002 C 
ATOM     30  C   UNL     1       1.319   0.749   0.193  0.00  0.00    +0.009 C 
ATOM     31  C   UNL     1      -0.153   0.329   0.229  0.00  0.00    +0.002 C 
ATOM     32  C   UNL     1      -0.833   0.971   1.442  0.00  0.00    +0.112 C 
ATOM     33  N   UNL     1      -0.075   0.618   2.651  0.00  0.00    -0.176 NA
ATOM     34  C   UNL     1       1.367   0.895   2.686  0.00  0.00    +0.112 C 
ATOM     35  C   UNL     1      -0.847   0.794  -1.052  0.00  0.00    +0.009 C 
ENDBRANCH  25  33
ENDBRANCH   1  25
TORSDOF 7
