REMARK  Name = ZINC61361022
REMARK  4 active torsions:
REMARK  status: ('A' for Active; 'I' for Inactive)
REMARK    1  A    between atoms: C_3  and  N_10
REMARK    2  A    between atoms: C_4  and  N_9
REMARK    3  A    between atoms: C_6  and  C_7
REMARK    4  A    between atoms: N_10  and  C_11
REMARK                            x       y       z     vdW  Elec       q    Type
REMARK                         _______ _______ _______ _____ _____    ______ ____
ROOT
ATOM      1  C   UNL     1      -0.017   1.393   0.010  0.00  0.00    +0.021 A 
ATOM      2  C   UNL     1       1.167   2.099   0.002  0.00  0.00    +0.026 A 
ATOM      3  C   UNL     1       2.381   1.425  -0.013  0.00  0.00    +0.049 A 
ATOM      4  C   UNL     1       2.408   0.028  -0.021  0.00  0.00    +0.047 A 
ATOM      5  C   UNL     1       1.224  -0.684  -0.014  0.00  0.00    +0.043 A 
ATOM      6  C   UNL     1       0.002  -0.004   0.002  0.00  0.00    +0.054 A 
ENDROOT
BRANCH   4   7
ATOM      7  N   UNL     1       3.633  -0.649  -0.038  0.00  0.00    -0.357 N 
ATOM      8  H   UNL     1       4.464  -0.149  -0.043  0.00  0.00    +0.142 HD
ATOM      9  H   UNL     1       3.651  -1.619  -0.043  0.00  0.00    +0.142 HD
ENDBRANCH   4   7
BRANCH   6  10
ATOM     10  C   UNL     1      -1.228  -0.738   0.010  0.00  0.00    +0.099 C 
ATOM     11  N   UNL     1      -2.203  -1.320   0.017  0.00  0.00    -0.191 NA
ENDBRANCH   6  10
BRANCH   3  12
ATOM     12  N   UNL     1       3.576   2.145  -0.021  0.00  0.00    -0.336 N 
ATOM     13  H   UNL     1       4.425   1.675  -0.031  0.00  0.00    +0.147 HD
BRANCH  12  14
ATOM     14  C   UNL     1       3.550   3.609  -0.013  0.00  0.00    +0.101 C 
ATOM     15  C   UNL     1       4.855   4.142   0.581  0.00  0.00    +0.027 C 
ATOM     16  C   UNL     1       4.917   5.665   0.427  0.00  0.00    +0.007 C 
ATOM     17  C   UNL     1       5.114   6.002  -1.058  0.00  0.00    +0.043 C 
ATOM     18  C   UNL     1       4.137   5.200  -1.856  0.00  0.00    -0.005 A 
ATOM     19  C   UNL     1       3.409   4.126  -1.441  0.00  0.00    -0.017 A 
ATOM     20  C   UNL     1       2.555   3.549  -2.381  0.00  0.00    +0.013 A 
ATOM     21  C   UNL     1       2.480   4.058  -3.632  0.00  0.00    +0.046 A 
ATOM     22  S   UNL     1       3.649   5.414  -3.546  0.00  0.00    -0.101 S 
ENDBRANCH  12  14
ENDBRANCH   3  12
TORSDOF 4
