REMARK  Name = ZINC39337391
REMARK  8 active torsions:
REMARK  status: ('A' for Active; 'I' for Inactive)
REMARK    1  A    between atoms: C_4  and  C_7
REMARK    2  A    between atoms: C_7  and  C_8
REMARK    3  A    between atoms: C_8  and  N_9
REMARK    4  A    between atoms: N_9  and  C_10
REMARK    5  A    between atoms: C_10  and  N_12
REMARK    6  A    between atoms: N_12  and  N_13
REMARK    7  A    between atoms: C_14  and  C_15
REMARK    8  A    between atoms: C_23  and  C_25
REMARK                            x       y       z     vdW  Elec       q    Type
REMARK                         _______ _______ _______ _____ _____    ______ ____
ROOT
ATOM      1  C   UNL     1       9.567  -3.982   0.068  0.00  0.00    +0.008 C 
ATOM      2  C   UNL     1       9.085  -3.707  -1.211  0.00  0.00    +0.005 A 
ATOM      3  C   UNL     1       7.923  -3.050  -1.671  0.00  0.00    +0.010 A 
ATOM      4  C   UNL     1       7.705  -2.924  -3.005  0.00  0.00    +0.001 A 
ATOM      5  C   UNL     1       8.606  -3.431  -3.945  0.00  0.00    +0.002 A 
ATOM      6  C   UNL     1       9.741  -4.072  -3.575  0.00  0.00    +0.026 A 
ATOM      7  C   UNL     1      10.038  -4.243  -2.197  0.00  0.00    +0.044 A 
ATOM      8  N   UNL     1      11.055  -4.819  -1.590  0.00  0.00    -0.373 N 
ATOM      9  C   UNL     1      10.875  -4.714  -0.139  0.00  0.00    +0.142 C 
ATOM     10  H   UNL     1      11.806  -5.243  -2.033  0.00  0.00    +0.161 HD
ENDROOT
BRANCH   9  11
ATOM     11  C   UNL     1      12.009  -3.933   0.473  0.00  0.00    -0.021 A 
ATOM     12  C   UNL     1      12.548  -2.854  -0.203  0.00  0.00    +0.007 A 
ATOM     13  C   UNL     1      13.589  -2.137   0.357  0.00  0.00    +0.020 A 
ATOM     14  C   UNL     1      14.090  -2.499   1.595  0.00  0.00    +0.041 A 
ATOM     15  C   UNL     1      13.550  -3.578   2.271  0.00  0.00    +0.020 A 
ATOM     16  C   UNL     1      12.505  -4.291   1.712  0.00  0.00    +0.007 A 
ATOM     17 CL   UNL     1      15.397  -1.599   2.299  0.00  0.00    -0.084 Cl
ENDBRANCH   9  11
BRANCH   1  19
ATOM     18  N   UNL     1       7.825  -3.007   1.304  0.00  0.00    -0.189 NA
ATOM     19  C   UNL     1       8.968  -3.647   1.289  0.00  0.00    +0.137 C 
BRANCH  18  20
ATOM     20  N   UNL     1       7.226  -2.671   2.526  0.00  0.00    -0.218 N 
ATOM     21  H   UNL     1       7.658  -2.912   3.360  0.00  0.00    +0.176 HD
BRANCH  20  22
ATOM     22  C   UNL     1       6.050  -2.013   2.541  0.00  0.00    +0.150 C 
ATOM     23  S   UNL     1       5.319  -1.603   4.034  0.00  0.00    -0.017 S 
BRANCH  22  24
ATOM     24  N   UNL     1       5.450  -1.678   1.382  0.00  0.00    -0.325 N 
ATOM     25  H   UNL     1       5.864  -1.911   0.536  0.00  0.00    +0.148 HD
BRANCH  24  26
ATOM     26  C   UNL     1       4.171  -0.963   1.399  0.00  0.00    +0.108 C 
BRANCH  26  27
ATOM     27  C   UNL     1       3.711  -0.707  -0.038  0.00  0.00    +0.054 C 
BRANCH  27  31
ATOM     28  C   UNL     1      -0.017   1.378   0.010  0.00  0.00    +0.000 A 
ATOM     29  C   UNL     1       1.171   2.086   0.002  0.00  0.00    +0.000 A 
ATOM     30  C   UNL     1       2.377   1.411  -0.013  0.00  0.00    +0.004 A 
ATOM     31  C   UNL     1       2.396   0.029  -0.020  0.00  0.00    -0.046 A 
ATOM     32  C   UNL     1       1.208  -0.679  -0.012  0.00  0.00    +0.004 A 
ATOM     33  C   UNL     1       0.002  -0.004   0.002  0.00  0.00    +0.000 A 
ENDBRANCH  27  31
ENDBRANCH  26  27
ENDBRANCH  24  26
ENDBRANCH  22  24
ENDBRANCH  20  22
ENDBRANCH  18  20
ENDBRANCH   1  19
TORSDOF 8
