REMARK  Name = ZINC38650694
REMARK  14 active torsions:
REMARK  status: ('A' for Active; 'I' for Inactive)
REMARK    1  A    between atoms: C_1  and  C_2
REMARK    2  A    between atoms: C_2  and  C_3
REMARK    3  A    between atoms: C_3  and  O_4
REMARK    4  A    between atoms: O_4  and  C_5
REMARK    5  A    between atoms: C_8  and  C_11
REMARK    6  A    between atoms: C_16  and  O_25
REMARK    7  A    between atoms: C_20  and  N_24
REMARK    8  A    between atoms: C_21  and  C_22
REMARK    9  A    between atoms: O_25  and  C_26
REMARK   10  A    between atoms: C_26  and  C_28
REMARK   11  A    between atoms: C_28  and  O_29
REMARK   12  A    between atoms: O_29  and  C_30
REMARK   13  A    between atoms: C_33  and  C_37
REMARK   14  A    between atoms: C_34  and  C_36
REMARK                            x       y       z     vdW  Elec       q    Type
REMARK                         _______ _______ _______ _____ _____    ______ ____
ROOT
ATOM      1  C   UNL     1       3.353  -4.532   5.497  0.00  0.00    +0.098 C 
ATOM      2  C   UNL     1       2.364  -5.396   6.234  0.00  0.00    +0.008 A 
ATOM      3  C   UNL     1       1.506  -4.816   7.152  0.00  0.00    +0.012 A 
ATOM      4  C   UNL     1       0.592  -5.593   7.837  0.00  0.00    +0.047 A 
ATOM      5  C   UNL     1       0.533  -6.960   7.607  0.00  0.00    +0.135 A 
ATOM      6  C   UNL     1       1.391  -7.543   6.689  0.00  0.00    +0.093 A 
ATOM      7  C   UNL     1       2.309  -6.761   6.000  0.00  0.00    +0.138 A 
ATOM      8  O   UNL     1       3.142  -7.347   5.105  0.00  0.00    -0.441 OA
ATOM      9  C   UNL     1       4.266  -6.717   4.723  0.00  0.00    +0.199 C 
ATOM     10  C   UNL     1       4.426  -5.385   4.881  0.00  0.00    +0.098 C 
ENDROOT
BRANCH   1  14
ATOM     11  C   UNL     1       1.325  -2.369   2.419  0.00  0.00    +0.121 A 
ATOM     12  C   UNL     1       1.985  -1.685   3.430  0.00  0.00    +0.046 A 
ATOM     13  C   UNL     1       2.639  -2.387   4.424  0.00  0.00    +0.008 A 
ATOM     14  C   UNL     1       2.637  -3.769   4.412  0.00  0.00    -0.034 A 
ATOM     15  C   UNL     1       1.981  -4.454   3.406  0.00  0.00    +0.008 A 
ATOM     16  C   UNL     1       1.319  -3.757   2.413  0.00  0.00    +0.046 A 
BRANCH  11  17
ATOM     17  O   UNL     1       0.679  -1.682   1.441  0.00  0.00    -0.492 OA
BRANCH  17  18
ATOM     18  C   UNL     1       0.727  -0.255   1.511  0.00  0.00    +0.229 C 
BRANCH  18  20
ATOM     19  C   UNL     1       0.002   1.867   0.409  0.00  0.00    +0.007 C 
ATOM     20  C   UNL     1      -0.049   0.339   0.334  0.00  0.00    +0.038 C 
ENDBRANCH  18  20
ENDBRANCH  17  18
ENDBRANCH  11  17
ENDBRANCH   1  14
BRANCH   9  21
ATOM     21  N   UNL     1       5.279  -7.449   4.157  0.00  0.00    -0.328 N 
ATOM     22  H   UNL     1       5.178  -8.406   4.036  0.00  0.00    +0.145 HD
ATOM     23  H   UNL     1       6.097  -7.008   3.876  0.00  0.00    +0.145 HD
ENDBRANCH   9  21
BRANCH  10  24
ATOM     24  C   UNL     1       5.648  -4.774   4.452  0.00  0.00    +0.101 C 
ATOM     25  N   UNL     1       6.617  -4.290   4.111  0.00  0.00    -0.191 NA
ENDBRANCH  10  24
BRANCH   5  26
ATOM     26  O   UNL     1      -0.365  -7.726   8.281  0.00  0.00    -0.423 OA
BRANCH  26  27
ATOM     27  C   UNL     1       0.105  -8.590   9.195  0.00  0.00    +0.350 C 
ATOM     28  O   UNL     1       1.281  -8.597   9.473  0.00  0.00    -0.247 OA
BRANCH  27  29
ATOM     29  C   UNL     1      -0.835  -9.552   9.876  0.00  0.00    +0.349 C 
BRANCH  29  30
ATOM     30  O   UNL     1      -0.104 -10.360  10.799  0.00  0.00    -0.481 OA
BRANCH  30  31
ATOM     31  C   UNL     1      -0.808 -11.287  11.501  0.00  0.00    +0.122 A 
ATOM     32  C   UNL     1      -2.175 -11.418  11.301  0.00  0.00    +0.046 A 
ATOM     33  C   UNL     1      -2.888 -12.361  12.015  0.00  0.00    +0.007 A 
ATOM     34  C   UNL     1      -2.242 -13.173  12.929  0.00  0.00    -0.047 A 
ATOM     35  C   UNL     1      -0.880 -13.043  13.130  0.00  0.00    -0.044 A 
ATOM     36  C   UNL     1      -0.161 -12.106  12.414  0.00  0.00    +0.049 A 
ATOM     37  C   UNL     1      -0.179 -13.929  14.127  0.00  0.00    +0.044 C 
ATOM     38  C   UNL     1      -3.023 -14.200  13.707  0.00  0.00    +0.044 C 
ENDBRANCH  30  31
ENDBRANCH  29  30
ENDBRANCH  27  29
ENDBRANCH  26  27
ENDBRANCH   5  26
TORSDOF 11
