REMARK  Name = ZINC28727605
REMARK  8 active torsions:
REMARK  status: ('A' for Active; 'I' for Inactive)
REMARK    1  A    between atoms: C_1  and  C_2
REMARK    2  A    between atoms: C_2  and  C_4
REMARK    3  A    between atoms: C_2  and  N_14
REMARK    4  A    between atoms: C_7  and  S_10
REMARK    5  A    between atoms: S_10  and  N_13
REMARK    6  A    between atoms: N_14  and  C_15
REMARK    7  A    between atoms: N_14  and  C_16
REMARK    8  A    between atoms: C_16  and  C_17
REMARK                            x       y       z     vdW  Elec       q    Type
REMARK                         _______ _______ _______ _____ _____    ______ ____
ROOT
ATOM      1  N   UNL     1      -2.338   3.805   5.903  0.00  0.00    +0.385 N 
ATOM      2  C   UNL     1      -1.977   5.140   5.409  0.00  0.00    -0.095 C 
ATOM      3  H   UNL     1      -1.433   3.180   5.882  0.00  0.00    -0.081 HD
ENDROOT
BRANCH   1   5
ATOM      4  C   UNL     1      -2.900   3.300   3.573  0.00  0.00    -0.008 C 
ATOM      5  C   UNL     1      -3.341   3.175   5.033  0.00  0.00    -0.041 C 
BRANCH   5   6
ATOM      6  C   UNL     1      -3.475   1.718   5.394  0.00  0.00    -0.061 A 
ATOM      7  C   UNL     1      -4.722   1.186   5.664  0.00  0.00    +0.004 A 
ATOM      8  C   UNL     1      -4.845  -0.151   5.996  0.00  0.00    +0.029 A 
ATOM      9  C   UNL     1      -3.722  -0.954   6.057  0.00  0.00    +0.105 A 
ATOM     10  C   UNL     1      -2.475  -0.420   5.791  0.00  0.00    +0.029 A 
ATOM     11  C   UNL     1      -2.352   0.915   5.454  0.00  0.00    +0.004 A 
BRANCH   9  12
ATOM     12  S   UNL     1      -3.879  -2.657   6.480  0.00  0.00    +0.056 S 
ATOM     13  O   UNL     1      -5.086  -2.783   7.219  0.00  0.00    -0.153 OA
ATOM     14  O   UNL     1      -2.621  -3.064   7.000  0.00  0.00    -0.153 OA
BRANCH  12  15
ATOM     15  N   UNL     1      -4.100  -3.494   5.068  0.00  0.00    -0.204 NA
ATOM     16  H   UNL     1      -4.203  -4.567   5.290  0.00  0.00    +0.144 HD
ATOM     17  H   UNL     1      -3.233  -3.338   4.409  0.00  0.00    +0.144 HD
ENDBRANCH  12  15
ENDBRANCH   9  12
ENDBRANCH   5   6
ENDBRANCH   1   5
BRANCH   1  18
ATOM     18  C   UNL     1      -2.812   3.868   7.292  0.00  0.00    -0.041 C 
BRANCH  18  19
ATOM     19  C   UNL     1      -1.678   4.288   8.191  0.00  0.00    -0.046 A 
ATOM     20  C   UNL     1      -1.636   5.575   8.693  0.00  0.00    +0.052 A 
ATOM     21  C   UNL     1      -0.597   5.963   9.525  0.00  0.00    +0.162 A 
ATOM     22  C   UNL     1       0.408   5.056   9.845  0.00  0.00    +0.163 A 
ATOM     23  C   UNL     1       0.364   3.768   9.333  0.00  0.00    +0.065 A 
ATOM     24  C   UNL     1      -0.678   3.387   8.507  0.00  0.00    +0.023 A 
ATOM     25 BR   UNL     1      -0.735   1.630   7.809  0.00  0.00    -0.050 Br
ATOM     26  O   UNL     1       1.437   5.416  10.660  0.00  0.00    -0.485 OA
ATOM     27  C   UNL     1       1.645   6.820  10.852  0.00  0.00    +0.270 C 
ATOM     28  C   UNL     1       0.286   7.472  11.136  0.00  0.00    +0.270 C 
ATOM     29  O   UNL     1      -0.570   7.233  10.014  0.00  0.00    -0.485 OA
ENDBRANCH  18  19
ENDBRANCH   1  18
TORSDOF 6
