REMARK  Name = ZINC29990118
REMARK  11 active torsions:
REMARK  status: ('A' for Active; 'I' for Inactive)
REMARK    1  A    between atoms: C_1  and  C_2
REMARK    2  A    between atoms: C_2  and  O_3
REMARK    3  A    between atoms: O_3  and  C_4
REMARK    4  A    between atoms: C_9  and  N_10
REMARK    5  A    between atoms: C_11  and  S_15
REMARK    6  A    between atoms: S_15  and  C_16
REMARK    7  A    between atoms: C_16  and  C_17
REMARK    8  A    between atoms: C_17  and  O_18
REMARK    9  A    between atoms: O_18  and  C_19
REMARK   10  A    between atoms: C_24  and  C_25
REMARK   11  A    between atoms: C_25  and  C_27
REMARK                            x       y       z     vdW  Elec       q    Type
REMARK                         _______ _______ _______ _____ _____    ______ ____
ROOT
ATOM      1  N   UNL     1       0.019   1.075   4.078  0.00  0.00    -0.184 N 
ATOM      2  C   UNL     1       0.258   1.073   2.743  0.00  0.00    +0.214 A 
ATOM      3  N   UNL     1       1.294   0.289   2.537  0.00  0.00    -0.101 NA
ATOM      4  N   UNL     1       1.715  -0.200   3.647  0.00  0.00    -0.022 NA
ATOM      5  N   UNL     1       0.994   0.224   4.628  0.00  0.00    -0.038 NA
ENDROOT
BRANCH   1  11
ATOM      6  C   UNL     1      -0.673   2.501   5.910  0.00  0.00    +0.146 A 
ATOM      7  C   UNL     1      -1.669   3.194   6.580  0.00  0.00    +0.048 A 
ATOM      8  C   UNL     1      -2.970   3.154   6.117  0.00  0.00    +0.004 A 
ATOM      9  C   UNL     1      -3.282   2.429   4.981  0.00  0.00    +0.002 A 
ATOM     10  C   UNL     1      -2.294   1.740   4.305  0.00  0.00    +0.031 A 
ATOM     11  C   UNL     1      -0.986   1.775   4.764  0.00  0.00    +0.111 A 
BRANCH   6  12
ATOM     12  O   UNL     1       0.607   2.535   6.368  0.00  0.00    -0.490 OA
BRANCH  12  14
ATOM     13  C   UNL     1       2.338   3.220   7.908  0.00  0.00    +0.048 C 
ATOM     14  C   UNL     1       0.853   3.300   7.549  0.00  0.00    +0.226 C 
ENDBRANCH  12  14
ENDBRANCH   6  12
ENDBRANCH   1  11
BRANCH   2  15
ATOM     15  S   UNL     1      -0.646   1.959   1.516  0.00  0.00    -0.081 S 
BRANCH  15  16
ATOM     16  C   UNL     1       0.264   1.458   0.033  0.00  0.00    +0.118 C 
BRANCH  16  17
ATOM     17  C   UNL     1      -0.359   2.124  -1.196  0.00  0.00    +0.240 C 
BRANCH  17  18
ATOM     18  O   UNL     1       0.359   1.728  -2.366  0.00  0.00    -0.490 OA
BRANCH  18  19
ATOM     19  C   UNL     1      -0.068   2.233  -3.550  0.00  0.00    +0.131 A 
ATOM     20  C   UNL     1      -1.159   3.089  -3.590  0.00  0.00    +0.046 A 
ATOM     21  C   UNL     1      -1.588   3.607  -4.795  0.00  0.00    +0.004 A 
ATOM     22  C   UNL     1      -0.943   3.270  -5.975  0.00  0.00    +0.001 A 
ATOM     23  C   UNL     1       0.138   2.418  -5.958  0.00  0.00    +0.015 A 
ATOM     24  C   UNL     1       0.590   1.889  -4.743  0.00  0.00    +0.059 A 
BRANCH  24  25
ATOM     25  C   UNL     1       1.742   0.980  -4.715  0.00  0.00    +0.164 C 
ATOM     26  O   UNL     1       2.129   0.523  -3.660  0.00  0.00    -0.292 OA
ATOM     27  C   UNL     1       2.443   0.613  -5.998  0.00  0.00    +0.092 C 
ENDBRANCH  24  25
ENDBRANCH  18  19
ENDBRANCH  17  18
ENDBRANCH  16  17
ENDBRANCH  15  16
ENDBRANCH   2  15
TORSDOF 9
