REMARK  Name = ZINC11831143
REMARK  10 active torsions:
REMARK  status: ('A' for Active; 'I' for Inactive)
REMARK    1  A    between atoms: C_1  and  C_2
REMARK    2  A    between atoms: C_2  and  O_3
REMARK    3  A    between atoms: O_3  and  C_4
REMARK    4  A    between atoms: C_7  and  N_10
REMARK    5  A    between atoms: C_11  and  C_15
REMARK    6  A    between atoms: C_15  and  N_59
REMARK    7  A    between atoms: N_18  and  S_21
REMARK    8  A    between atoms: S_21  and  C_24
REMARK    9  A    between atoms: C_26  and  N_31
REMARK   10  A    between atoms: C_29  and  C_30
REMARK                            x       y       z     vdW  Elec       q    Type
REMARK                         _______ _______ _______ _____ _____    ______ ____
ROOT
ATOM      1  C   UNL     1       3.114  -1.381  -2.412  0.00  0.00    -0.061 C 
ATOM      2  C   UNL     1       3.502  -1.317  -3.893  0.00  0.00    +0.091 C 
ATOM      3  N   UNL     1       4.912  -0.908  -3.989  0.00  0.00    -0.180 NA
ATOM      4  C   UNL     1       5.339   0.294  -3.256  0.00  0.00    +0.091 C 
ATOM      5  C   UNL     1       4.878   0.166  -1.800  0.00  0.00    -0.061 C 
ATOM      6  N   UNL     1       3.420  -0.077  -1.783  0.00  0.00    +0.386 N 
ATOM      7  H   UNL     1       2.952   0.666  -2.315  0.00  0.00    -0.081 HD
ENDROOT
BRANCH   3   8
ATOM      8  S   UNL     1       5.989  -1.777  -4.897  0.00  0.00    +0.061 S 
ATOM      9  O   UNL     1       5.247  -2.363  -5.957  0.00  0.00    -0.153 OA
ATOM     10  O   UNL     1       7.105  -0.928  -5.127  0.00  0.00    -0.153 OA
BRANCH   8  11
ATOM     11  C   UNL     1       6.565  -3.105  -3.892  0.00  0.00    +0.111 A 
ATOM     12  C   UNL     1       6.210  -4.406  -4.195  0.00  0.00    +0.061 A 
ATOM     13  C   UNL     1       6.665  -5.448  -3.409  0.00  0.00    +0.128 A 
ATOM     14  C   UNL     1       7.469  -5.188  -2.315  0.00  0.00    +0.033 A 
ATOM     15  C   UNL     1       7.820  -3.887  -2.009  0.00  0.00    +0.007 A 
ATOM     16  C   UNL     1       7.368  -2.845  -2.797  0.00  0.00    -0.024 A 
ATOM     17  C   UNL     1       7.751  -1.427  -2.464  0.00  0.00    +0.046 C 
BRANCH  13  18
ATOM     18  N   UNL     1       6.288  -6.842  -3.736  0.00  0.00    +0.056 N 
ATOM     19  O   UNL     1       6.686  -7.759  -3.042  0.00  0.00    -0.126 OA
ATOM     20  O   UNL     1       5.580  -7.071  -4.700  0.00  0.00    -0.126 OA
ENDBRANCH  13  18
ENDBRANCH   8  11
ENDBRANCH   3   8
BRANCH   6  21
ATOM     21  C   UNL     1       2.921  -0.059  -0.393  0.00  0.00    +0.001 C 
BRANCH  21  23
ATOM     22  N   UNL     1       0.591   0.980  -0.381  0.00  0.00    -0.199 N 
ATOM     23  C   UNL     1       1.415  -0.090  -0.417  0.00  0.00    +0.140 A 
ATOM     24  N   UNL     1       0.662  -1.157  -0.476  0.00  0.00    -0.115 NA
ATOM     25  N   UNL     1      -0.581  -0.835  -0.480  0.00  0.00    -0.023 NA
ATOM     26  N   UNL     1      -0.709   0.447  -0.424  0.00  0.00    -0.039 NA
BRANCH  22  30
ATOM     27  C   UNL     1       1.673   5.005  -0.185  0.00  0.00    +0.121 A 
ATOM     28  C   UNL     1       2.373   4.138  -1.012  0.00  0.00    +0.048 A 
ATOM     29  C   UNL     1       2.015   2.806  -1.077  0.00  0.00    +0.031 A 
ATOM     30  C   UNL     1       0.956   2.334  -0.315  0.00  0.00    +0.069 A 
ATOM     31  C   UNL     1       0.252   3.203   0.509  0.00  0.00    +0.031 A 
ATOM     32  C   UNL     1       0.614   4.533   0.577  0.00  0.00    +0.048 A 
BRANCH  27  33
ATOM     33  O   UNL     1       2.026   6.316  -0.121  0.00  0.00    -0.492 OA
BRANCH  33  35
ATOM     34  C   UNL     1       1.802   8.581   0.690  0.00  0.00    +0.048 C 
ATOM     35  C   UNL     1       1.262   7.151   0.751  0.00  0.00    +0.225 C 
ENDBRANCH  33  35
ENDBRANCH  27  33
ENDBRANCH  22  30
ENDBRANCH  21  23
ENDBRANCH   6  21
TORSDOF 8
