REMARK  Name = ZINC03205651
REMARK  9 active torsions:
REMARK  status: ('A' for Active; 'I' for Inactive)
REMARK    1  A    between atoms: C_1  and  C_2
REMARK    2  A    between atoms: C_2  and  N_3
REMARK    3  A    between atoms: N_3  and  C_4
REMARK    4  A    between atoms: N_3  and  P_6
REMARK    5  A    between atoms: C_4  and  C_5
REMARK    6  A    between atoms: C_9  and  N_64
REMARK    7  A    between atoms: C_11  and  C_22
REMARK    8  A    between atoms: C_11  and  C_23
REMARK    9  A    between atoms: N_15  and  C_16
REMARK                            x       y       z     vdW  Elec       q    Type
REMARK                         _______ _______ _______ _____ _____    ______ ____
ROOT
ATOM      1  P   UNL     1       1.597   1.018   3.014  0.00  0.00    +0.124 P 
ATOM      2  S   UNL     1       2.308  -0.178   1.774  0.00  0.00    -0.024 S 
ATOM      3  C   UNL     1       0.005   1.689   2.454  0.00  0.00    +0.052 C 
ATOM      4  C   UNL     1      -1.149   1.138   2.131  0.00  0.00    +0.004 C 
ATOM      5  C   UNL     1      -2.241   2.064   1.635  0.00  0.00    +0.060 C 
ATOM      6  C   UNL     1      -2.167   3.425   2.310  0.00  0.00    -0.010 C 
ATOM      7  C   UNL     1      -0.775   4.001   2.329  0.00  0.00    +0.005 C 
ATOM      8  C   UNL     1       0.269   3.154   2.439  0.00  0.00    +0.054 C 
ATOM      9  N   UNL     1       1.598   3.439   2.637  0.00  0.00    -0.259 N 
ATOM     10  N   UNL     1       2.470   2.433   3.068  0.00  0.00    -0.209 N 
ATOM     11  C   UNL     1      -3.091   4.393   1.568  0.00  0.00    +0.015 C 
ATOM     12  C   UNL     1      -2.662   3.286   3.752  0.00  0.00    +0.015 C 
ATOM     13  H   UNL     1       1.931   4.336   2.479  0.00  0.00    +0.171 HD
ENDROOT
BRANCH   4  19
ATOM     14  C   UNL     1      -2.139  -0.775   3.353  0.00  0.00    +0.085 C 
ATOM     15  C   UNL     1      -3.252  -1.661   2.772  0.00  0.00    +0.017 C 
ATOM     16  C   UNL     1      -2.628  -2.719   1.858  0.00  0.00    +0.003 C 
ATOM     17  C   UNL     1      -1.905  -2.031   0.698  0.00  0.00    +0.017 C 
ATOM     18  C   UNL     1      -0.782  -1.148   1.253  0.00  0.00    +0.085 C 
ATOM     19  N   UNL     1      -1.650  -0.196   2.044  0.00  0.00    -0.396 NA
ATOM     20  H   UNL     1      -2.501  -0.096   1.477  0.00  0.00    +0.126 HD
ENDBRANCH   4  19
BRANCH  10  21
ATOM     21  C   UNL     1       3.802   2.586   3.462  0.00  0.00    +0.054 A 
ATOM     22  C   UNL     1       4.567   1.470   3.777  0.00  0.00    +0.025 A 
ATOM     23  C   UNL     1       5.885   1.625   4.161  0.00  0.00    +0.002 A 
ATOM     24  C   UNL     1       6.439   2.889   4.243  0.00  0.00    +0.000 A 
ATOM     25  C   UNL     1       5.678   4.002   3.935  0.00  0.00    +0.002 A 
ATOM     26  C   UNL     1       4.362   3.855   3.545  0.00  0.00    +0.025 A 
ENDBRANCH  10  21
BRANCH   1  27
ATOM     27  N   UNL     1       1.468   0.314   4.537  0.00  0.00    -0.259 NA
BRANCH  27  29
ATOM     28  C   UNL     1       1.567   2.330   5.924  0.00  0.00    +0.021 C 
ATOM     29  C   UNL     1       0.693   1.168   5.447  0.00  0.00    +0.087 C 
ENDBRANCH  27  29
BRANCH  27  30
ATOM     30  C   UNL     1       0.881  -1.029   4.448  0.00  0.00    +0.087 C 
ATOM     31  C   UNL     1       1.905  -2.065   4.918  0.00  0.00    +0.021 C 
ENDBRANCH  27  30
ENDBRANCH   1  27
TORSDOF 5
