REMARK  Name = ZINC14140680
REMARK  6 active torsions:
REMARK  status: ('A' for Active; 'I' for Inactive)
REMARK    1  A    between atoms: C_6  and  C_7
REMARK    2  A    between atoms: C_12  and  C_13
REMARK    3  A    between atoms: C_12  and  N_58
REMARK    4  A    between atoms: C_13  and  C_14
REMARK    5  A    between atoms: N_16  and  C_17
REMARK    6  A    between atoms: C_18  and  C_26
REMARK                            x       y       z     vdW  Elec       q    Type
REMARK                         _______ _______ _______ _____ _____    ______ ____
ROOT
ATOM      1  C   UNL     1      -3.180   1.161  -1.499  0.00  0.00    -0.069 C 
ENDROOT
BRANCH   1   6
ATOM      2  C   UNL     1      -2.265   1.531   0.720  0.00  0.00    -0.038 C 
ATOM      3  C   UNL     1      -0.801   1.617   1.234  0.00  0.00    -0.013 C 
ATOM      4  C   UNL     1      -0.013   1.086   0.008  0.00  0.00    -0.020 C 
ATOM      5  C   UNL     1      -0.820   1.627  -1.191  0.00  0.00    -0.078 C 
ATOM      6  N   UNL     1      -2.180   1.916  -0.701  0.00  0.00    +0.385 N 
ATOM      7  H   UNL     1      -2.367   2.921  -0.791  0.00  0.00    -0.081 HD
BRANCH   2  13
ATOM      8  C   UNL     1      -3.069   3.855   1.182  0.00  0.00    +0.006 A 
ATOM      9  C   UNL     1      -3.873   4.750   1.861  0.00  0.00    +0.049 A 
ATOM     10  C   UNL     1      -4.746   4.297   2.838  0.00  0.00    +0.162 A 
ATOM     11  C   UNL     1      -4.816   2.939   3.127  0.00  0.00    +0.162 A 
ATOM     12  C   UNL     1      -4.010   2.046   2.438  0.00  0.00    +0.051 A 
ATOM     13  C   UNL     1      -3.140   2.504   1.466  0.00  0.00    -0.057 A 
ATOM     14  O   UNL     1      -5.672   2.472   4.076  0.00  0.00    -0.485 OA
ATOM     15  C   UNL     1      -6.192   3.432   5.002  0.00  0.00    +0.270 C 
ATOM     16  C   UNL     1      -6.653   4.663   4.211  0.00  0.00    +0.270 C 
ATOM     17  O   UNL     1      -5.524   5.192   3.507  0.00  0.00    -0.485 OA
ENDBRANCH   2  13
ENDBRANCH   1   6
BRANCH   1  18
ATOM     18  C   UNL     1      -3.255   1.754  -2.908  0.00  0.00    +0.077 C 
BRANCH  18  19
ATOM     19  C   UNL     1      -4.275   0.996  -3.718  0.00  0.00    +0.216 C 
ATOM     20  O   UNL     1      -4.882   0.073  -3.218  0.00  0.00    -0.276 OA
ATOM     21  N   UNL     1      -4.513   1.344  -4.998  0.00  0.00    -0.279 N 
ATOM     22  H   UNL     1      -4.027   2.083  -5.398  0.00  0.00    +0.155 HD
BRANCH  21  23
ATOM     23  C   UNL     1      -5.452   0.646  -5.745  0.00  0.00    +0.090 A 
ATOM     24  C   UNL     1      -5.835   0.856  -7.061  0.00  0.00    +0.084 A 
ATOM     25  C   UNL     1      -6.848  -0.026  -7.615  0.00  0.00    -0.018 A 
ATOM     26  C   UNL     1      -7.320  -0.965  -6.765  0.00  0.00    -0.004 A 
ATOM     27  S   UNL     1      -6.435  -0.694  -5.256  0.00  0.00    -0.077 S 
ATOM     28  C   UNL     1      -8.364  -1.999  -7.052  0.00  0.00    +0.043 C 
ATOM     29  C   UNL     1      -9.095  -1.603  -8.343  0.00  0.00    +0.005 C 
ATOM     30  C   UNL     1      -8.056  -1.244  -9.408  0.00  0.00    +0.005 C 
ATOM     31  C   UNL     1      -7.369   0.073  -9.043  0.00  0.00    +0.037 C 
BRANCH  24  32
ATOM     32  C   UNL     1      -5.251   1.901  -7.846  0.00  0.00    +0.102 C 
ATOM     33  N   UNL     1      -4.788   2.730  -8.470  0.00  0.00    -0.191 NA
ENDBRANCH  24  32
ENDBRANCH  21  23
ENDBRANCH  18  19
ENDBRANCH   1  18
TORSDOF 6
