REMARK  Name = ZINC46915772
REMARK  4 active torsions:
REMARK  status: ('A' for Active; 'I' for Inactive)
REMARK    1  A    between atoms: C_1  and  C_2
REMARK    2  A    between atoms: C_2  and  C_3
REMARK    3  A    between atoms: N_15  and  C_16
REMARK    4  A    between atoms: C_16  and  C_17
REMARK                            x       y       z     vdW  Elec       q    Type
REMARK                         _______ _______ _______ _____ _____    ______ ____
ROOT
ATOM      1  C   UNL     1       0.745  -0.515   1.244  0.00  0.00    +0.108 C 
ATOM      2  C   UNL     1       0.861  -2.037   1.194  0.00  0.00    -0.017 A 
ATOM      3  C   UNL     1       1.730  -2.709   0.336  0.00  0.00    +0.013 A 
ATOM      4  C   UNL     1       1.777  -4.061   0.342  0.00  0.00    +0.046 A 
ATOM      5  S   UNL     1       0.567  -4.465   1.593  0.00  0.00    -0.101 S 
ATOM      6  C   UNL     1       0.094  -2.808   2.012  0.00  0.00    -0.004 A 
ATOM      7  C   UNL     1      -0.907  -2.357   3.026  0.00  0.00    +0.062 C 
ATOM      8  C   UNL     1      -1.258  -0.886   2.751  0.00  0.00    +0.115 C 
ATOM      9  N   UNL     1      -0.013  -0.161   2.452  0.00  0.00    -0.278 N 
ATOM     10  C   UNL     1       0.426   0.813   3.274  0.00  0.00    +0.303 C 
ATOM     11  O   UNL     1      -0.252   1.161   4.221  0.00  0.00    -0.253 OA
ATOM     12  N   UNL     1       1.618   1.400   3.046  0.00  0.00    -0.291 N 
ATOM     13  H   UNL     1       2.125   1.176   2.250  0.00  0.00    +0.151 HD
ENDROOT
BRANCH   1  15
ATOM     14  C   UNL     1      -0.014   1.520   0.009  0.00  0.00    +0.006 C 
ATOM     15  C   UNL     1       0.006  -0.010   0.003  0.00  0.00    +0.024 C 
ENDBRANCH   1  15
BRANCH  12  16
ATOM     16  C   UNL     1       2.147   2.378   4.000  0.00  0.00    +0.218 C 
BRANCH  16  17
ATOM     17  C   UNL     1       3.502   2.889   3.508  0.00  0.00    +0.405 C 
ATOM     18  F   UNL     1       3.346   3.495   2.257  0.00  0.00    -0.169 F 
ATOM     19  F   UNL     1       4.008   3.822   4.419  0.00  0.00    -0.169 F 
ATOM     20  F   UNL     1       4.393   1.815   3.398  0.00  0.00    -0.169 F 
ENDBRANCH  16  17
ENDBRANCH  12  16
TORSDOF 3
