REMARK  Name = ZINC23483478
REMARK  15 active torsions:
REMARK  status: ('A' for Active; 'I' for Inactive)
REMARK    1  A    between atoms: C_1  and  C_2
REMARK    2  A    between atoms: C_2  and  C_3
REMARK    3  A    between atoms: C_3  and  C_5
REMARK    4  A    between atoms: C_3  and  N_34
REMARK    5  A    between atoms: C_8  and  S_17
REMARK    6  A    between atoms: N_9  and  C_10
REMARK    7  A    between atoms: C_10  and  C_11
REMARK    8  A    between atoms: S_17  and  C_18
REMARK    9  A    between atoms: C_18  and  C_19
REMARK   10  A    between atoms: C_19  and  C_20
REMARK   11  A    between atoms: C_20  and  N_21
REMARK   12  A    between atoms: N_28  and  C_29
REMARK   13  A    between atoms: N_30  and  C_33
REMARK   14  A    between atoms: N_34  and  C_35
REMARK   15  A    between atoms: N_34  and  C_36
REMARK                            x       y       z     vdW  Elec       q    Type
REMARK                         _______ _______ _______ _____ _____    ______ ____
ROOT
ATOM      1  C   UNL     1      -0.472   3.427  -1.406  0.00  0.00    +0.121 A 
ATOM      2  N   UNL     1      -0.618   4.343  -0.490  0.00  0.00    -0.135 NA
ATOM      3  N   UNL     1      -0.366   5.503  -0.982  0.00  0.00    -0.123 NA
ATOM      4  C   UNL     1      -0.042   5.389  -2.249  0.00  0.00    +0.192 A 
ATOM      5  N   UNL     1      -0.094   4.061  -2.558  0.00  0.00    -0.303 N 
ENDROOT
BRANCH   1   6
ATOM      6  C   UNL     1      -0.674   1.945  -1.227  0.00  0.00    +0.000 C 
BRANCH   6   7
ATOM      7  N   UNL     1      -0.032   1.510   0.021  0.00  0.00    +0.383 N 
ATOM      8  C   UNL     1       1.414   1.766  -0.015  0.00  0.00    -0.096 C 
ATOM      9  C   UNL     1      -0.653   2.156   1.185  0.00  0.00    -0.096 C 
ATOM     10  H   UNL     1      -0.181   0.424   0.117  0.00  0.00    -0.082 HD
ENDBRANCH   6   7
BRANCH   6  12
ATOM     11  C   UNL     1      -2.379   0.127  -1.052  0.00  0.00    +0.002 C 
ATOM     12  C   UNL     1      -2.172   1.639  -1.163  0.00  0.00    -0.011 C 
ENDBRANCH   6  12
ENDBRANCH   1   6
BRANCH   5  13
ATOM     13  C   UNL     1       0.191   3.442  -3.854  0.00  0.00    +0.160 C 
BRANCH  13  14
ATOM     14  C   UNL     1      -1.075   3.372  -4.668  0.00  0.00    -0.028 A 
ATOM     15  C   UNL     1      -1.891   2.259  -4.583  0.00  0.00    +0.005 A 
ATOM     16  C   UNL     1      -3.055   2.197  -5.325  0.00  0.00    +0.000 A 
ATOM     17  C   UNL     1      -3.399   3.244  -6.161  0.00  0.00    +0.000 A 
ATOM     18  C   UNL     1      -2.581   4.354  -6.250  0.00  0.00    +0.000 A 
ATOM     19  C   UNL     1      -1.419   4.418  -5.503  0.00  0.00    +0.005 A 
ENDBRANCH  13  14
ENDBRANCH   5  13
BRANCH   4  20
ATOM     20  S   UNL     1       0.386   6.703  -3.343  0.00  0.00    -0.086 S 
BRANCH  20  21
ATOM     21  C   UNL     1       0.235   8.112  -2.216  0.00  0.00    +0.079 C 
BRANCH  21  22
ATOM     22  C   UNL     1       0.569   9.403  -2.966  0.00  0.00    +0.033 C 
BRANCH  22  23
ATOM     23  C   UNL     1       0.441  10.594  -2.014  0.00  0.00    +0.131 C 
BRANCH  23  24
ATOM     24  N   UNL     1       0.761  11.830  -2.733  0.00  0.00    -0.259 N 
ATOM     25  C   UNL     1      -0.223  12.509  -3.358  0.00  0.00    +0.282 A 
ATOM     26  O   UNL     1      -1.369  12.100  -3.327  0.00  0.00    -0.265 OA
ATOM     27  C   UNL     1       0.093  13.699  -4.048  0.00  0.00    +0.151 A 
ATOM     28  C   UNL     1       1.409  14.142  -4.067  0.00  0.00    +0.168 A 
ATOM     29  N   UNL     1       1.436  15.273  -4.777  0.00  0.00    -0.218 NA
ATOM     30  C   UNL     1       0.231  15.560  -5.200  0.00  0.00    +0.202 A 
ATOM     31  N   UNL     1      -0.635  14.619  -4.776  0.00  0.00    -0.328 N 
ATOM     32  C   UNL     1      -2.076  14.579  -5.039  0.00  0.00    +0.150 C 
ATOM     33  N   UNL     1       2.374  13.401  -3.405  0.00  0.00    -0.280 N 
ATOM     34  C   UNL     1       2.030  12.273  -2.754  0.00  0.00    +0.333 A 
ATOM     35  O   UNL     1       2.890  11.638  -2.175  0.00  0.00    -0.246 OA
ATOM     36  C   UNL     1       3.769  13.847  -3.408  0.00  0.00    +0.155 C 
ENDBRANCH  23  24
ENDBRANCH  22  23
ENDBRANCH  21  22
ENDBRANCH  20  21
ENDBRANCH   4  20
TORSDOF 10
