REMARK  Name = ZINC34618050
REMARK  4 active torsions:
REMARK  status: ('A' for Active; 'I' for Inactive)
REMARK    1  A    between atoms: C_3  and  N_14
REMARK    2  A    between atoms: C_6  and  C_7
REMARK    3  A    between atoms: C_7  and  C_9
REMARK    4  A    between atoms: C_7  and  O_13
REMARK                            x       y       z     vdW  Elec       q    Type
REMARK                         _______ _______ _______ _____ _____    ______ ____
ROOT
ATOM      1  C   UNL     1      -0.017   1.378   0.010  0.00  0.00    +0.008 A 
ATOM      2  C   UNL     1       1.171   2.086   0.002  0.00  0.00    +0.033 A 
ATOM      3  C   UNL     1       2.377   1.411  -0.013  0.00  0.00    +0.126 A 
ATOM      4  C   UNL     1       2.396   0.029  -0.020  0.00  0.00    +0.033 A 
ATOM      5  C   UNL     1       1.208  -0.679  -0.012  0.00  0.00    +0.008 A 
ATOM      6  C   UNL     1       0.002  -0.004   0.002  0.00  0.00    -0.010 A 
ENDROOT
BRANCH   3   7
ATOM      7  N   UNL     1       3.649   2.168  -0.022  0.00  0.00    +0.056 N 
ATOM      8  O   UNL     1       3.633   3.377  -0.016  0.00  0.00    -0.126 OA
ATOM      9  O   UNL     1       4.704   1.578  -0.035  0.00  0.00    -0.126 OA
ENDBRANCH   3   7
BRANCH   6  10
ATOM     10  C   UNL     1      -1.293  -0.775   0.010  0.00  0.00    +0.248 C 
BRANCH  10  11
ATOM     11  C   UNL     1      -1.616  -1.244  -1.410  0.00  0.00    +0.420 C 
ATOM     12  F   UNL     1      -0.586  -2.068  -1.875  0.00  0.00    -0.168 F 
ATOM     13  F   UNL     1      -2.818  -1.960  -1.402  0.00  0.00    -0.168 F 
ATOM     14  F   UNL     1      -1.740  -0.133  -2.251  0.00  0.00    -0.168 F 
ENDBRANCH  10  11
BRANCH  10  15
ATOM     15  O   UNL     1      -1.165  -1.910   0.869  0.00  0.00    -0.379 OA
ATOM     16  H   UNL     1      -0.468  -2.526   0.606  0.00  0.00    +0.211 HD
ENDBRANCH  10  15
ENDBRANCH   6  10
TORSDOF 4
