REMARK  Name = ZINC36051457
REMARK  8 active torsions:
REMARK  status: ('A' for Active; 'I' for Inactive)
REMARK    1  A    between atoms: C_1  and  C_2
REMARK    2  A    between atoms: C_5  and  N_8
REMARK    3  A    between atoms: C_10  and  C_30
REMARK    4  A    between atoms: C_14  and  C_16
REMARK    5  A    between atoms: C_16  and  N_17
REMARK    6  A    between atoms: N_17  and  C_18
REMARK    7  A    between atoms: C_18  and  C_19
REMARK    8  A    between atoms: C_22  and  C_24
REMARK                            x       y       z     vdW  Elec       q    Type
REMARK                         _______ _______ _______ _____ _____    ______ ____
ROOT
ATOM      1  N   UNL     1       1.582  -2.026   0.484  0.00  0.00    -0.287 N 
ATOM      2  C   UNL     1       0.819  -2.401  -0.595  0.00  0.00    +0.122 A 
ATOM      3  C   UNL     1       0.935  -3.749  -0.707  0.00  0.00    +0.091 A 
ATOM      4  N   UNL     1       1.748  -4.183   0.280  0.00  0.00    -0.214 NA
ATOM      5  C   UNL     1       2.145  -3.159   0.994  0.00  0.00    +0.207 A 
ATOM      6  N   UNL     1       2.994  -3.218   2.091  0.00  0.00    -0.254 N 
ATOM      7  C   UNL     1       3.487  -4.404   2.499  0.00  0.00    +0.237 C 
ATOM      8  O   UNL     1       3.188  -5.420   1.908  0.00  0.00    -0.274 OA
ATOM      9  H   UNL     1       3.233  -2.405   2.563  0.00  0.00    +0.158 HD
ENDROOT
BRANCH   1  14
ATOM     10  C   UNL     1       2.280   3.256   2.440  0.00  0.00    +0.044 C 
ATOM     11  C   UNL     1       2.095   1.854   1.921  0.00  0.00    -0.050 A 
ATOM     12  C   UNL     1       2.269   1.587   0.575  0.00  0.00    +0.005 A 
ATOM     13  C   UNL     1       2.100   0.303   0.096  0.00  0.00    +0.026 A 
ATOM     14  C   UNL     1       1.755  -0.721   0.967  0.00  0.00    +0.049 A 
ATOM     15  C   UNL     1       1.581  -0.451   2.318  0.00  0.00    +0.026 A 
ATOM     16  C   UNL     1       1.756   0.834   2.792  0.00  0.00    +0.005 A 
ENDBRANCH   1  14
BRANCH   3  17
ATOM     17  C   UNL     1       0.282  -4.597  -1.734  0.00  0.00    +0.002 A 
ATOM     18  C   UNL     1      -0.534  -4.017  -2.705  0.00  0.00    +0.011 A 
ATOM     19  C   UNL     1      -1.138  -4.810  -3.658  0.00  0.00    +0.020 A 
ATOM     20  C   UNL     1      -0.937  -6.180  -3.652  0.00  0.00    +0.041 A 
ATOM     21  C   UNL     1      -0.128  -6.761  -2.690  0.00  0.00    +0.020 A 
ATOM     22  C   UNL     1       0.486  -5.976  -1.736  0.00  0.00    +0.011 A 
ATOM     23 CL   UNL     1      -1.702  -7.172  -4.854  0.00  0.00    -0.084 Cl
ENDBRANCH   3  17
BRANCH   7  24
ATOM     24  C   UNL     1       4.409  -4.468   3.689  0.00  0.00    +0.204 C 
BRANCH  24  25
ATOM     25  N   UNL     1       4.802  -5.859   3.928  0.00  0.00    -0.288 N 
ATOM     26  C   UNL     1       4.147  -6.597   4.845  0.00  0.00    +0.247 C 
ATOM     27  O   UNL     1       4.518  -7.728   5.094  0.00  0.00    -0.270 OA
BRANCH  26  28
ATOM     28  C   UNL     1       2.976  -6.032   5.550  0.00  0.00    +0.037 A 
ATOM     29  C   UNL     1       1.950  -5.421   4.827  0.00  0.00    +0.013 A 
ATOM     30  C   UNL     1       0.861  -4.896   5.490  0.00  0.00    +0.001 A 
ATOM     31  C   UNL     1       0.784  -4.973   6.869  0.00  0.00    +0.000 A 
ATOM     32  C   UNL     1       1.798  -5.576   7.592  0.00  0.00    +0.001 A 
ATOM     33  C   UNL     1       2.890  -6.111   6.941  0.00  0.00    +0.013 A 
ENDBRANCH  26  28
BRANCH  25  34
ATOM     34  C   UNL     1       5.908  -6.448   3.169  0.00  0.00    +0.112 C 
BRANCH  34  35
ATOM     35  C   UNL     1       7.201  -6.333   3.979  0.00  0.00    +0.006 C 
ATOM     36  C   UNL     1       8.325  -5.473   3.399  0.00  0.00    +0.005 C 
ATOM     37  C   UNL     1       8.455  -6.997   3.407  0.00  0.00    +0.005 C 
ENDBRANCH  34  35
ENDBRANCH  25  34
ENDBRANCH  24  25
ENDBRANCH   7  24
TORSDOF 7
