REMARK  Name = ZINC43867082
REMARK  18 active torsions:
REMARK  status: ('A' for Active; 'I' for Inactive)
REMARK    1  A    between atoms: C_1  and  C_2
REMARK    2  A    between atoms: C_2  and  C_4
REMARK    3  A    between atoms: C_2  and  C_33
REMARK    4  A    between atoms: C_8  and  O_32
REMARK    5  A    between atoms: C_9  and  C_31
REMARK    6  A    between atoms: C_20  and  C_30
REMARK    7  A    between atoms: C_23  and  O_26
REMARK    8  A    between atoms: O_26  and  C_27
REMARK    9  A    between atoms: C_27  and  C_29
REMARK   10  A    between atoms: C_33  and  C_35
REMARK   11  A    between atoms: C_33  and  O_41
REMARK   12  A    between atoms: C_35  and  C_36
REMARK   13  A    between atoms: C_36  and  C_37
REMARK   14  A    between atoms: C_37  and  C_38
REMARK   15  A    between atoms: C_37  and  C_39
REMARK   16  A    between atoms: C_37  and  O_40
REMARK   17  A    between atoms: O_41  and  C_42
REMARK   18  A    between atoms: C_42  and  C_44
REMARK                            x       y       z     vdW  Elec       q    Type
REMARK                         _______ _______ _______ _____ _____    ______ ____
ROOT
ATOM      1  C   UNL     1       0.749  -0.338  -1.382  0.00  0.00    +0.004 C 
ATOM      2  C   UNL     1       0.767  -1.858  -1.691  0.00  0.00    +0.008 C 
ATOM      3  C   UNL     1      -0.121  -2.058  -2.952  0.00  0.00    +0.040 C 
ATOM      4  C   UNL     1      -1.050  -0.842  -2.908  0.00  0.00    +0.093 C 
ATOM      5  C   UNL     1      -0.050   0.287  -2.514  0.00  0.00    +0.004 C 
ATOM      6  C   UNL     1      -0.835   1.546  -2.240  0.00  0.00    +0.010 C 
ATOM      7  C   UNL     1      -1.441   2.022  -3.574  0.00  0.00    +0.009 C 
ATOM      8  C   UNL     1      -2.324   0.944  -4.190  0.00  0.00    +0.024 C 
ATOM      9  C   UNL     1      -1.629  -0.396  -4.222  0.00  0.00    -0.031 C 
ATOM     10  C   UNL     1      -1.509  -1.146  -5.310  0.00  0.00    +0.049 C 
ATOM     11  C   UNL     1      -2.049  -0.648  -6.585  0.00  0.00    +0.160 C 
ATOM     12  O   UNL     1      -2.380  -1.395  -7.482  0.00  0.00    -0.292 OA
ATOM     13  C   UNL     1      -2.165   0.858  -6.707  0.00  0.00    +0.070 C 
ATOM     14  C   UNL     1      -2.924   1.366  -5.504  0.00  0.00    -0.015 C 
ATOM     15  C   UNL     1      -3.051   2.887  -5.599  0.00  0.00    +0.011 C 
ATOM     16  C   UNL     1      -3.790   3.251  -6.889  0.00  0.00    +0.045 C 
ATOM     17  C   UNL     1      -3.015   2.719  -8.095  0.00  0.00    +0.177 C 
ATOM     18  C   UNL     1      -2.905   1.215  -7.996  0.00  0.00    +0.056 C 
ATOM     19  C   UNL     1      -4.339   0.788  -5.583  0.00  0.00    +0.012 C 
ATOM     20  C   UNL     1       0.886   0.552  -3.696  0.00  0.00    +0.014 C 
ENDROOT
BRANCH   1  22
ATOM     21  C   UNL     1      -0.007   1.431   0.212  0.00  0.00    +0.011 C 
ATOM     22  C   UNL     1       0.063  -0.076  -0.040  0.00  0.00    +0.030 C 
BRANCH  22  23
ATOM     23  C   UNL     1       0.864  -0.744   1.080  0.00  0.00    +0.180 C 
BRANCH  23  24
ATOM     24  C   UNL     1       0.249  -0.379   2.433  0.00  0.00    +0.048 C 
BRANCH  24  25
ATOM     25  C   UNL     1       1.120  -0.943   3.558  0.00  0.00    +0.038 C 
BRANCH  25  26
ATOM     26  C   UNL     1       0.505  -0.579   4.910  0.00  0.00    +0.061 C 
ATOM     27  C   UNL     1      -0.902  -1.173   5.008  0.00  0.00    +0.041 C 
ATOM     28  C   UNL     1       1.376  -1.142   6.035  0.00  0.00    +0.041 C 
BRANCH  26  29
ATOM     29  O   UNL     1       0.430   0.843   5.033  0.00  0.00    -0.389 OA
ATOM     30  H   UNL     1       1.287   1.288   4.980  0.00  0.00    +0.210 HD
ENDBRANCH  26  29
ENDBRANCH  25  26
ENDBRANCH  24  25
ENDBRANCH  23  24
BRANCH  23  31
ATOM     31  O   UNL     1       0.832  -2.162   0.909  0.00  0.00    -0.461 OA
BRANCH  31  32
ATOM     32  C   UNL     1       1.895  -2.853   1.349  0.00  0.00    +0.304 C 
ATOM     33  O   UNL     1       2.822  -2.273   1.862  0.00  0.00    -0.251 OA
ATOM     34  C   UNL     1       1.932  -4.352   1.202  0.00  0.00    +0.136 C 
ENDBRANCH  31  32
ENDBRANCH  23  31
ENDBRANCH  22  23
ENDBRANCH   1  22
BRANCH   4  35
ATOM     35  O   UNL     1      -2.076  -1.014  -1.928  0.00  0.00    -0.384 OA
ATOM     36  H   UNL     1      -2.657  -1.770  -2.095  0.00  0.00    +0.211 HD
ENDBRANCH   4  35
BRANCH  17  37
ATOM     37  O   UNL     1      -3.715   3.054  -9.295  0.00  0.00    -0.462 OA
BRANCH  37  38
ATOM     38  C   UNL     1      -3.409   4.226  -9.873  0.00  0.00    +0.304 C 
ATOM     39  O   UNL     1      -2.575   4.945  -9.376  0.00  0.00    -0.251 OA
ATOM     40  C   UNL     1      -4.107   4.646 -11.141  0.00  0.00    +0.136 C 
ENDBRANCH  37  38
ENDBRANCH  17  37
TORSDOF 11
