REMARK  Name = ZINC38574002
REMARK  9 active torsions:
REMARK  status: ('A' for Active; 'I' for Inactive)
REMARK    1  A    between atoms: C_1  and  C_2
REMARK    2  A    between atoms: C_2  and  C_3
REMARK    3  A    between atoms: C_3  and  N_4
REMARK    4  A    between atoms: C_11  and  O_36
REMARK    5  A    between atoms: C_13  and  C_17
REMARK    6  A    between atoms: N_19  and  N_20
REMARK    7  A    between atoms: C_21  and  C_22
REMARK    8  A    between atoms: C_21  and  C_23
REMARK    9  A    between atoms: C_25  and  O_35
REMARK                            x       y       z     vdW  Elec       q    Type
REMARK                         _______ _______ _______ _____ _____    ______ ____
ROOT
ATOM      1  C   UNL     1       2.476  -4.653   1.908  0.00  0.00    +0.247 C 
ATOM      2  O   UNL     1       1.823  -5.291   2.706  0.00  0.00    -0.273 OA
ATOM      3  N   UNL     1       3.764  -4.356   2.175  0.00  0.00    -0.206 N 
ATOM      4  H   UNL     1       4.265  -3.785   1.572  0.00  0.00    +0.177 HD
ENDROOT
BRANCH   1  13
ATOM      5  N   UNL     1       0.752  -2.042   1.186  0.00  0.00    -0.270 N 
ATOM      6  C   UNL     1      -0.283  -2.758   1.794  0.00  0.00    +0.042 A 
ATOM      7  C   UNL     1      -1.124  -2.132   2.705  0.00  0.00    +0.024 A 
ATOM      8  C   UNL     1      -2.144  -2.846   3.303  0.00  0.00    +0.002 A 
ATOM      9  C   UNL     1      -2.329  -4.182   2.995  0.00  0.00    +0.000 A 
ATOM     10  C   UNL     1      -1.493  -4.808   2.089  0.00  0.00    +0.008 A 
ATOM     11  C   UNL     1      -0.471  -4.099   1.488  0.00  0.00    +0.003 A 
ATOM     12  C   UNL     1       0.441  -4.777   0.499  0.00  0.00    +0.167 C 
ATOM     13  C   UNL     1       1.849  -4.191   0.618  0.00  0.00    +0.195 C 
ATOM     14  C   UNL     1       1.778  -2.688   0.602  0.00  0.00    +0.235 C 
ATOM     15  O   UNL     1       2.658  -2.052   0.062  0.00  0.00    -0.274 OA
BRANCH  12  16
ATOM     16  O   UNL     1      -0.052  -4.568  -0.826  0.00  0.00    -0.386 OA
ATOM     17  H   UNL     1      -0.942  -4.916  -0.974  0.00  0.00    +0.210 HD
ENDBRANCH  12  16
BRANCH   5  18
ATOM     18  C   UNL     1       0.716  -0.577   1.178  0.00  0.00    +0.113 C 
BRANCH  18  20
ATOM     19  C   UNL     1      -0.058   1.438  -0.081  0.00  0.00    +0.005 C 
ATOM     20  C   UNL     1      -0.021  -0.092  -0.072  0.00  0.00    +0.016 C 
ENDBRANCH  18  20
ENDBRANCH   5  18
ENDBRANCH   1  13
BRANCH   3  21
ATOM     21  N   UNL     1       4.378  -4.872   3.323  0.00  0.00    -0.188 NA
ATOM     22  C   UNL     1       5.564  -4.505   3.635  0.00  0.00    +0.053 C 
ATOM     23  C   UNL     1       6.185  -4.978   4.924  0.00  0.00    +0.063 C 
BRANCH  22  24
ATOM     24  C   UNL     1       6.339  -3.600   2.712  0.00  0.00    +0.186 C 
ATOM     25  C   UNL     1       7.412  -4.433   2.037  0.00  0.00    +0.120 C 
ATOM     26  C   UNL     1       8.736  -4.023   2.209  0.00  0.00    +0.035 A 
ATOM     27  C   UNL     1       9.794  -4.740   1.615  0.00  0.00    +0.013 A 
ATOM     28  C   UNL     1      11.076  -4.320   1.798  0.00  0.00    +0.001 A 
ATOM     29  C   UNL     1      11.365  -3.193   2.561  0.00  0.00    +0.002 A 
ATOM     30  C   UNL     1      10.384  -2.460   3.160  0.00  0.00    +0.024 A 
ATOM     31  C   UNL     1       9.038  -2.837   3.013  0.00  0.00    +0.044 A 
ATOM     32  N   UNL     1       8.076  -2.115   3.602  0.00  0.00    -0.284 N 
ATOM     33  C   UNL     1       6.794  -2.401   3.513  0.00  0.00    +0.233 C 
ATOM     34  O   UNL     1       5.974  -1.699   4.076  0.00  0.00    -0.274 OA
ATOM     35  H   UNL     1       8.338  -1.339   4.122  0.00  0.00    +0.155 HD
BRANCH  25  36
ATOM     36  O   UNL     1       7.103  -5.512   1.309  0.00  0.00    -0.509 OA
ATOM     37  H   UNL     1       7.872  -6.006   0.994  0.00  0.00    +0.292 HD
ENDBRANCH  25  36
ENDBRANCH  22  24
ENDBRANCH   3  21
TORSDOF 7
