REMARK  Name = ZINC45747159
REMARK  9 active torsions:
REMARK  status: ('A' for Active; 'I' for Inactive)
REMARK    1  A    between atoms: C_1  and  N_2
REMARK    2  A    between atoms: N_2  and  C_3
REMARK    3  A    between atoms: C_6  and  C_11
REMARK    4  A    between atoms: C_11  and  S_12
REMARK    5  A    between atoms: S_12  and  C_13
REMARK    6  A    between atoms: C_16  and  C_28
REMARK    7  A    between atoms: N_17  and  C_18
REMARK    8  A    between atoms: C_23  and  C_24
REMARK    9  A    between atoms: C_28  and  N_29
REMARK                            x       y       z     vdW  Elec       q    Type
REMARK                         _______ _______ _______ _____ _____    ______ ____
ROOT
ATOM      1  C   UNL     1      -2.284  -6.969   1.357  0.00  0.00    +0.196 A 
ATOM      2  N   UNL     1      -2.496  -7.760   0.331  0.00  0.00    -0.122 NA
ATOM      3  N   UNL     1      -2.406  -8.988   0.699  0.00  0.00    -0.135 NA
ATOM      4  C   UNL     1      -2.133  -9.057   1.971  0.00  0.00    +0.122 A 
ATOM      5  N   UNL     1      -2.039  -7.772   2.437  0.00  0.00    -0.275 N 
ENDROOT
BRANCH   5   6
ATOM      6  C   UNL     1      -1.754  -7.365   3.749  0.00  0.00    +0.062 A 
ATOM      7  C   UNL     1      -0.440  -7.152   4.141  0.00  0.00    +0.027 A 
ATOM      8  C   UNL     1      -0.162  -6.751   5.433  0.00  0.00    +0.002 A 
ATOM      9  C   UNL     1      -1.192  -6.564   6.337  0.00  0.00    +0.001 A 
ATOM     10  C   UNL     1      -2.502  -6.776   5.949  0.00  0.00    +0.014 A 
ATOM     11  C   UNL     1      -2.786  -7.170   4.656  0.00  0.00    +0.079 A 
BRANCH  11  12
ATOM     12  C   UNL     1      -4.215  -7.396   4.233  0.00  0.00    +0.419 C 
ATOM     13  F   UNL     1      -5.067  -7.142   5.313  0.00  0.00    -0.166 F 
ATOM     14  F   UNL     1      -4.530  -6.533   3.178  0.00  0.00    -0.166 F 
ATOM     15  F   UNL     1      -4.374  -8.721   3.815  0.00  0.00    -0.166 F 
ENDBRANCH  11  12
ENDBRANCH   5   6
BRANCH   1  16
ATOM     16  S   UNL     1      -2.303  -5.207   1.345  0.00  0.00    -0.078 S 
BRANCH  16  17
ATOM     17  C   UNL     1      -2.685  -4.785  -0.377  0.00  0.00    +0.153 C 
BRANCH  17  23
ATOM     18  C   UNL     1      -0.567   0.855  -1.443  0.00  0.00    +0.132 C 
ATOM     19  N   UNL     1      -0.525  -0.602  -1.301  0.00  0.00    -0.306 N 
ATOM     20  C   UNL     1       0.734  -1.323  -1.505  0.00  0.00    +0.132 C 
ATOM     21  C   UNL     1      -1.672  -1.296  -0.975  0.00  0.00    +0.222 A 
ATOM     22  N   UNL     1      -1.635  -2.620  -0.841  0.00  0.00    -0.198 NA
ATOM     23  C   UNL     1      -2.732  -3.286  -0.529  0.00  0.00    +0.146 A 
ATOM     24  N   UNL     1      -3.872  -2.641  -0.349  0.00  0.00    -0.199 NA
ATOM     25  C   UNL     1      -3.918  -1.317  -0.482  0.00  0.00    +0.217 A 
ATOM     26  N   UNL     1      -2.815  -0.644  -0.790  0.00  0.00    -0.181 NA
ATOM     27  N   UNL     1      -5.108  -0.645  -0.295  0.00  0.00    -0.327 N 
ATOM     28  H   UNL     1      -5.912  -1.137  -0.067  0.00  0.00    +0.145 HD
ATOM     29  H   UNL     1      -5.141   0.320  -0.392  0.00  0.00    +0.145 HD
ENDBRANCH  17  23
ENDBRANCH  16  17
ENDBRANCH   1  16
BRANCH   4  30
ATOM     30  C   UNL     1      -1.949 -10.316   2.778  0.00  0.00    -0.001 C 
BRANCH  30  31
ATOM     31  N   UNL     1      -0.519 -10.643   2.857  0.00  0.00    +0.384 N 
ATOM     32  C   UNL     1      -0.021 -10.977   1.517  0.00  0.00    -0.078 C 
ATOM     33  C   UNL     1       1.486 -11.239   1.579  0.00  0.00    -0.019 C 
ATOM     34  C   UNL     1       1.756 -12.407   2.532  0.00  0.00    -0.004 C 
ATOM     35  C   UNL     1       1.166 -12.078   3.907  0.00  0.00    -0.019 C 
ATOM     36  C   UNL     1      -0.328 -11.785   3.758  0.00  0.00    -0.078 C 
ATOM     37  H   UNL     1      -0.012  -9.846   3.213  0.00  0.00    -0.081 HD
ENDBRANCH  30  31
ENDBRANCH   4  30
TORSDOF 7
