REMARK  Name = ZINC44900747
REMARK  4 active torsions:
REMARK  status: ('A' for Active; 'I' for Inactive)
REMARK    1  A    between atoms: C_1  and  C_2
REMARK    2  A    between atoms: N_5  and  C_7
REMARK    3  A    between atoms: C_18  and  C_20
REMARK    4  A    between atoms: C_22  and  N_27
REMARK                            x       y       z     vdW  Elec       q    Type
REMARK                         _______ _______ _______ _____ _____    ______ ____
ROOT
ATOM      1  C   UNL     1      -0.236   1.407   0.075  0.00  0.00    +0.068 C 
ATOM      2  C   UNL     1      -0.200  -0.098   0.012  0.00  0.00    +0.067 A 
ATOM      3  C   UNL     1      -0.181  -0.870  -1.169  0.00  0.00    +0.033 A 
ATOM      4  C   UNL     1      -0.149  -2.173  -0.811  0.00  0.00    +0.133 A 
ATOM      5  N   UNL     1      -0.150  -2.212   0.566  0.00  0.00    -0.218 N 
ATOM      6  N   UNL     1      -0.175  -0.899   1.039  0.00  0.00    -0.170 NA
ATOM      7  N   UNL     1      -0.115  -3.328  -1.554  0.00  0.00    -0.269 N 
ATOM      8  C   UNL     1      -0.151  -3.604  -2.823  0.00  0.00    +0.228 C 
ATOM      9  O   UNL     1      -0.204  -4.787  -3.086  0.00  0.00    -0.275 OA
ATOM     10  C   UNL     1      -0.138  -2.706  -3.997  0.00  0.00    +0.166 C 
ATOM     11  S   UNL     1      -1.098  -1.207  -3.744  0.00  0.00    -0.138 S 
ATOM     12  C   UNL     1      -0.199  -0.242  -2.527  0.00  0.00    +0.113 C 
ATOM     13  H   UNL     1      -0.048  -4.123  -1.002  0.00  0.00    +0.156 HD
ENDROOT
BRANCH  12  14
ATOM     14  C   UNL     1      -0.837   1.119  -2.422  0.00  0.00    -0.009 A 
ATOM     15  C   UNL     1      -0.052   2.256  -2.475  0.00  0.00    +0.039 A 
ATOM     16  C   UNL     1      -0.637   3.505  -2.379  0.00  0.00    +0.127 A 
ATOM     17  C   UNL     1      -2.007   3.618  -2.228  0.00  0.00    +0.034 A 
ATOM     18  C   UNL     1      -2.792   2.482  -2.175  0.00  0.00    +0.022 A 
ATOM     19  C   UNL     1      -2.208   1.232  -2.278  0.00  0.00    +0.046 A 
ATOM     20 CL   UNL     1      -3.194  -0.196  -2.219  0.00  0.00    -0.083 Cl
BRANCH  16  21
ATOM     21  N   UNL     1       0.203   4.722  -2.435  0.00  0.00    +0.056 N 
ATOM     22  O   UNL     1       1.401   4.624  -2.566  0.00  0.00    -0.126 OA
ATOM     23  O   UNL     1      -0.308   5.814  -2.350  0.00  0.00    -0.126 OA
ENDBRANCH  16  21
ENDBRANCH  12  14
BRANCH   5  24
ATOM     24  C   UNL     1      -0.125  -3.369   1.356  0.00  0.00    +0.067 A 
ATOM     25  C   UNL     1       0.735  -4.411   1.036  0.00  0.00    +0.028 A 
ATOM     26  C   UNL     1       0.758  -5.550   1.817  0.00  0.00    +0.002 A 
ATOM     27  C   UNL     1      -0.076  -5.654   2.915  0.00  0.00    +0.000 A 
ATOM     28  C   UNL     1      -0.935  -4.619   3.235  0.00  0.00    +0.002 A 
ATOM     29  C   UNL     1      -0.957  -3.474   2.462  0.00  0.00    +0.028 A 
ENDBRANCH   5  24
TORSDOF 3
