REMARK  Name = ZINC39999622
REMARK  10 active torsions:
REMARK  status: ('A' for Active; 'I' for Inactive)
REMARK    1  A    between atoms: C_1  and  C_2
REMARK    2  A    between atoms: C_2  and  S_3
REMARK    3  A    between atoms: S_3  and  C_4
REMARK    4  A    between atoms: C_10  and  C_25
REMARK    5  A    between atoms: C_12  and  C_17
REMARK    6  A    between atoms: C_17  and  C_19
REMARK    7  A    between atoms: C_22  and  C_24
REMARK    8  A    between atoms: C_28  and  C_31
REMARK    9  A    between atoms: C_31  and  O_33
REMARK   10  A    between atoms: O_33  and  C_34
REMARK                            x       y       z     vdW  Elec       q    Type
REMARK                         _______ _______ _______ _____ _____    ______ ____
ROOT
ATOM      1  C   UNL     1       0.646  -2.311  -1.515  0.00  0.00    +0.160 A 
ATOM      2  N   UNL     1       0.152  -3.061  -0.540  0.00  0.00    -0.133 NA
ATOM      3  N   UNL     1       0.234  -4.319  -0.561  0.00  0.00    -0.125 NA
ATOM      4  C   UNL     1       0.818  -4.968  -1.556  0.00  0.00    +0.192 A 
ATOM      5  S   UNL     1       1.299  -3.586  -2.588  0.00  0.00    -0.024 S 
ATOM      6  N   UNL     1       1.001  -6.332  -1.748  0.00  0.00    -0.230 N 
ATOM      7  C   UNL     1       0.557  -7.399  -0.843  0.00  0.00    +0.152 C 
ATOM      8  C   UNL     1       0.987  -8.699  -1.483  0.00  0.00    +0.080 C 
ATOM      9  C   UNL     1       1.612  -8.376  -2.639  0.00  0.00    +0.250 C 
ATOM     10  C   UNL     1       1.612  -6.910  -2.799  0.00  0.00    +0.293 C 
ATOM     11  O   UNL     1       2.094  -6.311  -3.740  0.00  0.00    -0.266 OA
ATOM     12  O   UNL     1       2.149  -9.260  -3.513  0.00  0.00    -0.282 OA
ENDROOT
BRANCH   7  13
ATOM     13  C   UNL     1       1.214  -7.242   0.505  0.00  0.00    -0.022 A 
ATOM     14  C   UNL     1       2.565  -6.956   0.584  0.00  0.00    +0.006 A 
ATOM     15  C   UNL     1       3.172  -6.811   1.814  0.00  0.00    +0.015 A 
ATOM     16  C   UNL     1       2.419  -6.953   2.981  0.00  0.00    +0.059 A 
ATOM     17  C   UNL     1       1.056  -7.242   2.894  0.00  0.00    +0.015 A 
ATOM     18  C   UNL     1       0.461  -7.379   1.658  0.00  0.00    +0.006 A 
BRANCH  16  19
ATOM     19  C   UNL     1       3.062  -6.800   4.302  0.00  0.00    +0.339 C 
ATOM     20  O   UNL     1       4.249  -6.549   4.375  0.00  0.00    -0.245 OA
BRANCH  19  21
ATOM     21  O   UNL     1       2.333  -6.938   5.427  0.00  0.00    -0.464 OA
ATOM     22  C   UNL     1       3.020  -6.776   6.669  0.00  0.00    +0.280 C 
ENDBRANCH  19  21
ENDBRANCH  16  19
ENDBRANCH   7  13
BRANCH   8  23
ATOM     23  C   UNL     1       0.768 -10.049  -0.953  0.00  0.00    +0.230 C 
ATOM     24  O   UNL     1       1.718 -10.730  -0.610  0.00  0.00    -0.283 OA
BRANCH  23  25
ATOM     25  C   UNL     1      -0.594 -10.579  -0.838  0.00  0.00    +0.175 A 
ATOM     26  C   UNL     1      -0.951 -11.784  -0.272  0.00  0.00    +0.053 A 
ATOM     27  C   UNL     1      -2.346 -11.879  -0.380  0.00  0.00    +0.045 A 
ATOM     28  C   UNL     1      -2.776 -10.753  -0.993  0.00  0.00    +0.103 A 
ATOM     29  O   UNL     1      -1.722  -9.972  -1.262  0.00  0.00    -0.457 OA
ATOM     30  C   UNL     1      -4.212 -10.426  -1.316  0.00  0.00    +0.086 C 
ENDBRANCH  23  25
ENDBRANCH   8  23
BRANCH   1  31
ATOM     31  S   UNL     1       0.650  -0.559  -1.704  0.00  0.00    -0.097 S 
BRANCH  31  33
ATOM     32  C   UNL     1      -0.258   1.574  -0.252  0.00  0.00    +0.016 C 
ATOM     33  C   UNL     1      -0.192   0.046  -0.216  0.00  0.00    +0.073 C 
ENDBRANCH  31  33
ENDBRANCH   1  31
TORSDOF 7
