REMARK  Name = ZINC14899159
REMARK  14 active torsions:
REMARK  status: ('A' for Active; 'I' for Inactive)
REMARK    1  A    between atoms: C_1  and  C_2
REMARK    2  A    between atoms: C_2  and  C_3
REMARK    3  A    between atoms: C_3  and  C_4
REMARK    4  A    between atoms: C_4  and  N_5
REMARK    5  A    between atoms: C_6  and  N_37
REMARK    6  A    between atoms: C_7  and  N_14
REMARK    7  A    between atoms: N_14  and  C_15
REMARK    8  A    between atoms: C_15  and  C_16
REMARK    9  A    between atoms: C_16  and  C_17
REMARK   10  A    between atoms: C_17  and  C_18
REMARK   11  A    between atoms: C_19  and  C_21
REMARK   12  A    between atoms: C_23  and  C_32
REMARK   13  A    between atoms: C_27  and  C_31
REMARK   14  A    between atoms: N_29  and  C_30
REMARK                            x       y       z     vdW  Elec       q    Type
REMARK                         _______ _______ _______ _____ _____    ______ ____
ROOT
ATOM      1  N   UNL     1      -5.056   3.140   4.785  0.00  0.00    -0.260 N 
ATOM      2  C   UNL     1      -3.830   3.294   4.248  0.00  0.00    +0.252 C 
ATOM      3  O   UNL     1      -2.917   3.720   4.930  0.00  0.00    -0.270 OA
ENDROOT
BRANCH   2   4
ATOM      4  C   UNL     1      -3.593   2.946   2.831  0.00  0.00    +0.052 A 
ATOM      5  C   UNL     1      -4.326   3.547   1.815  0.00  0.00    +0.045 A 
ATOM      6  C   UNL     1      -4.072   3.189   0.484  0.00  0.00    +0.109 A 
ATOM      7  N   UNL     1      -3.148   2.289   0.176  0.00  0.00    -0.224 NA
ATOM      8  C   UNL     1      -2.418   1.691   1.105  0.00  0.00    +0.160 A 
ATOM      9  C   UNL     1      -2.615   1.990   2.469  0.00  0.00    +0.054 A 
ATOM     10  C   UNL     1      -1.707   1.198   3.203  0.00  0.00    +0.070 A 
ATOM     11  N   UNL     1      -1.018   0.474   2.368  0.00  0.00    -0.174 NA
ATOM     12  N   UNL     1      -1.428   0.744   1.057  0.00  0.00    -0.249 N 
ATOM     13  C   UNL     1      -0.887   0.127  -0.157  0.00  0.00    +0.174 C 
ATOM     14  C   UNL     1      -1.558   1.192   4.702  0.00  0.00    +0.068 C 
BRANCH   6  15
ATOM     15  C   UNL     1      -4.849   3.826  -0.596  0.00  0.00    +0.153 A 
ATOM     16  C   UNL     1      -4.711   3.585  -1.929  0.00  0.00    +0.051 A 
ATOM     17  C   UNL     1      -5.648   4.403  -2.588  0.00  0.00    +0.042 A 
ATOM     18  C   UNL     1      -6.300   5.103  -1.637  0.00  0.00    +0.196 A 
ATOM     19  O   UNL     1      -5.814   4.752  -0.436  0.00  0.00    -0.461 OA
ENDBRANCH   6  15
ENDBRANCH   2   4
BRANCH   1  22
ATOM     20  N   UNL     1      -6.365   5.074   7.620  0.00  0.00    -0.280 N 
ATOM     21  C   UNL     1      -6.134   4.667   6.327  0.00  0.00    +0.127 A 
ATOM     22  C   UNL     1      -5.312   3.582   6.098  0.00  0.00    +0.140 A 
ATOM     23  C   UNL     1      -4.738   2.921   7.201  0.00  0.00    +0.277 A 
ATOM     24  O   UNL     1      -4.011   1.957   7.028  0.00  0.00    -0.266 OA
ATOM     25  N   UNL     1      -4.992   3.364   8.448  0.00  0.00    -0.273 N 
ATOM     26  H   UNL     1      -4.577   2.901   9.231  0.00  0.00    +0.173 HD
ATOM     27  C   UNL     1      -5.796   4.423   8.651  0.00  0.00    +0.331 A 
ATOM     28  O   UNL     1      -6.012   4.799   9.787  0.00  0.00    -0.246 OA
BRANCH  21  29
ATOM     29  N   UNL     1      -6.715   5.333   5.274  0.00  0.00    -0.343 N 
ATOM     30  H   UNL     1      -6.568   5.026   4.366  0.00  0.00    +0.144 HD
ATOM     31  H   UNL     1      -7.272   6.109   5.440  0.00  0.00    +0.144 HD
ENDBRANCH  21  29
BRANCH  20  32
ATOM     32  C   UNL     1      -7.235   6.224   7.877  0.00  0.00    +0.128 C 
BRANCH  32  33
ATOM     33  C   UNL     1      -8.679   5.744   8.040  0.00  0.00    +0.021 C 
BRANCH  33  35
ATOM     34  C   UNL     1     -11.032   6.465   8.472  0.00  0.00    +0.004 C 
ATOM     35  C   UNL     1      -9.588   6.945   8.309  0.00  0.00    -0.002 C 
ENDBRANCH  33  35
ENDBRANCH  32  33
ENDBRANCH  20  32
ENDBRANCH   1  22
BRANCH   1  36
ATOM     36  C   UNL     1      -6.124   2.513   4.002  0.00  0.00    +0.114 C 
BRANCH  36  37
ATOM     37  C   UNL     1      -6.094   0.998   4.219  0.00  0.00    +0.019 C 
BRANCH  37  38
ATOM     38  C   UNL     1      -7.209   0.343   3.402  0.00  0.00    -0.002 C 
ATOM     39  C   UNL     1      -7.178  -1.171   3.619  0.00  0.00    +0.004 C 
ENDBRANCH  37  38
ENDBRANCH  36  37
ENDBRANCH   1  36
TORSDOF 10
