REMARK  Name = ZINC00252434
REMARK  7 active torsions:
REMARK  status: ('A' for Active; 'I' for Inactive)
REMARK    1  A    between atoms: C_1  and  C_2
REMARK    2  A    between atoms: C_2  and  C_3
REMARK    3  A    between atoms: C_3  and  C_5
REMARK    4  A    between atoms: C_3  and  N_20
REMARK    5  A    between atoms: N_7  and  N_8
REMARK    6  A    between atoms: C_9  and  C_10
REMARK    7  A    between atoms: N_20  and  C_21
REMARK                            x       y       z     vdW  Elec       q    Type
REMARK                         _______ _______ _______ _____ _____    ______ ____
ROOT
ATOM      1  C   UNL     1       1.367   7.861   0.168  0.00  0.00    +0.252 C 
ATOM      2  O   UNL     1       0.179   8.101   0.227  0.00  0.00    -0.272 OA
ATOM      3  N   UNL     1       1.801   6.587   0.226  0.00  0.00    -0.205 N 
ATOM      4  H   UNL     1       2.751   6.395   0.178  0.00  0.00    +0.177 HD
ENDROOT
BRANCH   3   5
ATOM      5  N   UNL     1       0.881   5.538   0.356  0.00  0.00    -0.188 NA
ATOM      6  C   UNL     1       1.299   4.310   0.413  0.00  0.00    +0.140 C 
BRANCH   6   7
ATOM      7  C   UNL     1       0.333   3.209   0.549  0.00  0.00    +0.020 A 
ATOM      8  C   UNL     1       0.618   1.881   0.622  0.00  0.00    +0.093 A 
ATOM      9  N   UNL     1      -0.538   1.168   0.744  0.00  0.00    -0.360 N 
ATOM     10  H   UNL     1      -0.589   0.202   0.813  0.00  0.00    +0.165 HD
ATOM     11  C   UNL     1      -1.624   2.018   0.749  0.00  0.00    +0.047 A 
ATOM     12  C   UNL     1      -1.134   3.329   0.635  0.00  0.00    +0.008 A 
ATOM     13  C   UNL     1      -2.018   4.406   0.618  0.00  0.00    +0.010 A 
ATOM     14  C   UNL     1      -3.372   4.177   0.719  0.00  0.00    +0.001 A 
ATOM     15  C   UNL     1      -3.857   2.883   0.838  0.00  0.00    +0.002 A 
ATOM     16  C   UNL     1      -2.995   1.808   0.856  0.00  0.00    +0.026 A 
ENDBRANCH   6   7
ENDBRANCH   3   5
BRANCH   1  17
ATOM     17  C   UNL     1       2.357   8.989   0.028  0.00  0.00    +0.158 C 
BRANCH  17  19
ATOM     18  C   UNL     1       4.398  10.038   1.015  0.00  0.00    +0.006 C 
ATOM     19  C   UNL     1       3.313   8.979   1.222  0.00  0.00    +0.028 C 
ENDBRANCH  17  19
BRANCH  17  20
ATOM     20  N   UNL     1       1.640  10.266  -0.013  0.00  0.00    -0.333 N 
ATOM     21  H   UNL     1       1.541  10.793   0.795  0.00  0.00    +0.147 HD
BRANCH  20  22
ATOM     22  C   UNL     1       1.098  10.724  -1.216  0.00  0.00    +0.028 A 
ATOM     23  C   UNL     1       1.334  10.030  -2.396  0.00  0.00    +0.023 A 
ATOM     24  C   UNL     1       0.793  10.483  -3.582  0.00  0.00    +0.002 A 
ATOM     25  C   UNL     1       0.025  11.633  -3.599  0.00  0.00    +0.000 A 
ATOM     26  C   UNL     1      -0.207  12.331  -2.428  0.00  0.00    +0.002 A 
ATOM     27  C   UNL     1       0.327  11.880  -1.237  0.00  0.00    +0.023 A 
ENDBRANCH  20  22
ENDBRANCH  17  20
ENDBRANCH   1  17
TORSDOF 6
