REMARK  Name = ZINC33040132
REMARK  11 active torsions:
REMARK  status: ('A' for Active; 'I' for Inactive)
REMARK    1  A    between atoms: C_1  and  C_2
REMARK    2  A    between atoms: C_2  and  C_3
REMARK    3  A    between atoms: C_3  and  C_5
REMARK    4  A    between atoms: C_3  and  C_6
REMARK    5  A    between atoms: C_11  and  N_12
REMARK    6  A    between atoms: C_13  and  C_15
REMARK    7  A    between atoms: C_15  and  C_17
REMARK    8  A    between atoms: C_15  and  N_18
REMARK    9  A    between atoms: N_18  and  C_19
REMARK   10  A    between atoms: C_23  and  C_25
REMARK   11  A    between atoms: N_27  and  C_28
REMARK                            x       y       z     vdW  Elec       q    Type
REMARK                         _______ _______ _______ _____ _____    ______ ____
ROOT
ATOM      1  C   UNL     1      -2.007  -1.405  -5.335  0.00  0.00    +0.154 C 
ATOM      2  C   UNL     1      -0.861  -0.753  -6.113  0.00  0.00    +0.038 C 
ENDROOT
BRANCH   1   4
ATOM      3  N   UNL     1      -0.662  -1.740  -3.286  0.00  0.00    -0.284 N 
ATOM      4  C   UNL     1      -1.442  -2.278  -4.245  0.00  0.00    +0.237 C 
ATOM      5  O   UNL     1      -1.688  -3.466  -4.231  0.00  0.00    -0.273 OA
ATOM      6  H   UNL     1      -0.492  -0.653  -3.262  0.00  0.00    +0.155 HD
BRANCH   3  12
ATOM      7  C   UNL     1       1.102  -2.165  -1.693  0.00  0.00    -0.023 A 
ATOM      8  C   UNL     1       1.681  -2.977  -0.738  0.00  0.00    +0.006 A 
ATOM      9  C   UNL     1       1.098  -4.187  -0.411  0.00  0.00    +0.000 A 
ATOM     10  C   UNL     1      -0.067  -4.588  -1.039  0.00  0.00    +0.002 A 
ATOM     11  C   UNL     1      -0.650  -3.781  -1.996  0.00  0.00    +0.023 A 
ATOM     12  C   UNL     1      -0.070  -2.563  -2.322  0.00  0.00    +0.037 A 
BRANCH   7  13
ATOM     13  C   UNL     1       1.738  -0.845  -2.048  0.00  0.00    +0.017 C 
ATOM     14  C   UNL     1       3.194  -1.075  -2.459  0.00  0.00    +0.012 C 
BRANCH  13  16
ATOM     15  C   UNL     1       2.223   1.465  -1.230  0.00  0.00    +0.004 C 
ATOM     16  C   UNL     1       1.691   0.086  -0.835  0.00  0.00    +0.004 C 
ENDBRANCH  13  16
ENDBRANCH   7  13
ENDBRANCH   3  12
ENDBRANCH   1   4
BRANCH   1  17
ATOM     17  N   UNL     1      -2.813  -2.221  -6.247  0.00  0.00    -0.333 N 
ATOM     18  H   UNL     1      -2.614  -3.299  -6.341  0.00  0.00    +0.147 HD
BRANCH  17  19
ATOM     19  C   UNL     1      -3.834  -1.631  -6.995  0.00  0.00    +0.028 A 
ATOM     20  C   UNL     1      -4.090  -0.270  -6.871  0.00  0.00    +0.023 A 
ATOM     21  C   UNL     1      -5.096   0.319  -7.613  0.00  0.00    +0.003 A 
ATOM     22  C   UNL     1      -5.861  -0.441  -8.474  0.00  0.00    +0.013 A 
ATOM     23  C   UNL     1      -5.616  -1.809  -8.602  0.00  0.00    +0.038 A 
ATOM     24  C   UNL     1      -4.597  -2.404  -7.857  0.00  0.00    +0.036 A 
BRANCH  23  25
ATOM     25  C   UNL     1      -6.435  -2.627  -9.523  0.00  0.00    +0.244 C 
ATOM     26  O   UNL     1      -6.220  -3.818  -9.633  0.00  0.00    -0.270 OA
ATOM     27  N   UNL     1      -7.418  -2.050 -10.242  0.00  0.00    -0.314 N 
ATOM     28  C   UNL     1      -8.229  -2.860 -11.155  0.00  0.00    +0.128 C 
ATOM     29  H   UNL     1      -7.613  -0.972 -10.143  0.00  0.00    +0.149 HD
ENDBRANCH  23  25
ENDBRANCH  17  19
ENDBRANCH   1  17
TORSDOF 7
