REMARK  Name = ZINC05291004
REMARK  7 active torsions:
REMARK  status: ('A' for Active; 'I' for Inactive)
REMARK    1  A    between atoms: C_1  and  C_2
REMARK    2  A    between atoms: C_2  and  C_4
REMARK    3  A    between atoms: C_2  and  N_14
REMARK    4  A    between atoms: C_7  and  S_10
REMARK    5  A    between atoms: S_10  and  N_13
REMARK    6  A    between atoms: C_15  and  C_16
REMARK    7  A    between atoms: C_21  and  O_22
REMARK                            x       y       z     vdW  Elec       q    Type
REMARK                         _______ _______ _______ _____ _____    ______ ____
ROOT
ATOM      1  C   UNL     1      -0.013   1.516   0.028  0.00  0.00    +0.035 C 
ATOM      2  C   UNL     1       0.006  -0.014   0.006  0.00  0.00    +0.106 C 
ENDROOT
BRANCH   2   3
ATOM      3  C   UNL     1       0.740  -0.524   1.220  0.00  0.00    -0.025 A 
ATOM      4  C   UNL     1       0.094  -0.590   2.440  0.00  0.00    +0.007 A 
ATOM      5  C   UNL     1       0.767  -1.058   3.554  0.00  0.00    +0.029 A 
ATOM      6  C   UNL     1       2.085  -1.461   3.446  0.00  0.00    +0.105 A 
ATOM      7  C   UNL     1       2.730  -1.396   2.225  0.00  0.00    +0.029 A 
ATOM      8  C   UNL     1       2.056  -0.932   1.111  0.00  0.00    +0.007 A 
BRANCH   6   9
ATOM      9  S   UNL     1       2.942  -2.057   4.865  0.00  0.00    +0.056 S 
ATOM     10  O   UNL     1       4.327  -1.858   4.616  0.00  0.00    -0.153 OA
ATOM     11  O   UNL     1       2.285  -1.505   5.998  0.00  0.00    -0.153 OA
BRANCH   9  12
ATOM     12  N   UNL     1       2.704  -3.694   4.930  0.00  0.00    -0.204 NA
ATOM     13  H   UNL     1       3.381  -4.268   5.321  0.00  0.00    +0.144 HD
ATOM     14  H   UNL     1       1.886  -4.079   4.578  0.00  0.00    +0.144 HD
ENDBRANCH   9  12
ENDBRANCH   6   9
ENDBRANCH   2   3
BRANCH   2  15
ATOM     15  N   UNL     1      -1.368  -0.520   0.017  0.00  0.00    -0.383 N 
ATOM     16  C   UNL     1      -1.795  -1.256  -0.958  0.00  0.00    +0.090 C 
ATOM     17  H   UNL     1      -1.959  -0.304   0.756  0.00  0.00    +0.160 HD
BRANCH  16  18
ATOM     18  C   UNL     1      -3.139  -1.856  -0.895  0.00  0.00    +0.035 A 
ATOM     19  C   UNL     1      -3.560  -2.744  -1.889  0.00  0.00    +0.033 A 
ATOM     20  C   UNL     1      -4.819  -3.302  -1.825  0.00  0.00    +0.043 A 
ATOM     21  C   UNL     1      -5.670  -2.987  -0.777  0.00  0.00    +0.043 A 
ATOM     22  C   UNL     1      -5.266  -2.111   0.212  0.00  0.00    +0.084 A 
ATOM     23  C   UNL     1      -4.001  -1.545   0.165  0.00  0.00    +0.144 A 
ATOM     24 CL   UNL     1      -6.342  -1.724   1.519  0.00  0.00    -0.080 Cl
ATOM     25 CL   UNL     1      -5.340  -4.404  -3.061  0.00  0.00    -0.083 Cl
BRANCH  23  26
ATOM     26  O   UNL     1      -3.601  -0.688   1.139  0.00  0.00    -0.505 OA
ATOM     27  H   UNL     1      -3.809   0.238   0.959  0.00  0.00    +0.292 HD
ENDBRANCH  23  26
ENDBRANCH  16  18
ENDBRANCH   2  15
TORSDOF 6
