REMARK  Name = ZINC06525383
REMARK  9 active torsions:
REMARK  status: ('A' for Active; 'I' for Inactive)
REMARK    1  A    between atoms: C_1  and  C_2
REMARK    2  A    between atoms: C_7  and  C_8
REMARK    3  A    between atoms: N_10  and  C_11
REMARK    4  A    between atoms: C_11  and  C_22
REMARK    5  A    between atoms: C_12  and  C_13
REMARK    6  A    between atoms: C_17  and  N_19
REMARK    7  A    between atoms: C_22  and  O_24
REMARK    8  A    between atoms: O_24  and  C_25
REMARK    9  A    between atoms: C_25  and  C_26
REMARK                            x       y       z     vdW  Elec       q    Type
REMARK                         _______ _______ _______ _____ _____    ______ ____
ROOT
ATOM      1  C   UNL     1       0.704  -0.216   5.076  0.00  0.00    +0.119 C 
ATOM      2  C   UNL     1       0.448  -0.972   6.169  0.00  0.00    +0.038 C 
ENDROOT
BRANCH   2   3
ATOM      3  C   UNL     1       0.695  -2.422   6.135  0.00  0.00    -0.021 A 
ATOM      4  C   UNL     1       1.486  -2.976   5.123  0.00  0.00    +0.008 A 
ATOM      5  C   UNL     1       1.714  -4.336   5.099  0.00  0.00    +0.003 A 
ATOM      6  C   UNL     1       1.163  -5.151   6.072  0.00  0.00    +0.033 A 
ATOM      7  C   UNL     1       0.379  -4.611   7.076  0.00  0.00    +0.127 A 
ATOM      8  C   UNL     1       0.146  -3.252   7.118  0.00  0.00    +0.040 A 
BRANCH   7   9
ATOM      9  N   UNL     1      -0.206  -5.492   8.111  0.00  0.00    +0.056 N 
ATOM     10  O   UNL     1       0.000  -6.683   8.078  0.00  0.00    -0.126 OA
ATOM     11  O   UNL     1      -0.891  -5.021   8.989  0.00  0.00    -0.126 OA
ENDBRANCH   7   9
ENDBRANCH   2   3
BRANCH   1  14
ATOM     12  C   UNL     1       2.175  -0.478   3.226  0.00  0.00    +0.249 C 
ATOM     13  O   UNL     1       2.950   0.302   3.746  0.00  0.00    -0.270 OA
ATOM     14  N   UNL     1       1.042  -0.829   3.866  0.00  0.00    -0.276 N 
ATOM     15  H   UNL     1       0.461  -1.506   3.486  0.00  0.00    +0.155 HD
BRANCH  12  22
ATOM     16  C   UNL     1       4.539   0.396   1.805  0.00  0.00    +0.044 C 
ATOM     17  C   UNL     1       3.614  -0.627   1.198  0.00  0.00    -0.038 A 
ATOM     18  C   UNL     1       3.893  -1.162  -0.043  0.00  0.00    +0.004 A 
ATOM     19  C   UNL     1       3.044  -2.102  -0.601  0.00  0.00    +0.000 A 
ATOM     20  C   UNL     1       1.911  -2.511   0.080  0.00  0.00    +0.001 A 
ATOM     21  C   UNL     1       1.621  -1.985   1.321  0.00  0.00    +0.013 A 
ATOM     22  C   UNL     1       2.476  -1.041   1.893  0.00  0.00    +0.040 A 
ENDBRANCH  12  22
ENDBRANCH   1  14
BRANCH   1  23
ATOM     23  C   UNL     1       0.627   1.248   5.162  0.00  0.00    +0.354 C 
ATOM     24  O   UNL     1       0.410   1.784   6.232  0.00  0.00    -0.244 OA
BRANCH  23  25
ATOM     25  O   UNL     1       0.797   1.998   4.054  0.00  0.00    -0.447 OA
BRANCH  25  26
ATOM     26  C   UNL     1       0.709   3.416   4.211  0.00  0.00    +0.320 C 
BRANCH  26  27
ATOM     27  C   UNL     1       0.919   4.068   2.908  0.00  0.00    -0.065 C 
ATOM     28  C   UNL     1       1.086   4.588   1.868  0.00  0.00    +0.007 C 
ENDBRANCH  26  27
ENDBRANCH  25  26
ENDBRANCH  23  25
ENDBRANCH   1  23
TORSDOF 8
