REMARK  Name = ZINC25664205
REMARK  8 active torsions:
REMARK  status: ('A' for Active; 'I' for Inactive)
REMARK    1  A    between atoms: C_1  and  C_2
REMARK    2  A    between atoms: C_3  and  C_17
REMARK    3  A    between atoms: C_5  and  C_7
REMARK    4  A    between atoms: C_10  and  C_13
REMARK    5  A    between atoms: C_17  and  O_19
REMARK    6  A    between atoms: O_19  and  C_20
REMARK    7  A    between atoms: C_20  and  C_22
REMARK    8  A    between atoms: C_20  and  C_23
REMARK                            x       y       z     vdW  Elec       q    Type
REMARK                         _______ _______ _______ _____ _____    ______ ____
ROOT
ATOM      1  C   UNL     1      -1.277  -0.800   0.010  0.00  0.00    +0.067 C 
ATOM      2  C   UNL     1       0.002  -0.004   0.002  0.00  0.00    +0.060 A 
ATOM      3  C   UNL     1      -0.017   1.386   0.010  0.00  0.00    +0.119 A 
ATOM      4  S   UNL     1       1.735   1.738  -0.005  0.00  0.00    -0.060 S 
ATOM      5  C   UNL     1       2.297   0.095  -0.019  0.00  0.00    +0.109 A 
ATOM      6  N   UNL     1       1.165  -0.596  -0.012  0.00  0.00    -0.243 NA
ENDROOT
BRANCH   5   7
ATOM      7  C   UNL     1       3.686  -0.408  -0.036  0.00  0.00    +0.007 A 
ATOM      8  C   UNL     1       3.935  -1.781  -0.041  0.00  0.00    +0.011 A 
ATOM      9  C   UNL     1       5.235  -2.244  -0.062  0.00  0.00    +0.013 A 
ATOM     10  C   UNL     1       6.291  -1.349  -0.067  0.00  0.00    +0.055 A 
ATOM     11  C   UNL     1       6.051   0.014  -0.056  0.00  0.00    +0.013 A 
ATOM     12  C   UNL     1       4.756   0.489  -0.041  0.00  0.00    +0.011 A 
BRANCH  10  13
ATOM     13  C   UNL     1       7.708  -1.861  -0.083  0.00  0.00    +0.417 C 
ATOM     14  F   UNL     1       8.159  -2.028   1.231  0.00  0.00    -0.166 F 
ATOM     15  F   UNL     1       7.752  -3.090  -0.750  0.00  0.00    -0.166 F 
ATOM     16  F   UNL     1       8.528  -0.942  -0.745  0.00  0.00    -0.166 F 
ENDBRANCH  10  13
ENDBRANCH   5   7
BRANCH   3  17
ATOM     17  C   UNL     1      -1.155   2.306   0.020  0.00  0.00    +0.349 C 
ATOM     18  O   UNL     1      -2.291   1.869   0.024  0.00  0.00    -0.244 OA
BRANCH  17  19
ATOM     19  O   UNL     1      -0.946   3.639   0.027  0.00  0.00    -0.443 OA
BRANCH  19  20
ATOM     20  C   UNL     1      -2.122   4.491   0.037  0.00  0.00    +0.275 C 
ATOM     21  C   UNL     1      -2.542   4.798  -1.402  0.00  0.00    +0.068 C 
BRANCH  20  22
ATOM     22  C   UNL     1      -1.810   5.748   0.736  0.00  0.00    +0.107 C 
ATOM     23  N   UNL     1      -1.570   6.718   1.276  0.00  0.00    -0.193 NA
ENDBRANCH  20  22
ENDBRANCH  19  20
ENDBRANCH  17  19
ENDBRANCH   3  17
TORSDOF 6
