REMARK  Name = ZINC10056301
REMARK  9 active torsions:
REMARK  status: ('A' for Active; 'I' for Inactive)
REMARK    1  A    between atoms: C_1  and  C_2
REMARK    2  A    between atoms: C_2  and  C_3
REMARK    3  A    between atoms: N_11  and  C_15
REMARK    4  A    between atoms: C_15  and  C_16
REMARK    5  A    between atoms: C_16  and  O_18
REMARK    6  A    between atoms: O_18  and  C_19
REMARK    7  A    between atoms: C_19  and  C_21
REMARK    8  A    between atoms: C_19  and  C_22
REMARK    9  A    between atoms: N_24  and  C_25
REMARK                            x       y       z     vdW  Elec       q    Type
REMARK                         _______ _______ _______ _____ _____    ______ ____
ROOT
ATOM      1  C   UNL     1      -4.307  -3.228  -1.002  0.00  0.00    +0.326 C 
ATOM      2  O   UNL     1      -5.275  -2.709  -1.505  0.00  0.00    -0.249 OA
ENDROOT
BRANCH   1   3
ATOM      3  C   UNL     1      -4.083  -4.711  -1.154  0.00  0.00    +0.238 C 
BRANCH   3  12
ATOM      4  C   UNL     1      -6.314  -6.254  -6.570  0.00  0.00    -0.011 C 
ATOM      5  C   UNL     1      -6.529  -4.907  -5.879  0.00  0.00    +0.006 C 
ATOM      6  C   UNL     1      -7.276  -5.125  -4.560  0.00  0.00    +0.035 C 
ATOM      7  C   UNL     1      -6.463  -6.052  -3.662  0.00  0.00    +0.113 C 
ATOM      8  C   UNL     1      -6.222  -7.392  -4.348  0.00  0.00    +0.035 C 
ATOM      9  C   UNL     1      -5.480  -7.166  -5.667  0.00  0.00    +0.006 C 
ATOM     10  C   UNL     1      -5.148  -5.406  -3.292  0.00  0.00    +0.247 C 
ATOM     11  O   UNL     1      -4.260  -5.064  -4.044  0.00  0.00    -0.273 OA
ATOM     12  N   UNL     1      -5.169  -5.290  -1.948  0.00  0.00    -0.213 N 
ATOM     13  C   UNL     1      -6.304  -5.775  -1.429  0.00  0.00    +0.310 C 
ATOM     14  O   UNL     1      -6.553  -5.787  -0.240  0.00  0.00    -0.252 OA
ATOM     15  N   UNL     1      -7.140  -6.246  -2.374  0.00  0.00    -0.285 N 
ATOM     16  H   UNL     1      -8.015  -6.639  -2.232  0.00  0.00    +0.151 HD
BRANCH   4  18
ATOM     17  C   UNL     1      -5.471  -7.365  -8.643  0.00  0.00    +0.004 C 
ATOM     18  C   UNL     1      -5.577  -6.036  -7.893  0.00  0.00    -0.000 C 
ENDBRANCH   4  18
ENDBRANCH   3  12
ENDBRANCH   1   3
BRANCH   1  19
ATOM     19  O   UNL     1      -3.432  -2.485  -0.307  0.00  0.00    -0.451 OA
BRANCH  19  20
ATOM     20  C   UNL     1      -3.711  -1.064  -0.202  0.00  0.00    +0.259 C 
ATOM     21  C   UNL     1      -4.564  -0.803   1.041  0.00  0.00    +0.062 C 
BRANCH  20  22
ATOM     22  C   UNL     1      -2.414  -0.304  -0.090  0.00  0.00    +0.258 C 
ATOM     23  O   UNL     1      -1.359  -0.901  -0.099  0.00  0.00    -0.271 OA
ATOM     24  N   UNL     1      -2.428   1.039   0.019  0.00  0.00    -0.281 N 
ATOM     25  H   UNL     1      -3.272   1.512   0.091  0.00  0.00    +0.155 HD
BRANCH  24  26
ATOM     26  C   UNL     1      -1.224   1.753   0.029  0.00  0.00    +0.052 A 
ATOM     27  C   UNL     1      -0.096   1.206   0.626  0.00  0.00    +0.026 A 
ATOM     28  C   UNL     1       1.093   1.910   0.628  0.00  0.00    +0.022 A 
ATOM     29  C   UNL     1       1.159   3.162   0.042  0.00  0.00    +0.042 A 
ATOM     30  C   UNL     1       0.036   3.712  -0.549  0.00  0.00    +0.041 A 
ATOM     31  C   UNL     1      -1.156   3.013  -0.554  0.00  0.00    +0.064 A 
ATOM     32 CL   UNL     1      -2.566   3.704  -1.295  0.00  0.00    -0.082 Cl
ATOM     33 CL   UNL     1       2.655   4.043   0.047  0.00  0.00    -0.083 Cl
ENDBRANCH  24  26
ENDBRANCH  20  22
ENDBRANCH  19  20
ENDBRANCH   1  19
TORSDOF 7
