REMARK  Name = ZINC21249265
REMARK  7 active torsions:
REMARK  status: ('A' for Active; 'I' for Inactive)
REMARK    1  A    between atoms: C_1  and  C_2
REMARK    2  A    between atoms: C_2  and  C_3
REMARK    3  A    between atoms: C_2  and  O_4
REMARK    4  A    between atoms: O_4  and  C_5
REMARK    5  A    between atoms: C_8  and  C_11
REMARK    6  A    between atoms: C_16  and  C_26
REMARK    7  A    between atoms: C_30  and  O_32
REMARK                            x       y       z     vdW  Elec       q    Type
REMARK                         _______ _______ _______ _____ _____    ______ ____
ROOT
ATOM      1  C   UNL     1       3.017   1.129   4.341  0.00  0.00    +0.032 C 
ATOM      2  C   UNL     1       3.984   1.596   3.255  0.00  0.00    +0.059 C 
ATOM      3  C   UNL     1       3.335   1.462   1.887  0.00  0.00    +0.017 C 
ATOM      4  C   UNL     1       2.444   0.485   1.649  0.00  0.00    +0.036 C 
ATOM      5  C   UNL     1       1.730   0.237   0.341  0.00  0.00    +0.136 C 
ATOM      6  N   UNL     1       2.257   0.985  -0.780  0.00  0.00    -0.331 N 
ATOM      7  C   UNL     1       2.188   2.376  -0.807  0.00  0.00    +0.049 A 
ATOM      8  C   UNL     1       1.390   3.040  -1.726  0.00  0.00    +0.025 A 
ATOM      9  C   UNL     1       1.286   4.418  -1.666  0.00  0.00    +0.002 A 
ATOM     10  C   UNL     1       1.971   5.132  -0.700  0.00  0.00    +0.002 A 
ATOM     11  C   UNL     1       2.788   4.475   0.204  0.00  0.00    +0.025 A 
ATOM     12  C   UNL     1       2.908   3.099   0.132  0.00  0.00    +0.052 A 
ATOM     13  N   UNL     1       3.748   2.378   0.974  0.00  0.00    -0.316 N 
ATOM     14  C   UNL     1       2.094  -0.427   2.673  0.00  0.00    +0.163 C 
ATOM     15  O   UNL     1       1.300  -1.313   2.423  0.00  0.00    -0.292 OA
ATOM     16  C   UNL     1       2.667  -0.337   4.055  0.00  0.00    +0.088 C 
ATOM     17  H   UNL     1       2.721   0.456  -1.626  0.00  0.00    +0.147 HD
ATOM     18  H   UNL     1       4.821   2.596   0.860  0.00  0.00    +0.152 HD
ENDROOT
BRANCH   1  22
ATOM     19  C   UNL     1       4.878   1.453   8.175  0.00  0.00    +0.121 A 
ATOM     20  C   UNL     1       3.714   2.159   7.905  0.00  0.00    +0.046 A 
ATOM     21  C   UNL     1       3.115   2.053   6.665  0.00  0.00    +0.007 A 
ATOM     22  C   UNL     1       3.673   1.243   5.693  0.00  0.00    -0.043 A 
ATOM     23  C   UNL     1       4.830   0.534   5.961  0.00  0.00    +0.007 A 
ATOM     24  C   UNL     1       5.436   0.642   7.197  0.00  0.00    +0.046 A 
BRANCH  19  25
ATOM     25  O   UNL     1       5.470   1.557   9.393  0.00  0.00    -0.489 OA
BRANCH  25  27
ATOM     26  C   UNL     1       3.763   1.846  11.080  0.00  0.00    +0.051 C 
ATOM     27  C   UNL     1       4.910   2.501  10.308  0.00  0.00    +0.167 C 
ATOM     28  C   UNL     1       5.989   2.960  11.291  0.00  0.00    +0.051 C 
ENDBRANCH  25  27
ENDBRANCH  19  25
ENDBRANCH   1  22
BRANCH   5  29
ATOM     29  C   UNL     1       0.277   0.597   0.514  0.00  0.00    -0.019 A 
ATOM     30  C   UNL     1      -0.085   1.906   0.771  0.00  0.00    +0.006 A 
ATOM     31  C   UNL     1      -1.417   2.239   0.930  0.00  0.00    +0.004 A 
ATOM     32  C   UNL     1      -2.391   1.263   0.833  0.00  0.00    +0.045 A 
ATOM     33  C   UNL     1      -2.031  -0.050   0.570  0.00  0.00    +0.117 A 
ATOM     34  C   UNL     1      -0.693  -0.383   0.416  0.00  0.00    +0.051 A 
BRANCH  33  35
ATOM     35  O   UNL     1      -2.987  -1.011   0.469  0.00  0.00    -0.507 OA
ATOM     36  H   UNL     1      -2.700  -2.052   0.260  0.00  0.00    +0.292 HD
ENDBRANCH  33  35
ENDBRANCH   5  29
TORSDOF 5
