REMARK  Name = ZINC02505823
REMARK  5 active torsions:
REMARK  status: ('A' for Active; 'I' for Inactive)
REMARK    1  A    between atoms: C_1  and  C_2
REMARK    2  A    between atoms: C_5  and  C_8
REMARK    3  A    between atoms: C_12  and  N_27
REMARK    4  A    between atoms: C_13  and  C_17
REMARK    5  A    between atoms: C_17  and  C_19
REMARK                            x       y       z     vdW  Elec       q    Type
REMARK                         _______ _______ _______ _____ _____    ______ ____
ROOT
ATOM      1  C   UNL     1      -2.561   1.027  -0.479  0.00  0.00    +0.072 A 
ATOM      2  C   UNL     1      -3.728   1.695  -0.096  0.00  0.00    +0.029 A 
ATOM      3  C   UNL     1      -4.882   1.003   0.113  0.00  0.00    +0.014 A 
ATOM      4  C   UNL     1      -4.885  -0.406  -0.051  0.00  0.00    +0.029 A 
ATOM      5  C   UNL     1      -5.989  -1.336   0.124  0.00  0.00    +0.052 A 
ATOM      6  C   UNL     1      -5.753  -2.680  -0.093  0.00  0.00    +0.083 A 
ATOM      7  S   UNL     1      -4.029  -2.729  -0.542  0.00  0.00    -0.064 S 
ATOM      8  C   UNL     1      -3.658  -0.996  -0.435  0.00  0.00    +0.111 A 
ATOM      9  N   UNL     1      -2.566  -0.291  -0.632  0.00  0.00    -0.239 NA
ENDROOT
BRANCH   1  14
ATOM     10  C   UNL     1       2.284   4.003  -1.386  0.00  0.00    +0.044 C 
ATOM     11  C   UNL     1       1.016   3.224  -1.146  0.00  0.00    -0.050 A 
ATOM     12  C   UNL     1       1.012   1.850  -1.306  0.00  0.00    +0.004 A 
ATOM     13  C   UNL     1      -0.145   1.131  -1.087  0.00  0.00    +0.010 A 
ATOM     14  C   UNL     1      -1.313   1.793  -0.710  0.00  0.00    +0.000 A 
ATOM     15  C   UNL     1      -1.301   3.177  -0.545  0.00  0.00    +0.010 A 
ATOM     16  C   UNL     1      -0.138   3.886  -0.766  0.00  0.00    +0.004 A 
ENDBRANCH   1  14
BRANCH   5  17
ATOM     17  N   UNL     1      -7.245  -0.886   0.498  0.00  0.00    -0.356 N 
ATOM     18  H   UNL     1      -7.396   0.061   0.647  0.00  0.00    +0.142 HD
ATOM     19  H   UNL     1      -7.973  -1.517   0.611  0.00  0.00    +0.142 HD
ENDBRANCH   5  17
BRANCH   6  20
ATOM     20  C   UNL     1      -6.662  -3.758   0.015  0.00  0.00    +0.203 C 
ATOM     21  O   UNL     1      -7.846  -3.541   0.207  0.00  0.00    -0.286 OA
BRANCH  20  22
ATOM     22  C   UNL     1      -6.177  -5.150  -0.107  0.00  0.00    +0.041 A 
ATOM     23  C   UNL     1      -4.806  -5.416  -0.116  0.00  0.00    +0.014 A 
ATOM     24  C   UNL     1      -4.359  -6.715  -0.225  0.00  0.00    +0.021 A 
ATOM     25  C   UNL     1      -5.267  -7.756  -0.335  0.00  0.00    +0.042 A 
ATOM     26  C   UNL     1      -6.627  -7.500  -0.332  0.00  0.00    +0.040 A 
ATOM     27  C   UNL     1      -7.088  -6.203  -0.218  0.00  0.00    +0.053 A 
ATOM     28 CL   UNL     1      -8.794  -5.883  -0.214  0.00  0.00    -0.083 Cl
ATOM     29 CL   UNL     1      -4.696  -9.389  -0.479  0.00  0.00    -0.083 Cl
ENDBRANCH  20  22
ENDBRANCH   6  20
TORSDOF 4
