REMARK  Name = ZINC19338003
REMARK  6 active torsions:
REMARK  status: ('A' for Active; 'I' for Inactive)
REMARK    1  A    between atoms: C_6  and  C_7
REMARK    2  A    between atoms: C_10  and  C_21
REMARK    3  A    between atoms: C_11  and  C_19
REMARK    4  A    between atoms: C_12  and  N_18
REMARK    5  A    between atoms: C_13  and  C_14
REMARK    6  A    between atoms: C_13  and  C_16
REMARK                            x       y       z     vdW  Elec       q    Type
REMARK                         _______ _______ _______ _____ _____    ______ ____
ROOT
ATOM      1  C   UNL     1       2.328   0.111   0.795  0.00  0.00    +0.082 C 
ATOM      2  C   UNL     1       1.103  -0.649   0.367  0.00  0.00    -0.011 C 
ATOM      3  C   UNL     1       0.002  -0.004   0.002  0.00  0.00    -0.029 C 
ATOM      4  C   UNL     1      -0.019   1.473   0.012  0.00  0.00    +0.074 C 
ATOM      5  C   UNL     1       1.161   2.156   0.005  0.00  0.00    +0.054 C 
ATOM      6  C   UNL     1       2.462   1.398  -0.018  0.00  0.00    +0.191 C 
ENDROOT
BRANCH   1  12
ATOM      7  C   UNL     1       1.169   1.236   2.707  0.00  0.00    +0.007 A 
ATOM      8  C   UNL     1       1.062   1.547   4.049  0.00  0.00    +0.038 A 
ATOM      9  C   UNL     1       2.013   1.085   4.943  0.00  0.00    +0.123 A 
ATOM     10  C   UNL     1       3.066   0.307   4.492  0.00  0.00    +0.038 A 
ATOM     11  C   UNL     1       3.166  -0.008   3.151  0.00  0.00    +0.007 A 
ATOM     12  C   UNL     1       2.217   0.455   2.258  0.00  0.00    -0.037 A 
ATOM     13  F   UNL     1       1.913   1.394   6.255  0.00  0.00    -0.205 F 
ENDBRANCH   1  12
BRANCH   5  14
ATOM     14  N   UNL     1       1.164   3.523   0.016  0.00  0.00    -0.358 N 
ATOM     15  H   UNL     1       2.117   4.071   0.010  0.00  0.00    +0.142 HD
ATOM     16  H   UNL     1       0.212   4.074   0.032  0.00  0.00    +0.142 HD
ENDBRANCH   5  14
BRANCH   3  17
ATOM     17  C   UNL     1      -1.222  -0.775  -0.422  0.00  0.00    +0.020 C 
ATOM     18  C   UNL     1      -1.010  -2.003  -1.310  0.00  0.00    +0.009 C 
ATOM     19  C   UNL     1      -1.611  -0.725  -1.900  0.00  0.00    +0.009 C 
ENDBRANCH   3  17
BRANCH   6  20
ATOM     20  C   UNL     1       3.526   2.234   0.562  0.00  0.00    +0.091 C 
ATOM     21  N   UNL     1       4.347   2.879   1.010  0.00  0.00    -0.194 NA
ENDBRANCH   6  20
BRANCH   6  22
ATOM     22  C   UNL     1       2.808   1.063  -1.409  0.00  0.00    +0.091 C 
ATOM     23  N   UNL     1       3.074   0.805  -2.483  0.00  0.00    -0.194 NA
ENDBRANCH   6  22
BRANCH   4  24
ATOM     24  C   UNL     1      -1.264   2.180   0.024  0.00  0.00    +0.101 C 
ATOM     25  N   UNL     1      -2.252   2.740   0.034  0.00  0.00    -0.191 NA
ENDBRANCH   4  24
TORSDOF 6
