REMARK  Name = ZINC16068416
REMARK  12 active torsions:
REMARK  status: ('A' for Active; 'I' for Inactive)
REMARK    1  A    between atoms: C_1  and  C_2
REMARK    2  A    between atoms: C_2  and  C_4
REMARK    3  A    between atoms: C_2  and  O_17
REMARK    4  A    between atoms: N_6  and  C_7
REMARK    5  A    between atoms: C_11  and  S_13
REMARK    6  A    between atoms: S_13  and  N_16
REMARK    7  A    between atoms: O_17  and  C_18
REMARK    8  A    between atoms: C_18  and  C_20
REMARK    9  A    between atoms: C_20  and  C_30
REMARK   10  A    between atoms: C_21  and  C_22
REMARK   11  A    between atoms: C_27  and  O_28
REMARK   12  A    between atoms: O_28  and  C_29
REMARK                            x       y       z     vdW  Elec       q    Type
REMARK                         _______ _______ _______ _____ _____    ______ ____
ROOT
ATOM      1  O   UNL     1       5.966   3.394   0.582  0.00  0.00    -0.449 OA
ENDROOT
BRANCH   1   3
ATOM      2  C   UNL     1       7.277   4.498   2.312  0.00  0.00    +0.062 C 
ATOM      3  C   UNL     1       7.136   4.221   0.814  0.00  0.00    +0.259 C 
BRANCH   3   4
ATOM      4  C   UNL     1       8.365   3.502   0.319  0.00  0.00    +0.258 C 
ATOM      5  O   UNL     1       8.264   2.402  -0.181  0.00  0.00    -0.271 OA
ATOM      6  N   UNL     1       9.576   4.083   0.430  0.00  0.00    -0.282 N 
ATOM      7  H   UNL     1       9.649   4.993   0.759  0.00  0.00    +0.155 HD
BRANCH   6   8
ATOM      8  C   UNL     1      10.728   3.373   0.073  0.00  0.00    +0.035 A 
ATOM      9  C   UNL     1      10.695   2.486  -0.995  0.00  0.00    +0.023 A 
ATOM     10  C   UNL     1      11.833   1.787  -1.345  0.00  0.00    +0.004 A 
ATOM     11  C   UNL     1      13.005   1.970  -0.634  0.00  0.00    +0.028 A 
ATOM     12  C   UNL     1      13.042   2.853   0.429  0.00  0.00    +0.107 A 
ATOM     13  C   UNL     1      11.908   3.559   0.781  0.00  0.00    +0.051 A 
BRANCH  12  14
ATOM     14  S   UNL     1      14.537   3.084   1.331  0.00  0.00    +0.056 S 
ATOM     15  O   UNL     1      14.166   3.555   2.619  0.00  0.00    -0.153 OA
ATOM     16  O   UNL     1      15.310   1.906   1.144  0.00  0.00    -0.153 OA
BRANCH  14  17
ATOM     17  N   UNL     1      15.367   4.315   0.597  0.00  0.00    -0.204 NA
ATOM     18  H   UNL     1      15.951   4.886   1.121  0.00  0.00    +0.144 HD
ATOM     19  H   UNL     1      15.269   4.466  -0.356  0.00  0.00    +0.144 HD
ENDBRANCH  14  17
ENDBRANCH  12  14
ENDBRANCH   6   8
ENDBRANCH   3   4
ENDBRANCH   1   3
BRANCH   1  20
ATOM     20  C   UNL     1       4.798   4.033   0.364  0.00  0.00    +0.340 C 
ATOM     21  O   UNL     1       4.760   5.248   0.369  0.00  0.00    -0.245 OA
BRANCH  20  22
ATOM     22  C   UNL     1       3.573   3.261   0.123  0.00  0.00    +0.067 C 
ATOM     23  C   UNL     1       2.393   3.906  -0.097  0.00  0.00    +0.027 C 
BRANCH  23  24
ATOM     24  C   UNL     1       1.202   3.145  -0.487  0.00  0.00    +0.017 A 
ATOM     25  C   UNL     1       1.311   2.078  -1.387  0.00  0.00    +0.011 A 
ATOM     26  C   UNL     1       0.188   1.367  -1.748  0.00  0.00    +0.001 A 
ATOM     27  C   UNL     1      -1.052   1.706  -1.228  0.00  0.00    +0.004 A 
ATOM     28  C   UNL     1      -1.174   2.753  -0.335  0.00  0.00    +0.046 A 
ATOM     29  C   UNL     1      -0.057   3.481   0.041  0.00  0.00    +0.127 A 
BRANCH  29  30
ATOM     30  O   UNL     1      -0.176   4.512   0.914  0.00  0.00    -0.495 OA
ATOM     31  C   UNL     1      -1.487   4.795   1.408  0.00  0.00    +0.277 C 
ENDBRANCH  29  30
ENDBRANCH  23  24
BRANCH  22  32
ATOM     32  C   UNL     1       3.619   1.781   0.117  0.00  0.00    -0.011 A 
ATOM     33  C   UNL     1       2.969   1.056   1.116  0.00  0.00    +0.009 A 
ATOM     34  C   UNL     1       3.011  -0.323   1.103  0.00  0.00    +0.001 A 
ATOM     35  C   UNL     1       3.706  -0.987   0.108  0.00  0.00    +0.000 A 
ATOM     36  C   UNL     1       4.357  -0.274  -0.883  0.00  0.00    +0.001 A 
ATOM     37  C   UNL     1       4.318   1.105  -0.883  0.00  0.00    +0.009 A 
ENDBRANCH  22  32
ENDBRANCH  20  22
ENDBRANCH   1  20
TORSDOF 10
