REMARK  Name = ZINC39914722
REMARK  7 active torsions:
REMARK  status: ('A' for Active; 'I' for Inactive)
REMARK    1  A    between atoms: C_1  and  C_2
REMARK    2  A    between atoms: C_5  and  C_8
REMARK    3  A    between atoms: C_8  and  N_9
REMARK    4  A    between atoms: C_10  and  C_29
REMARK    5  A    between atoms: C_13  and  C_20
REMARK    6  A    between atoms: C_23  and  C_27
REMARK    7  A    between atoms: C_25  and  O_26
REMARK                            x       y       z     vdW  Elec       q    Type
REMARK                         _______ _______ _______ _____ _____    ______ ____
ROOT
ATOM      1  N   UNL     1       1.499  -4.570  -0.071  0.00  0.00    -0.281 N 
ATOM      2  C   UNL     1       2.348  -4.867  -1.232  0.00  0.00    +0.142 C 
ATOM      3  C   UNL     1       3.627  -5.433  -0.679  0.00  0.00    +0.035 A 
ATOM      4  C   UNL     1       4.899  -5.953  -0.944  0.00  0.00    +0.102 A 
ATOM      5  N   UNL     1       5.455  -6.245   0.215  0.00  0.00    -0.173 NA
ATOM      6  N   UNL     1       4.661  -5.962   1.186  0.00  0.00    -0.272 N 
ATOM      7  H   UNL     1       4.861  -6.093   2.126  0.00  0.00    +0.189 HD
ATOM      8  C   UNL     1       3.494  -5.447   0.696  0.00  0.00    +0.126 A 
ATOM      9  C   UNL     1       2.175  -4.904   1.043  0.00  0.00    +0.266 C 
ATOM     10  O   UNL     1       1.752  -4.778   2.176  0.00  0.00    -0.268 OA
ENDROOT
BRANCH   4  11
ATOM     11  C   UNL     1       5.509  -6.142  -2.283  0.00  0.00    +0.045 A 
ATOM     12  C   UNL     1       5.454  -5.119  -3.227  0.00  0.00    +0.034 A 
ATOM     13  C   UNL     1       6.024  -5.299  -4.472  0.00  0.00    +0.045 A 
ATOM     14  C   UNL     1       6.650  -6.494  -4.786  0.00  0.00    -0.029 A 
ATOM     15  C   UNL     1       6.709  -7.514  -3.856  0.00  0.00    +0.050 A 
ATOM     16  C   UNL     1       6.146  -7.344  -2.601  0.00  0.00    +0.126 A 
ATOM     17  C   UNL     1       7.268  -6.682  -6.147  0.00  0.00    +0.045 C 
ATOM     18 CL   UNL     1       5.955  -4.024  -5.648  0.00  0.00    -0.083 Cl
BRANCH  16  19
ATOM     19  O   UNL     1       6.209  -8.345  -1.684  0.00  0.00    -0.506 OA
ATOM     20  H   UNL     1       5.464  -8.960  -1.721  0.00  0.00    +0.292 HD
ENDBRANCH  16  19
ENDBRANCH   4  11
BRANCH   2  21
ATOM     21  C   UNL     1       1.674  -5.880  -2.122  0.00  0.00    -0.022 A 
ATOM     22  C   UNL     1       1.086  -7.003  -1.569  0.00  0.00    +0.006 A 
ATOM     23  C   UNL     1       0.468  -7.931  -2.386  0.00  0.00    +0.000 A 
ATOM     24  C   UNL     1       0.437  -7.737  -3.754  0.00  0.00    +0.000 A 
ATOM     25  C   UNL     1       1.024  -6.614  -4.306  0.00  0.00    +0.000 A 
ATOM     26  C   UNL     1       1.638  -5.683  -3.490  0.00  0.00    +0.006 A 
ENDBRANCH   2  21
BRANCH   1  27
ATOM     27  C   UNL     1       0.150  -4.001  -0.118  0.00  0.00    +0.144 C 
BRANCH  27  32
ATOM     28  C   UNL     1       0.480   1.766   0.050  0.00  0.00    +0.044 C 
ATOM     29  C   UNL     1       0.394   0.262   0.006  0.00  0.00    -0.050 A 
ATOM     30  C   UNL     1       0.410  -0.397  -1.210  0.00  0.00    +0.003 A 
ATOM     31  C   UNL     1       0.331  -1.776  -1.250  0.00  0.00    +0.005 A 
ATOM     32  C   UNL     1       0.237  -2.497  -0.074  0.00  0.00    -0.030 A 
ATOM     33  C   UNL     1       0.222  -1.839   1.141  0.00  0.00    +0.005 A 
ATOM     34  C   UNL     1       0.305  -0.460   1.182  0.00  0.00    +0.003 A 
ENDBRANCH  27  32
ENDBRANCH   1  27
TORSDOF 5
