REMARK  Name = ZINC34906444
REMARK  10 active torsions:
REMARK  status: ('A' for Active; 'I' for Inactive)
REMARK    1  A    between atoms: C_1  and  C_2
REMARK    2  A    between atoms: C_4  and  C_37
REMARK    3  A    between atoms: C_6  and  O_8
REMARK    4  A    between atoms: O_8  and  C_9
REMARK    5  A    between atoms: C_9  and  C_10
REMARK    6  A    between atoms: C_12  and  C_15
REMARK    7  A    between atoms: N_17  and  C_18
REMARK    8  A    between atoms: C_24  and  N_26
REMARK    9  A    between atoms: N_26  and  S_27
REMARK   10  A    between atoms: S_27  and  C_30
REMARK                            x       y       z     vdW  Elec       q    Type
REMARK                         _______ _______ _______ _____ _____    ______ ____
ROOT
ATOM      1  C   UNL     1       2.002  -4.804   7.195  0.00  0.00    +0.263 C 
ATOM      2  O   UNL     1       1.770  -5.541   8.135  0.00  0.00    -0.269 OA
ATOM      3  N   UNL     1       3.277  -4.522   6.859  0.00  0.00    -0.306 N 
ATOM      4  H   UNL     1       3.462  -3.935   6.110  0.00  0.00    +0.149 HD
ENDROOT
BRANCH   3   5
ATOM      5  C   UNL     1       4.382  -5.102   7.626  0.00  0.00    +0.092 C 
ATOM      6  C   UNL     1       4.666  -4.229   8.851  0.00  0.00    +0.024 C 
ATOM      7  C   UNL     1       5.821  -4.835   9.651  0.00  0.00    +0.002 C 
ATOM      8  C   UNL     1       7.071  -4.902   8.772  0.00  0.00    +0.002 C 
ATOM      9  C   UNL     1       6.787  -5.775   7.547  0.00  0.00    +0.022 C 
ATOM     10  C   UNL     1       5.633  -5.169   6.747  0.00  0.00    +0.097 C 
BRANCH  10  11
ATOM     11  N   UNL     1       5.361  -6.004   5.574  0.00  0.00    -0.185 NA
ATOM     12  H   UNL     1       4.778  -6.776   5.653  0.00  0.00    +0.148 HD
BRANCH  11  13
ATOM     13  S   UNL     1       6.047  -5.631   4.114  0.00  0.00    +0.059 S 
ATOM     14  O   UNL     1       5.619  -6.628   3.197  0.00  0.00    -0.153 OA
ATOM     15  O   UNL     1       5.813  -4.246   3.898  0.00  0.00    -0.153 OA
BRANCH  13  16
ATOM     16  C   UNL     1       7.789  -5.825   4.293  0.00  0.00    +0.105 A 
ATOM     17  C   UNL     1       8.565  -4.758   4.705  0.00  0.00    +0.031 A 
ATOM     18  C   UNL     1       9.931  -4.909   4.846  0.00  0.00    +0.040 A 
ATOM     19  C   UNL     1      10.523  -6.130   4.574  0.00  0.00    +0.124 A 
ATOM     20  C   UNL     1       9.746  -7.199   4.161  0.00  0.00    +0.040 A 
ATOM     21  C   UNL     1       8.379  -7.047   4.026  0.00  0.00    +0.031 A 
ATOM     22  F   UNL     1      11.859  -6.279   4.711  0.00  0.00    -0.205 F 
ENDBRANCH  13  16
ENDBRANCH  11  13
ENDBRANCH  10  11
ENDBRANCH   3   5
BRANCH   1  25
ATOM     23  C   UNL     1       0.064  -2.932   4.751  0.00  0.00    +0.116 A 
ATOM     24  N   UNL     1       1.101  -3.408   5.385  0.00  0.00    -0.236 NA
ATOM     25  C   UNL     1       0.891  -4.221   6.425  0.00  0.00    +0.133 A 
ATOM     26  C   UNL     1      -0.418  -4.481   6.731  0.00  0.00    +0.080 A 
ATOM     27  S   UNL     1      -1.244  -3.586   5.574  0.00  0.00    -0.076 S 
BRANCH  23  28
ATOM     28  C   UNL     1       0.046  -2.005   3.563  0.00  0.00    +0.291 C 
BRANCH  28  29
ATOM     29  O   UNL     1       0.051  -2.775   2.359  0.00  0.00    -0.485 OA
BRANCH  29  35
ATOM     30  C   UNL     1      -0.018   1.503   0.010  0.00  0.00    +0.044 C 
ATOM     31  C   UNL     1       0.002  -0.004   0.002  0.00  0.00    -0.047 A 
ATOM     32  C   UNL     1       0.006  -0.688  -1.200  0.00  0.00    +0.007 A 
ATOM     33  C   UNL     1       0.025  -2.071  -1.210  0.00  0.00    -0.047 A 
ATOM     34  C   UNL     1       0.040  -2.772  -0.020  0.00  0.00    +0.049 A 
ATOM     35  C   UNL     1       0.036  -2.088   1.187  0.00  0.00    +0.122 A 
ATOM     36  C   UNL     1       0.023  -0.701   1.195  0.00  0.00    +0.049 A 
ATOM     37  C   UNL     1       0.029  -2.813  -2.522  0.00  0.00    +0.044 C 
ENDBRANCH  29  35
ENDBRANCH  28  29
ENDBRANCH  23  28
ENDBRANCH   1  25
TORSDOF 8
