REMARK  Name = ZINC36408789
REMARK  9 active torsions:
REMARK  status: ('A' for Active; 'I' for Inactive)
REMARK    1  A    between atoms: C_1  and  C_2
REMARK    2  A    between atoms: C_14  and  C_16
REMARK    3  A    between atoms: C_16  and  N_17
REMARK    4  A    between atoms: N_17  and  C_18
REMARK    5  A    between atoms: N_17  and  C_19
REMARK    6  A    between atoms: C_19  and  C_20
REMARK    7  A    between atoms: N_22  and  C_23
REMARK    8  A    between atoms: C_23  and  C_24
REMARK    9  A    between atoms: C_23  and  C_25
REMARK                            x       y       z     vdW  Elec       q    Type
REMARK                         _______ _______ _______ _____ _____    ______ ____
ROOT
ATOM      1  N   UNL     1      -0.191  -1.925   4.470  0.00  0.00    +0.389 N 
ATOM      2  C   UNL     1      -0.914  -3.095   3.953  0.00  0.00    -0.095 C 
ATOM      3  H   UNL     1      -0.849  -1.187   4.673  0.00  0.00    -0.081 HD
ENDROOT
BRANCH   1   4
ATOM      4  C   UNL     1       0.771  -1.460   3.462  0.00  0.00    +0.019 C 
BRANCH   4  18
ATOM      5  C   UNL     1      -0.019   1.526   0.010  0.00  0.00    +0.029 C 
ATOM      6  C   UNL     1       0.002  -0.004   0.002  0.00  0.00    +0.087 C 
ATOM      7  C   UNL     1       0.710  -0.496  -1.261  0.00  0.00    +0.118 C 
ATOM      8  C   UNL     1       1.092  -1.944  -1.111  0.00  0.00    +0.219 C 
ATOM      9  O   UNL     1       0.452  -2.800  -1.685  0.00  0.00    -0.275 OA
ATOM     10  N   UNL     1       2.144  -2.297  -0.340  0.00  0.00    -0.284 N 
ATOM     11  C   UNL     1       2.833  -1.333   0.404  0.00  0.00    +0.055 A 
ATOM     12  C   UNL     1       4.215  -1.255   0.360  0.00  0.00    +0.025 A 
ATOM     13  C   UNL     1       4.876  -0.309   1.123  0.00  0.00    +0.002 A 
ATOM     14  C   UNL     1       4.162   0.558   1.930  0.00  0.00    +0.002 A 
ATOM     15  C   UNL     1       2.781   0.493   1.972  0.00  0.00    +0.025 A 
ATOM     16  C   UNL     1       2.112  -0.444   1.202  0.00  0.00    +0.058 A 
ATOM     17  N   UNL     1       0.711  -0.488   1.189  0.00  0.00    -0.268 N 
ATOM     18  C   UNL     1       0.028  -0.965   2.248  0.00  0.00    +0.204 C 
ATOM     19  O   UNL     1      -1.184  -0.998   2.224  0.00  0.00    -0.277 OA
ATOM     20  H   UNL     1       2.424  -3.225  -0.302  0.00  0.00    +0.155 HD
ENDBRANCH   4  18
ENDBRANCH   1   4
BRANCH   1  21
ATOM     21  C   UNL     1       0.525  -2.294   5.698  0.00  0.00    +0.019 C 
BRANCH  21  22
ATOM     22  C   UNL     1      -0.470  -2.654   6.771  0.00  0.00    +0.197 C 
ATOM     23  O   UNL     1      -1.659  -2.608   6.536  0.00  0.00    -0.278 OA
ATOM     24  N   UNL     1      -0.038  -3.028   7.992  0.00  0.00    -0.310 N 
ATOM     25  H   UNL     1       0.912  -3.066   8.180  0.00  0.00    +0.149 HD
BRANCH  24  26
ATOM     26  C   UNL     1      -1.006  -3.378   9.035  0.00  0.00    +0.100 C 
ATOM     27  C   UNL     1      -1.468  -2.107   9.749  0.00  0.00    +0.033 C 
BRANCH  26  28
ATOM     28  C   UNL     1      -0.357  -4.306  10.030  0.00  0.00    -0.024 A 
ATOM     29  C   UNL     1       0.949  -4.088  10.427  0.00  0.00    +0.009 A 
ATOM     30  C   UNL     1       1.547  -4.937  11.339  0.00  0.00    +0.050 A 
ATOM     31  C   UNL     1       0.838  -6.010  11.858  0.00  0.00    +0.162 A 
ATOM     32  C   UNL     1      -0.476  -6.228  11.461  0.00  0.00    +0.162 A 
ATOM     33  C   UNL     1      -1.071  -5.369  10.549  0.00  0.00    +0.055 A 
ATOM     34  O   UNL     1      -1.192  -7.270  11.964  0.00  0.00    -0.485 OA
ATOM     35  C   UNL     1      -0.447  -8.319  12.593  0.00  0.00    +0.270 C 
ATOM     36  C   UNL     1       0.584  -7.679  13.532  0.00  0.00    +0.270 C 
ATOM     37  O   UNL     1       1.442  -6.840  12.752  0.00  0.00    -0.485 OA
ENDBRANCH  26  28
ENDBRANCH  24  26
ENDBRANCH  21  22
ENDBRANCH   1  21
TORSDOF 6
