REMARK  Name = ZINC00877154
REMARK  10 active torsions:
REMARK  status: ('A' for Active; 'I' for Inactive)
REMARK    1  A    between atoms: C_1  and  C_2
REMARK    2  A    between atoms: C_2  and  C_3
REMARK    3  A    between atoms: C_10  and  C_38
REMARK    4  A    between atoms: C_13  and  S_16
REMARK    5  A    between atoms: S_16  and  C_17
REMARK    6  A    between atoms: C_17  and  C_18
REMARK    7  A    between atoms: N_20  and  C_21
REMARK    8  A    between atoms: C_24  and  S_27
REMARK    9  A    between atoms: S_27  and  N_30
REMARK   10  A    between atoms: C_35  and  C_37
REMARK                            x       y       z     vdW  Elec       q    Type
REMARK                         _______ _______ _______ _____ _____    ______ ____
ROOT
ATOM      1  C   UNL     1       0.355   5.671  -0.348  0.00  0.00    +0.227 C 
ATOM      2  O   UNL     1       1.450   6.192  -0.295  0.00  0.00    -0.275 OA
ATOM      3  N   UNL     1      -0.755   6.434  -0.321  0.00  0.00    -0.285 N 
ATOM      4  H   UNL     1      -1.628   6.024  -0.433  0.00  0.00    +0.155 HD
ENDROOT
BRANCH   3   5
ATOM      5  C   UNL     1      -0.651   7.816  -0.131  0.00  0.00    +0.034 A 
ATOM      6  C   UNL     1      -1.624   8.495   0.590  0.00  0.00    +0.025 A 
ATOM      7  C   UNL     1      -1.515   9.859   0.780  0.00  0.00    +0.030 A 
ATOM      8  C   UNL     1      -0.444  10.550   0.243  0.00  0.00    +0.106 A 
ATOM      9  C   UNL     1       0.523   9.877  -0.481  0.00  0.00    +0.030 A 
ATOM     10  C   UNL     1       0.423   8.513  -0.670  0.00  0.00    +0.025 A 
BRANCH   8  11
ATOM     11  S   UNL     1      -0.313  12.291   0.481  0.00  0.00    +0.061 S 
ATOM     12  O   UNL     1      -1.055  12.597   1.653  0.00  0.00    -0.153 OA
ATOM     13  O   UNL     1       1.063  12.617   0.343  0.00  0.00    -0.153 OA
BRANCH  11  14
ATOM     14  N   UNL     1      -1.100  13.018  -0.781  0.00  0.00    -0.174 NA
ATOM     15  C   UNL     1      -2.491  13.468  -0.637  0.00  0.00    +0.110 C 
ATOM     16  C   UNL     1      -2.576  14.945  -1.033  0.00  0.00    +0.017 C 
ATOM     17  C   UNL     1      -2.000  15.126  -2.439  0.00  0.00    +0.003 C 
ATOM     18  C   UNL     1      -0.528  14.707  -2.447  0.00  0.00    +0.020 C 
ATOM     19  C   UNL     1      -0.419  13.232  -2.066  0.00  0.00    +0.077 C 
ATOM     20  C   UNL     1       1.056  12.847  -1.934  0.00  0.00    +0.026 C 
ENDBRANCH  11  14
ENDBRANCH   8  11
ENDBRANCH   3   5
BRANCH   1  21
ATOM     21  C   UNL     1       0.238   4.172  -0.444  0.00  0.00    +0.173 C 
BRANCH  21  22
ATOM     22  S   UNL     1       1.892   3.437  -0.459  0.00  0.00    -0.076 S 
BRANCH  22  33
ATOM     23  C   UNL     1       6.491   0.382  -0.559  0.00  0.00    -0.047 A 
ATOM     24  C   UNL     1       5.881   1.626  -0.493  0.00  0.00    +0.006 A 
ATOM     25  C   UNL     1       4.506   1.736  -0.514  0.00  0.00    +0.027 A 
ATOM     26  C   UNL     1       3.720   0.595  -0.601  0.00  0.00    +0.058 A 
ATOM     27  C   UNL     1       4.336  -0.668  -0.667  0.00  0.00    -0.000 A 
ATOM     28  C   UNL     1       5.730  -0.763  -0.645  0.00  0.00    +0.013 A 
ATOM     29  C   UNL     1       3.499  -1.869  -0.758  0.00  0.00    +0.017 A 
ATOM     30  C   UNL     1       2.154  -1.734  -0.776  0.00  0.00    -0.005 A 
ATOM     31  C   UNL     1       1.562  -0.452  -0.708  0.00  0.00    +0.165 A 
ATOM     32  N   UNL     1       2.339   0.682  -0.622  0.00  0.00    -0.270 N 
ATOM     33  C   UNL     1       1.468   1.731  -0.573  0.00  0.00    +0.197 A 
ATOM     34  N   UNL     1       0.253   1.231  -0.627  0.00  0.00    -0.122 NA
ATOM     35  N   UNL     1       0.303  -0.051  -0.707  0.00  0.00    -0.128 NA
ATOM     36  C   UNL     1       1.280  -2.959  -0.870  0.00  0.00    +0.047 C 
BRANCH  23  38
ATOM     37  C   UNL     1       8.532   0.338  -1.966  0.00  0.00    +0.009 C 
ATOM     38  C   UNL     1       7.994   0.282  -0.535  0.00  0.00    +0.032 C 
ENDBRANCH  23  38
ENDBRANCH  22  33
ENDBRANCH  21  22
ENDBRANCH   1  21
TORSDOF 7
