REMARK  Name = ZINC36005382
REMARK  16 active torsions:
REMARK  status: ('A' for Active; 'I' for Inactive)
REMARK    1  A    between atoms: C_1  and  C_2
REMARK    2  A    between atoms: C_2  and  O_3
REMARK    3  A    between atoms: O_3  and  C_4
REMARK    4  A    between atoms: C_4  and  C_6
REMARK    5  A    between atoms: C_7  and  C_25
REMARK    6  A    between atoms: N_8  and  C_24
REMARK    7  A    between atoms: C_12  and  C_14
REMARK    8  A    between atoms: C_17  and  C_20
REMARK    9  A    between atoms: C_20  and  C_21
REMARK   10  A    between atoms: C_20  and  C_22
REMARK   11  A    between atoms: C_20  and  C_23
REMARK   12  A    between atoms: C_25  and  N_26
REMARK   13  A    between atoms: N_34  and  C_35
REMARK   14  A    between atoms: C_35  and  C_36
REMARK   15  A    between atoms: C_35  and  C_37
REMARK   16  A    between atoms: C_35  and  C_38
REMARK                            x       y       z     vdW  Elec       q    Type
REMARK                         _______ _______ _______ _____ _____    ______ ____
ROOT
ATOM      1  C   UNL     1       1.562  -2.383   2.402  0.00  0.00    +0.080 C 
ATOM      2  C   UNL     1       1.524  -3.707   2.667  0.00  0.00    +0.041 C 
ATOM      3  N   UNL     1       2.095  -4.216   3.798  0.00  0.00    -0.260 N 
ATOM      4  C   UNL     1       2.723  -3.469   4.714  0.00  0.00    +0.307 C 
ATOM      5  O   UNL     1       3.201  -4.013   5.690  0.00  0.00    -0.252 OA
ATOM      6  N   UNL     1       2.842  -2.132   4.590  0.00  0.00    -0.288 N 
ATOM      7  C   UNL     1       2.264  -1.484   3.400  0.00  0.00    +0.144 C 
ATOM      8  C   UNL     1       2.016  -5.662   4.021  0.00  0.00    +0.139 C 
ATOM      9  H   UNL     1       3.301  -1.609   5.266  0.00  0.00    +0.151 HD
ENDROOT
BRANCH   7  10
ATOM     10  C   UNL     1       3.370  -0.761   2.675  0.00  0.00    -0.022 A 
ATOM     11  C   UNL     1       4.568  -1.404   2.425  0.00  0.00    +0.006 A 
ATOM     12  C   UNL     1       5.583  -0.741   1.760  0.00  0.00    +0.004 A 
ATOM     13  C   UNL     1       5.399   0.565   1.345  0.00  0.00    -0.042 A 
ATOM     14  C   UNL     1       4.200   1.207   1.594  0.00  0.00    +0.004 A 
ATOM     15  C   UNL     1       3.184   0.542   2.255  0.00  0.00    +0.006 A 
BRANCH  13  16
ATOM     16  C   UNL     1       6.505   1.288   0.621  0.00  0.00    -0.013 C 
ATOM     17  C   UNL     1       6.849   0.536  -0.666  0.00  0.00    +0.015 C 
ATOM     18  C   UNL     1       6.047   2.706   0.276  0.00  0.00    +0.015 C 
ATOM     19  C   UNL     1       7.742   1.356   1.519  0.00  0.00    +0.015 C 
ENDBRANCH  13  16
ENDBRANCH   7  10
BRANCH   1  20
ATOM     20  C   UNL     1       0.971  -1.854   1.231  0.00  0.00    +0.339 C 
ATOM     21  O   UNL     1       1.670  -1.533   0.289  0.00  0.00    -0.245 OA
BRANCH  20  22
ATOM     22  O   UNL     1      -0.369  -1.705   1.159  0.00  0.00    -0.462 OA
BRANCH  22  24
ATOM     23  C   UNL     1      -2.421  -1.071   0.051  0.00  0.00    +0.048 C 
ATOM     24  C   UNL     1      -0.897  -1.165  -0.053  0.00  0.00    +0.229 C 
ENDBRANCH  22  24
ENDBRANCH  20  22
ENDBRANCH   1  20
BRANCH   2  25
ATOM     25  C   UNL     1       0.839  -4.637   1.699  0.00  0.00    +0.136 C 
BRANCH  25  26
ATOM     26  N   UNL     1       1.830  -5.551   1.114  0.00  0.00    -0.294 NA
ATOM     27  C   UNL     1       2.796  -4.819   0.284  0.00  0.00    +0.104 C 
ATOM     28  C   UNL     1       3.911  -5.773  -0.157  0.00  0.00    +0.124 C 
ATOM     29  N   UNL     1       3.296  -6.943  -0.803  0.00  0.00    -0.283 N 
ATOM     30  C   UNL     1       2.222  -7.648  -0.087  0.00  0.00    +0.124 C 
ATOM     31  C   UNL     1       1.173  -6.620   0.351  0.00  0.00    +0.104 C 
ATOM     32  C   UNL     1       3.708  -7.359  -2.017  0.00  0.00    +0.303 C 
ATOM     33  O   UNL     1       4.658  -6.822  -2.554  0.00  0.00    -0.253 OA
ATOM     34  N   UNL     1       3.066  -8.369  -2.637  0.00  0.00    -0.294 N 
ATOM     35  H   UNL     1       2.351  -8.841  -2.182  0.00  0.00    +0.151 HD
BRANCH  34  36
ATOM     36  C   UNL     1       3.447  -8.754  -3.998  0.00  0.00    +0.028 C 
ATOM     37  C   UNL     1       4.915  -9.184  -4.014  0.00  0.00    +0.031 C 
ATOM     38  C   UNL     1       2.570  -9.917  -4.464  0.00  0.00    +0.031 C 
ATOM     39  C   UNL     1       3.255  -7.562  -4.938  0.00  0.00    +0.031 C 
ENDBRANCH  34  36
ENDBRANCH  25  26
ENDBRANCH   2  25
TORSDOF 8
