REMARK  Name = ZINC12745369
REMARK  9 active torsions:
REMARK  status: ('A' for Active; 'I' for Inactive)
REMARK    1  A    between atoms: C_1  and  C_2
REMARK    2  A    between atoms: C_15  and  C_17
REMARK    3  A    between atoms: C_17  and  N_57
REMARK    4  A    between atoms: C_18  and  N_57
REMARK    5  A    between atoms: C_19  and  C_20
REMARK    6  A    between atoms: C_19  and  N_57
REMARK    7  A    between atoms: C_23  and  C_26
REMARK    8  A    between atoms: C_26  and  C_27
REMARK    9  A    between atoms: C_26  and  C_28
REMARK                            x       y       z     vdW  Elec       q    Type
REMARK                         _______ _______ _______ _____ _____    ______ ____
ROOT
ATOM      1  C   UNL     1       1.579  -1.262   1.382  0.00  0.00    +0.029 C 
ATOM      2  C   UNL     1       1.272  -0.732  -0.020  0.00  0.00    +0.087 C 
ATOM      3  C   UNL     1       1.185  -1.905  -0.992  0.00  0.00    +0.118 C 
ATOM      4  C   UNL     1       0.513  -1.468  -2.267  0.00  0.00    +0.219 C 
ATOM      5  O   UNL     1       1.177  -1.277  -3.264  0.00  0.00    -0.275 OA
ATOM      6  N   UNL     1      -0.825  -1.287  -2.308  0.00  0.00    -0.284 N 
ATOM      7  C   UNL     1      -1.593  -1.410  -1.144  0.00  0.00    +0.055 A 
ATOM      8  C   UNL     1      -2.756  -2.162  -1.137  0.00  0.00    +0.025 A 
ATOM      9  C   UNL     1      -3.529  -2.224   0.008  0.00  0.00    +0.002 A 
ATOM     10  C   UNL     1      -3.144  -1.538   1.145  0.00  0.00    +0.002 A 
ATOM     11  C   UNL     1      -1.978  -0.794   1.150  0.00  0.00    +0.025 A 
ATOM     12  C   UNL     1      -1.195  -0.734   0.009  0.00  0.00    +0.058 A 
ATOM     13  N   UNL     1       0.002  -0.004   0.002  0.00  0.00    -0.268 N 
ATOM     14  C   UNL     1      -0.016   1.344   0.009  0.00  0.00    +0.204 C 
ATOM     15  O   UNL     1       1.026   1.964   0.003  0.00  0.00    -0.277 OA
ATOM     16  H   UNL     1      -1.256  -1.070  -3.149  0.00  0.00    +0.155 HD
ENDROOT
BRANCH  14  17
ATOM     17  C   UNL     1      -1.331   2.079   0.020  0.00  0.00    +0.019 C 
BRANCH  17  19
ATOM     18  C   UNL     1      -0.451   3.958  -1.228  0.00  0.00    -0.095 C 
ATOM     19  N   UNL     1      -1.064   3.533   0.048  0.00  0.00    +0.386 N 
ATOM     20  H   UNL     1      -0.414   3.738   0.816  0.00  0.00    -0.081 HD
BRANCH  19  21
ATOM     21  C   UNL     1      -2.323   4.273   0.274  0.00  0.00    -0.043 C 
BRANCH  21  22
ATOM     22  C   UNL     1      -1.997   5.724   0.518  0.00  0.00    -0.064 A 
ATOM     23  C   UNL     1      -1.750   6.171   1.803  0.00  0.00    +0.002 A 
ATOM     24  C   UNL     1      -1.446   7.501   2.026  0.00  0.00    +0.004 A 
ATOM     25  C   UNL     1      -1.398   8.386   0.965  0.00  0.00    -0.045 A 
ATOM     26  C   UNL     1      -1.650   7.940  -0.319  0.00  0.00    +0.004 A 
ATOM     27  C   UNL     1      -1.949   6.609  -0.542  0.00  0.00    +0.002 A 
BRANCH  25  28
ATOM     28  C   UNL     1      -1.073   9.837   1.209  0.00  0.00    +0.013 C 
ATOM     29  C   UNL     1      -2.116  10.443   2.150  0.00  0.00    +0.012 C 
ATOM     30  C   UNL     1       0.314   9.948   1.846  0.00  0.00    +0.012 C 
ENDBRANCH  25  28
ENDBRANCH  21  22
ENDBRANCH  19  21
ENDBRANCH  17  19
ENDBRANCH  14  17
TORSDOF 5
