REMARK  Name = ZINC04551006
REMARK  7 active torsions:
REMARK  status: ('A' for Active; 'I' for Inactive)
REMARK    1  A    between atoms: C_1  and  C_2
REMARK    2  A    between atoms: C_9  and  C_11
REMARK    3  A    between atoms: N_13  and  N_14
REMARK    4  A    between atoms: C_15  and  C_16
REMARK    5  A    between atoms: C_25  and  O_26
REMARK    6  A    between atoms: O_26  and  C_27
REMARK    7  A    between atoms: C_27  and  C_28
REMARK                            x       y       z     vdW  Elec       q    Type
REMARK                         _______ _______ _______ _____ _____    ______ ____
ROOT
ATOM      1  N   UNL     1      -0.001  -0.007  -0.094  0.00  0.00    -0.188 NA
ATOM      2  C   UNL     1      -0.021   1.290  -0.180  0.00  0.00    +0.142 C 
ENDROOT
BRANCH   2   3
ATOM      3  C   UNL     1      -1.304   2.007  -0.170  0.00  0.00    +0.044 A 
ATOM      4  C   UNL     1      -1.345   3.465  -0.265  0.00  0.00    -0.006 A 
ATOM      5  C   UNL     1      -0.173   4.224  -0.368  0.00  0.00    +0.009 A 
ATOM      6  C   UNL     1      -0.255   5.582  -0.455  0.00  0.00    +0.001 A 
ATOM      7  C   UNL     1      -1.490   6.226  -0.443  0.00  0.00    +0.001 A 
ATOM      8  C   UNL     1      -2.649   5.518  -0.344  0.00  0.00    +0.008 A 
ATOM      9  C   UNL     1      -2.603   4.117  -0.252  0.00  0.00    -0.017 A 
ATOM     10  C   UNL     1      -3.778   3.353  -0.148  0.00  0.00    +0.012 A 
ATOM     11  C   UNL     1      -3.722   1.998  -0.059  0.00  0.00    +0.047 A 
ATOM     12  C   UNL     1      -2.509   1.310  -0.075  0.00  0.00    +0.131 A 
BRANCH  12  13
ATOM     13  O   UNL     1      -2.500  -0.044   0.009  0.00  0.00    -0.479 OA
BRANCH  13  14
ATOM     14  C   UNL     1      -3.768  -0.697   0.104  0.00  0.00    +0.317 C 
BRANCH  14  15
ATOM     15  C   UNL     1      -3.565  -2.153   0.186  0.00  0.00    -0.065 C 
ATOM     16  C   UNL     1      -3.404  -3.314   0.251  0.00  0.00    +0.007 C 
ENDBRANCH  14  15
ENDBRANCH  13  14
ENDBRANCH  12  13
ENDBRANCH   2   3
BRANCH   1  19
ATOM     17  C   UNL     1       1.243  -2.036  -0.021  0.00  0.00    +0.236 C 
ATOM     18  O   UNL     1       0.203  -2.654   0.072  0.00  0.00    -0.274 OA
ATOM     19  N   UNL     1       1.222  -0.691  -0.110  0.00  0.00    -0.207 N 
ATOM     20  H   UNL     1       2.053  -0.197  -0.184  0.00  0.00    +0.177 HD
BRANCH  17  28
ATOM     21  C   UNL     1       3.641  -5.003   0.702  0.00  0.00    +0.012 C 
ATOM     22  C   UNL     1       2.821  -3.768   1.084  0.00  0.00    -0.017 C 
ATOM     23  C   UNL     1       1.753  -4.025   2.135  0.00  0.00    +0.008 C 
ATOM     24  C   UNL     1       1.224  -2.705   2.697  0.00  0.00    +0.001 C 
ATOM     25  C   UNL     1       2.410  -1.887   3.221  0.00  0.00    +0.000 C 
ATOM     26  C   UNL     1       3.176  -1.318   2.027  0.00  0.00    +0.005 C 
ATOM     27  C   UNL     1       3.570  -2.442   1.071  0.00  0.00    +0.008 C 
ATOM     28  C   UNL     1       2.558  -2.771  -0.037  0.00  0.00    +0.086 C 
ENDBRANCH  17  28
ENDBRANCH   1  19
TORSDOF 6
