REMARK  Name = ZINC36028085
REMARK  8 active torsions:
REMARK  status: ('A' for Active; 'I' for Inactive)
REMARK    1  A    between atoms: C_1  and  C_2
REMARK    2  A    between atoms: C_2  and  C_3
REMARK    3  A    between atoms: C_3  and  C_5
REMARK    4  A    between atoms: C_3  and  C_6
REMARK    5  A    between atoms: N_10  and  C_29
REMARK    6  A    between atoms: N_15  and  S_18
REMARK    7  A    between atoms: S_18  and  C_21
REMARK    8  A    between atoms: C_29  and  C_30
REMARK                            x       y       z     vdW  Elec       q    Type
REMARK                         _______ _______ _______ _____ _____    ______ ____
ROOT
ATOM      1  C   UNL     1       0.751  -2.172  -0.504  0.00  0.00    +0.022 C 
ATOM      2  C   UNL     1      -0.609  -2.814  -0.666  0.00  0.00    +0.201 C 
ATOM      3  O   UNL     1      -1.624  -2.478  -0.092  0.00  0.00    -0.277 OA
ATOM      4  N   UNL     1      -0.503  -3.822  -1.556  0.00  0.00    -0.306 N 
ATOM      5  C   UNL     1       0.882  -3.919  -2.023  0.00  0.00    +0.006 C 
ATOM      6  N   UNL     1       1.534  -2.637  -1.675  0.00  0.00    +0.401 N 
ATOM      7  C   UNL     1       0.917  -4.122  -3.537  0.00  0.00    +0.023 C 
ATOM      8  C   UNL     1       0.208  -5.434  -3.890  0.00  0.00    +0.109 C 
ATOM      9  N   UNL     1       0.815  -6.523  -3.112  0.00  0.00    -0.177 NA
ATOM     10  C   UNL     1       0.896  -6.388  -1.651  0.00  0.00    +0.109 C 
ATOM     11  C   UNL     1       1.599  -5.068  -1.317  0.00  0.00    +0.023 C 
ATOM     12  H   UNL     1       1.458  -1.980  -2.437  0.00  0.00    -0.082 HD
ATOM     13  H   UNL     1       2.500  -2.783  -1.423  0.00  0.00    -0.082 HD
ENDROOT
BRANCH   9  14
ATOM     14  S   UNL     1       1.395  -7.877  -3.867  0.00  0.00    +0.062 S 
ATOM     15  O   UNL     1       1.223  -8.955  -2.956  0.00  0.00    -0.153 OA
ATOM     16  O   UNL     1       0.834  -7.886  -5.172  0.00  0.00    -0.153 OA
BRANCH  14  17
ATOM     17  C   UNL     1       3.132  -7.659  -4.066  0.00  0.00    +0.125 A 
ATOM     18  C   UNL     1       4.014  -8.458  -3.362  0.00  0.00    +0.030 A 
ATOM     19  C   UNL     1       5.377  -8.287  -3.518  0.00  0.00    +0.003 A 
ATOM     20  C   UNL     1       5.859  -7.317  -4.377  0.00  0.00    +0.021 A 
ATOM     21  C   UNL     1       4.978  -6.517  -5.082  0.00  0.00    +0.061 A 
ATOM     22  C   UNL     1       3.613  -6.692  -4.930  0.00  0.00    +0.086 A 
ATOM     23 CL   UNL     1       2.505  -5.694  -5.820  0.00  0.00    -0.080 Cl
ATOM     24 CL   UNL     1       5.583  -5.299  -6.160  0.00  0.00    -0.082 Cl
ENDBRANCH  14  17
ENDBRANCH   9  14
BRANCH   1  25
ATOM     25  C   UNL     1       0.626  -0.647  -0.518  0.00  0.00    -0.020 C 
ATOM     26  C   UNL     1      -0.160  -0.211  -1.756  0.00  0.00    +0.006 C 
BRANCH  25  28
ATOM     27  C   UNL     1      -0.125   1.345   0.789  0.00  0.00    +0.004 C 
ATOM     28  C   UNL     1      -0.109  -0.184   0.741  0.00  0.00    -0.001 C 
ENDBRANCH  25  28
ENDBRANCH   1  25
BRANCH   4  29
ATOM     29  C   UNL     1      -1.604  -4.686  -1.990  0.00  0.00    +0.180 C 
BRANCH  29  30
ATOM     30  C   UNL     1      -2.391  -3.994  -3.072  0.00  0.00    +0.122 A 
ATOM     31  C   UNL     1      -2.084  -3.980  -4.382  0.00  0.00    +0.046 A 
ATOM     32  C   UNL     1      -3.084  -3.219  -5.029  0.00  0.00    +0.041 A 
ATOM     33  C   UNL     1      -3.943  -2.812  -4.076  0.00  0.00    +0.195 A 
ATOM     34  O   UNL     1      -3.521  -3.290  -2.893  0.00  0.00    -0.466 OA
ENDBRANCH  29  30
ENDBRANCH   4  29
TORSDOF 6
