REMARK  Name = ZINC17371158
REMARK  12 active torsions:
REMARK  status: ('A' for Active; 'I' for Inactive)
REMARK    1  A    between atoms: C_1  and  C_2
REMARK    2  A    between atoms: C_2  and  C_3
REMARK    3  A    between atoms: C_6  and  C_9
REMARK    4  A    between atoms: C_9  and  C_11
REMARK    5  A    between atoms: C_9  and  N_14
REMARK    6  A    between atoms: C_11  and  C_12
REMARK    7  A    between atoms: C_11  and  C_13
REMARK    8  A    between atoms: C_15  and  C_17
REMARK    9  A    between atoms: C_20  and  O_31
REMARK   10  A    between atoms: C_21  and  S_23
REMARK   11  A    between atoms: S_23  and  N_26
REMARK   12  A    between atoms: O_31  and  C_32
REMARK                            x       y       z     vdW  Elec       q    Type
REMARK                         _______ _______ _______ _____ _____    ______ ____
ROOT
ATOM      1  N   UNL     1      -1.744   3.565   5.668  0.00  0.00    -0.304 N 
ATOM      2  C   UNL     1      -1.992   3.615   6.992  0.00  0.00    +0.245 C 
ATOM      3  O   UNL     1      -3.025   3.150   7.435  0.00  0.00    -0.270 OA
ATOM      4  H   UNL     1      -0.920   3.937   5.315  0.00  0.00    +0.150 HD
ENDROOT
BRANCH   2   5
ATOM      5  C   UNL     1      -1.012   4.236   7.904  0.00  0.00    +0.039 A 
ATOM      6  C   UNL     1       0.178   4.767   7.398  0.00  0.00    +0.017 A 
ATOM      7  C   UNL     1       1.087   5.350   8.252  0.00  0.00    +0.048 A 
ATOM      8  C   UNL     1       0.829   5.401   9.617  0.00  0.00    +0.146 A 
ATOM      9  C   UNL     1      -0.350   4.869  10.124  0.00  0.00    +0.148 A 
ATOM     10  C   UNL     1      -1.268   4.290   9.277  0.00  0.00    +0.045 A 
BRANCH   9  11
ATOM     11  S   UNL     1      -0.672   4.937  11.856  0.00  0.00    +0.064 S 
ATOM     12  O   UNL     1      -0.425   6.276  12.262  0.00  0.00    -0.153 OA
ATOM     13  O   UNL     1      -1.925   4.298  12.061  0.00  0.00    -0.153 OA
BRANCH  11  14
ATOM     14  N   UNL     1       0.468   3.997  12.603  0.00  0.00    -0.176 NA
ATOM     15  C   UNL     1       0.335   2.562  12.899  0.00  0.00    +0.109 C 
ATOM     16  C   UNL     1       1.627   2.122  13.618  0.00  0.00    +0.018 C 
ATOM     17  C   UNL     1       2.171   3.454  14.199  0.00  0.00    +0.018 C 
ATOM     18  C   UNL     1       1.780   4.460  13.087  0.00  0.00    +0.109 C 
ENDBRANCH  11  14
ENDBRANCH   9  11
BRANCH   8  19
ATOM     19  O   UNL     1       1.730   5.972  10.455  0.00  0.00    -0.493 OA
ATOM     20  C   UNL     1       2.921   6.499   9.867  0.00  0.00    +0.277 C 
ENDBRANCH   8  19
ENDBRANCH   2   5
BRANCH   1  21
ATOM     21  C   UNL     1      -2.717   2.949   4.763  0.00  0.00    +0.106 C 
BRANCH  21  25
ATOM     22  C   UNL     1      -0.718   1.572   1.248  0.00  0.00    -0.048 A 
ATOM     23  C   UNL     1      -0.360   2.779   1.819  0.00  0.00    +0.004 A 
ATOM     24  C   UNL     1      -1.010   3.227   2.953  0.00  0.00    +0.006 A 
ATOM     25  C   UNL     1      -2.012   2.463   3.523  0.00  0.00    -0.027 A 
ATOM     26  C   UNL     1      -2.366   1.254   2.955  0.00  0.00    +0.006 A 
ATOM     27  C   UNL     1      -1.719   0.808   1.818  0.00  0.00    +0.004 A 
BRANCH  22  29
ATOM     28  C   UNL     1      -0.753   1.593  -1.232  0.00  0.00    +0.009 C 
ATOM     29  C   UNL     1      -0.013   1.086   0.008  0.00  0.00    +0.032 C 
ENDBRANCH  22  29
ENDBRANCH  21  25
BRANCH  21  30
ATOM     30  C   UNL     1      -3.777   3.981   4.375  0.00  0.00    +0.008 C 
ATOM     31  C   UNL     1      -4.794   3.338   3.430  0.00  0.00    +0.009 C 
ATOM     32  C   UNL     1      -4.493   4.474   5.635  0.00  0.00    +0.009 C 
ENDBRANCH  21  30
ENDBRANCH   1  21
TORSDOF 8
