REMARK  Name = ZINC39364144
REMARK  9 active torsions:
REMARK  status: ('A' for Active; 'I' for Inactive)
REMARK    1  A    between atoms: C_1  and  C_2
REMARK    2  A    between atoms: C_4  and  C_8
REMARK    3  A    between atoms: C_8  and  N_9
REMARK    4  A    between atoms: N_9  and  C_10
REMARK    5  A    between atoms: C_11  and  C_13
REMARK    6  A    between atoms: C_13  and  C_14
REMARK    7  A    between atoms: N_21  and  C_22
REMARK    8  A    between atoms: C_22  and  C_23
REMARK    9  A    between atoms: C_27  and  C_29
REMARK                            x       y       z     vdW  Elec       q    Type
REMARK                         _______ _______ _______ _____ _____    ______ ____
ROOT
ATOM      1  C   UNL     1      -1.431   0.453  -4.928  0.00  0.00    +0.028 C 
ATOM      2  C   UNL     1      -0.889   0.719  -6.303  0.00  0.00    +0.200 C 
ATOM      3  O   UNL     1      -0.337  -0.185  -6.895  0.00  0.00    -0.278 OA
ATOM      4  N   UNL     1      -0.990   1.911  -6.902  0.00  0.00    -0.318 N 
ATOM      5  C   UNL     1      -1.613   3.064  -6.258  0.00  0.00    +0.085 C 
ATOM      6  C   UNL     1      -2.470   2.602  -5.078  0.00  0.00    -0.058 C 
ATOM      7  N   UNL     1      -1.659   1.721  -4.224  0.00  0.00    +0.391 N 
ATOM      8  H   UNL     1      -0.636   2.013  -7.799  0.00  0.00    +0.149 HD
ATOM      9  H   UNL     1      -0.773   2.162  -4.026  0.00  0.00    -0.080 HD
ENDROOT
BRANCH   1  10
ATOM     10  C   UNL     1      -0.427  -0.391  -4.141  0.00  0.00    +0.090 C 
BRANCH  10  13
ATOM     11  N   UNL     1       1.913  -0.183  -3.365  0.00  0.00    -0.301 N 
ATOM     12  C   UNL     1       1.680  -1.339  -2.496  0.00  0.00    +0.132 C 
ATOM     13  C   UNL     1       0.907   0.310  -4.115  0.00  0.00    +0.214 C 
ATOM     14  O   UNL     1       1.075   1.317  -4.768  0.00  0.00    -0.276 OA
BRANCH  11  15
ATOM     15  C   UNL     1       3.239   0.437  -3.420  0.00  0.00    +0.158 C 
BRANCH  15  19
ATOM     16  C   UNL     1       2.633  -1.695  -7.535  0.00  0.00    +0.067 C 
ATOM     17  C   UNL     1       3.248  -1.362  -6.200  0.00  0.00    +0.053 C 
ATOM     18  N   UNL     1       3.522  -0.171  -5.786  0.00  0.00    -0.259 NA
ATOM     19  C   UNL     1       4.104  -0.300  -4.444  0.00  0.00    +0.237 C 
ATOM     20  N   UNL     1       4.125  -1.739  -4.149  0.00  0.00    -0.262 NA
ATOM     21  C   UNL     1       3.620  -2.345  -5.171  0.00  0.00    +0.130 C 
ENDBRANCH  15  19
ENDBRANCH  11  15
ENDBRANCH  10  13
ENDBRANCH   1  10
BRANCH   7  22
ATOM     22  C   UNL     1      -2.375   1.464  -2.967  0.00  0.00    -0.042 C 
BRANCH  22  23
ATOM     23  C   UNL     1      -2.464   2.740  -2.170  0.00  0.00    -0.063 A 
ATOM     24  C   UNL     1      -1.408   3.128  -1.365  0.00  0.00    +0.002 A 
ATOM     25  C   UNL     1      -1.490   4.298  -0.634  0.00  0.00    +0.001 A 
ATOM     26  C   UNL     1      -2.627   5.081  -0.708  0.00  0.00    +0.012 A 
ATOM     27  C   UNL     1      -3.682   4.694  -1.513  0.00  0.00    +0.055 A 
ATOM     28  C   UNL     1      -3.598   3.526  -2.247  0.00  0.00    +0.014 A 
BRANCH  27  29
ATOM     29  C   UNL     1      -4.921   5.547  -1.593  0.00  0.00    +0.417 C 
ATOM     30  F   UNL     1      -4.769   6.669  -0.771  0.00  0.00    -0.166 F 
ATOM     31  F   UNL     1      -5.118   5.961  -2.915  0.00  0.00    -0.166 F 
ATOM     32  F   UNL     1      -6.027   4.804  -1.167  0.00  0.00    -0.166 F 
ENDBRANCH  27  29
ENDBRANCH  22  23
ENDBRANCH   7  22
TORSDOF 7
