REMARK  Name = ZINC51092891
REMARK  6 active torsions:
REMARK  status: ('A' for Active; 'I' for Inactive)
REMARK    1  A    between atoms: C_1  and  C_2
REMARK    2  A    between atoms: C_2  and  C_4
REMARK    3  A    between atoms: C_2  and  N_12
REMARK    4  A    between atoms: C_13  and  C_15
REMARK    5  A    between atoms: C_19  and  N_21
REMARK    6  A    between atoms: N_21  and  N_22
REMARK                            x       y       z     vdW  Elec       q    Type
REMARK                         _______ _______ _______ _____ _____    ______ ____
ROOT
ATOM      1  N   UNL     1       0.711  -0.489   1.189  0.00  0.00    -0.303 N 
ATOM      2  C   UNL     1       2.054  -0.600   1.174  0.00  0.00    +0.263 C 
ATOM      3  O   UNL     1       2.677  -0.297   0.175  0.00  0.00    -0.269 OA
ATOM      4  H   UNL     1       0.213  -0.731   1.986  0.00  0.00    +0.150 HD
ENDROOT
BRANCH   2   5
ATOM      5  C   UNL     1       2.770  -1.091   2.374  0.00  0.00    +0.127 A 
ATOM      6  C   UNL     1       4.157  -1.197   2.353  0.00  0.00    +0.033 A 
ATOM      7  C   UNL     1       4.819  -1.657   3.482  0.00  0.00    +0.006 A 
ATOM      8  C   UNL     1       4.071  -1.997   4.595  0.00  0.00    +0.045 A 
ATOM      9  C   UNL     1       2.683  -1.867   4.550  0.00  0.00    +0.133 A 
ATOM     10  N   UNL     1       2.083  -1.420   3.462  0.00  0.00    -0.226 NA
BRANCH   9  11
ATOM     11  N   UNL     1       1.925  -2.206   5.664  0.00  0.00    -0.268 N 
ATOM     12  H   UNL     1       2.361  -2.530   6.467  0.00  0.00    +0.167 HD
BRANCH  11  13
ATOM     13  N   UNL     1       0.565  -2.081   5.628  0.00  0.00    -0.255 NA
ATOM     14  H   UNL     1       0.174  -2.606   4.859  0.00  0.00    +0.140 HD
ATOM     15  H   UNL     1       0.152  -2.363   6.504  0.00  0.00    +0.140 HD
ENDBRANCH  11  13
ENDBRANCH   9  11
ENDBRANCH   2   5
BRANCH   1  17
ATOM     16  C   UNL     1      -0.019   1.526   0.010  0.00  0.00    +0.033 C 
ATOM     17  C   UNL     1       0.002  -0.004   0.002  0.00  0.00    +0.102 C 
BRANCH  17  18
ATOM     18  C   UNL     1      -1.412  -0.526   0.013  0.00  0.00    -0.009 A 
ATOM     19  C   UNL     1      -2.014  -0.864   1.210  0.00  0.00    +0.008 A 
ATOM     20  C   UNL     1      -3.311  -1.342   1.221  0.00  0.00    +0.020 A 
ATOM     21  C   UNL     1      -4.007  -1.483   0.033  0.00  0.00    +0.042 A 
ATOM     22  C   UNL     1      -3.404  -1.144  -1.165  0.00  0.00    +0.040 A 
ATOM     23  C   UNL     1      -2.108  -0.661  -1.175  0.00  0.00    +0.047 A 
ATOM     24 CL   UNL     1      -1.353  -0.230  -2.678  0.00  0.00    -0.083 Cl
ATOM     25 CL   UNL     1      -5.635  -2.084   0.046  0.00  0.00    -0.083 Cl
ENDBRANCH  17  18
ENDBRANCH   1  17
TORSDOF 5
