REMARK  Name = ZINC59619537
REMARK  2 active torsions:
REMARK  status: ('A' for Active; 'I' for Inactive)
REMARK    1  A    between atoms: C_12  and  C_14
REMARK    2  A    between atoms: N_24  and  C_27
REMARK                            x       y       z     vdW  Elec       q    Type
REMARK                         _______ _______ _______ _____ _____    ______ ____
ROOT
ATOM      1  C   UNL     1       0.256   1.341  -0.357  0.00  0.00    +0.033 C 
ATOM      2  C   UNL     1       0.190   0.005  -0.246  0.00  0.00    +0.031 C 
ATOM      3  C   UNL     1      -1.106  -0.688  -0.136  0.00  0.00    +0.090 C 
ATOM      4  C   UNL     1      -1.117  -2.001   0.182  0.00  0.00    +0.249 C 
ATOM      5  O   UNL     1      -2.296  -2.651   0.321  0.00  0.00    -0.270 OA
ATOM      6  N   UNL     1       0.069  -2.682   0.366  0.00  0.00    -0.219 N 
ATOM      7  C   UNL     1       1.271  -2.025   0.340  0.00  0.00    +0.198 C 
ATOM      8  N   UNL     1       1.353  -0.783  -0.238  0.00  0.00    -0.287 N 
ATOM      9  N   UNL     1       2.328  -2.573   0.903  0.00  0.00    -0.186 NA
ATOM     10  C   UNL     1       2.234  -3.755   1.537  0.00  0.00    +0.196 C 
ATOM     11  N   UNL     1       1.175  -4.511   1.437  0.00  0.00    -0.338 N 
ATOM     12  C   UNL     1       0.065  -4.138   0.556  0.00  0.00    +0.183 C 
ATOM     13  N   UNL     1       3.289  -4.181   2.318  0.00  0.00    -0.298 N 
ATOM     14  C   UNL     1       3.644  -5.606   2.382  0.00  0.00    +0.127 C 
ATOM     15  C   UNL     1       5.122  -5.761   2.002  0.00  0.00    +0.124 C 
ATOM     16  N   UNL     1       5.911  -4.798   2.783  0.00  0.00    -0.327 N 
ATOM     17  C   UNL     1       5.556  -3.374   2.719  0.00  0.00    +0.124 C 
ATOM     18  C   UNL     1       4.082  -3.218   3.095  0.00  0.00    +0.127 C 
ATOM     19  H   UNL     1       1.122  -5.331   1.952  0.00  0.00    +0.164 HD
ATOM     20  H   UNL     1       2.182  -0.460  -0.624  0.00  0.00    +0.155 HD
ENDROOT
BRANCH  16  21
ATOM     21  C   UNL     1       6.979  -5.230   3.573  0.00  0.00    +0.031 A 
ATOM     22  C   UNL     1       7.385  -6.558   3.529  0.00  0.00    +0.023 A 
ATOM     23  C   UNL     1       8.442  -6.982   4.311  0.00  0.00    +0.003 A 
ATOM     24  C   UNL     1       9.096  -6.087   5.137  0.00  0.00    +0.020 A 
ATOM     25  C   UNL     1       8.694  -4.763   5.184  0.00  0.00    +0.043 A 
ATOM     26  C   UNL     1       7.641  -4.331   4.399  0.00  0.00    +0.043 A 
ATOM     27 CL   UNL     1       9.518  -3.643   6.223  0.00  0.00    -0.083 Cl
ENDBRANCH  16  21
BRANCH  12  28
ATOM     28  C   UNL     1       0.231  -4.831  -0.797  0.00  0.00    +0.034 C 
ATOM     29  C   UNL     1       0.216  -6.352  -0.603  0.00  0.00    +0.011 C 
ATOM     30  C   UNL     1       0.561  -7.014  -1.939  0.00  0.00    +0.027 C 
ATOM     31  C   UNL     1      -0.283  -6.435  -3.036  0.00  0.00    -0.031 C 
ATOM     32  C   UNL     1      -0.929  -5.317  -2.941  0.00  0.00    -0.031 C 
ATOM     33  C   UNL     1      -0.929  -4.445  -1.719  0.00  0.00    +0.034 C 
ENDBRANCH  12  28
TORSDOF 2
