REMARK  Name = ZINC63426822
REMARK  12 active torsions:
REMARK  status: ('A' for Active; 'I' for Inactive)
REMARK    1  A    between atoms: C_1  and  C_2
REMARK    2  A    between atoms: C_2  and  C_3
REMARK    3  A    between atoms: C_2  and  C_4
REMARK    4  A    between atoms: C_2  and  O_5
REMARK    5  A    between atoms: O_5  and  C_6
REMARK    6  A    between atoms: N_8  and  C_9
REMARK    7  A    between atoms: C_9  and  C_11
REMARK    8  A    between atoms: C_9  and  C_21
REMARK    9  A    between atoms: C_11  and  C_12
REMARK   10  A    between atoms: C_25  and  S_28
REMARK   11  A    between atoms: S_28  and  C_29
REMARK   12  A    between atoms: C_29  and  C_30
REMARK                            x       y       z     vdW  Elec       q    Type
REMARK                         _______ _______ _______ _____ _____    ______ ____
ROOT
ATOM      1  C   UNL     1       4.002   0.022  -3.177  0.00  0.00    +0.133 C 
ENDROOT
BRANCH   1   2
ATOM      2  C   UNL     1       4.953  -0.554  -2.127  0.00  0.00    +0.280 C 
ATOM      3  N   UNL     1       6.263   0.104  -2.211  0.00  0.00    -0.155 NA
ATOM      4  N   UNL     1       6.670   0.387  -1.076  0.00  0.00    -0.146 NA
ATOM      5  C   UNL     1       5.691  -0.040  -0.068  0.00  0.00    +0.319 C 
ATOM      6  O   UNL     1       4.467  -0.267  -0.800  0.00  0.00    -0.316 OA
BRANCH   5   7
ATOM      7  S   UNL     1       5.455   1.263   1.172  0.00  0.00    -0.100 S 
BRANCH   7   8
ATOM      8  C   UNL     1       4.759   2.646   0.228  0.00  0.00    +0.113 C 
BRANCH   8   9
ATOM      9  C   UNL     1       4.631   3.851   1.124  0.00  0.00    +0.016 A 
ATOM     10  C   UNL     1       3.509   4.006   1.921  0.00  0.00    +0.129 A 
ATOM     11  C   UNL     1       3.393   5.114   2.743  0.00  0.00    +0.039 A 
ATOM     12  C   UNL     1       4.396   6.064   2.768  0.00  0.00    +0.004 A 
ATOM     13  C   UNL     1       5.515   5.910   1.972  0.00  0.00    +0.020 A 
ATOM     14  C   UNL     1       5.636   4.801   1.154  0.00  0.00    +0.048 A 
ATOM     15 CL   UNL     1       7.045   4.605   0.160  0.00  0.00    -0.083 Cl
ATOM     16  F   UNL     1       2.529   3.076   1.896  0.00  0.00    -0.205 F 
ENDBRANCH   8   9
ENDBRANCH   7   8
ENDBRANCH   5   7
ENDBRANCH   1   2
BRANCH   1  19
ATOM     17  C   UNL     1       2.424  -1.798  -3.544  0.00  0.00    +0.401 C 
ATOM     18  O   UNL     1       3.265  -2.353  -4.223  0.00  0.00    -0.226 OA
ATOM     19  N   UNL     1       2.676  -0.582  -3.020  0.00  0.00    -0.274 N 
ATOM     20  H   UNL     1       1.981  -0.107  -2.539  0.00  0.00    +0.152 HD
BRANCH  17  21
ATOM     21  O   UNL     1       1.240  -2.396  -3.316  0.00  0.00    -0.445 OA
BRANCH  21  23
ATOM     22  C   UNL     1       2.146  -4.636  -3.311  0.00  0.00    +0.055 C 
ATOM     23  C   UNL     1       1.060  -3.707  -3.856  0.00  0.00    +0.107 C 
ATOM     24  C   UNL     1       1.159  -3.647  -5.382  0.00  0.00    +0.055 C 
ATOM     25  C   UNL     1      -0.316  -4.240  -3.455  0.00  0.00    +0.055 C 
ENDBRANCH  21  23
ENDBRANCH  17  21
ENDBRANCH   1  19
BRANCH   1  26
ATOM     26  C   UNL     1       3.896   1.538  -2.993  0.00  0.00    +0.060 C 
BRANCH  26  27
ATOM     27  C   UNL     1       3.058   2.122  -4.101  0.00  0.00    -0.040 C 
ATOM     28  C   UNL     1       1.734   2.393  -4.061  0.00  0.00    -0.001 A 
ATOM     29  C   UNL     1       0.716   2.232  -3.016  0.00  0.00    +0.010 A 
ATOM     30  C   UNL     1      -0.558   2.602  -3.278  0.00  0.00    +0.001 A 
ATOM     31  C   UNL     1      -0.931   3.134  -4.520  0.00  0.00    +0.002 A 
ATOM     32  C   UNL     1      -0.053   3.312  -5.529  0.00  0.00    +0.026 A 
ATOM     33  C   UNL     1       1.315   2.958  -5.364  0.00  0.00    +0.043 A 
ATOM     34  N   UNL     1       2.340   3.033  -6.177  0.00  0.00    -0.380 N 
ATOM     35  C   UNL     1       3.528   2.529  -5.479  0.00  0.00    +0.144 C 
ATOM     36  H   UNL     1       2.318   3.369  -7.087  0.00  0.00    +0.160 HD
ENDBRANCH  26  27
ENDBRANCH   1  26
TORSDOF 9
