REMARK  Name = ZINC64348611
REMARK  6 active torsions:
REMARK  status: ('A' for Active; 'I' for Inactive)
REMARK    1  A    between atoms: C_8  and  C_12
REMARK    2  A    between atoms: N_14  and  C_15
REMARK    3  A    between atoms: C_15  and  C_17
REMARK    4  A    between atoms: C_15  and  C_27
REMARK    5  A    between atoms: C_17  and  C_18
REMARK    6  A    between atoms: N_29  and  C_30
REMARK                            x       y       z     vdW  Elec       q    Type
REMARK                         _______ _______ _______ _____ _____    ______ ____
ROOT
ATOM      1  C   UNL     1       2.049  -6.450  -0.865  0.00  0.00    +0.163 C 
ENDROOT
BRANCH   1   4
ATOM      2  C   UNL     1       3.014  -4.245  -0.486  0.00  0.00    +0.231 C 
ATOM      3  O   UNL     1       3.649  -4.714   0.435  0.00  0.00    -0.274 OA
ATOM      4  N   UNL     1       2.183  -5.030  -1.200  0.00  0.00    -0.302 N 
ATOM      5  H   UNL     1       1.675  -4.655  -1.936  0.00  0.00    +0.150 HD
BRANCH   2  13
ATOM      6  C   UNL     1       1.333   1.706  -0.338  0.00  0.00    +0.000 A 
ATOM      7  C   UNL     1       2.596   2.212  -0.585  0.00  0.00    +0.000 A 
ATOM      8  C   UNL     1       3.665   1.351  -0.729  0.00  0.00    +0.005 A 
ATOM      9  C   UNL     1       3.481  -0.020  -0.626  0.00  0.00    -0.030 A 
ATOM     10  C   UNL     1       2.223  -0.524  -0.376  0.00  0.00    -0.041 A 
ATOM     11  C   UNL     1       1.148   0.342  -0.234  0.00  0.00    +0.004 A 
ATOM     12  C   UNL     1       1.975  -2.005  -0.244  0.00  0.00    +0.063 C 
ATOM     13  C   UNL     1       3.152  -2.785  -0.831  0.00  0.00    +0.145 C 
ATOM     14  N   UNL     1       4.398  -2.253  -0.256  0.00  0.00    -0.301 NA
ATOM     15  C   UNL     1       4.678  -0.919  -0.796  0.00  0.00    +0.117 C 
ATOM     16  H   UNL     1       4.352  -2.233   0.752  0.00  0.00    +0.123 HD
ENDBRANCH   2  13
ENDBRANCH   1   4
BRANCH   1  17
ATOM     17  C   UNL     1       0.684  -6.937  -1.279  0.00  0.00    +0.238 C 
ATOM     18  O   UNL     1      -0.099  -6.173  -1.803  0.00  0.00    -0.273 OA
ATOM     19  N   UNL     1       0.333  -8.221  -1.067  0.00  0.00    -0.284 N 
ATOM     20  H   UNL     1       0.983  -8.849  -0.716  0.00  0.00    +0.155 HD
BRANCH  19  21
ATOM     21  C   UNL     1      -0.970  -8.648  -1.355  0.00  0.00    +0.037 A 
ATOM     22  C   UNL     1      -1.193  -9.942  -1.805  0.00  0.00    +0.027 A 
ATOM     23  C   UNL     1      -2.477 -10.363  -2.090  0.00  0.00    +0.051 A 
ATOM     24  C   UNL     1      -3.547  -9.496  -1.927  0.00  0.00    +0.162 A 
ATOM     25  C   UNL     1      -3.327  -8.201  -1.474  0.00  0.00    +0.164 A 
ATOM     26  C   UNL     1      -2.038  -7.779  -1.185  0.00  0.00    +0.072 A 
ATOM     27  O   UNL     1      -4.365  -7.338  -1.300  0.00  0.00    -0.485 OA
ATOM     28  C   UNL     1      -5.598  -7.674  -1.947  0.00  0.00    +0.270 C 
ATOM     29  C   UNL     1      -5.889  -9.158  -1.684  0.00  0.00    +0.270 C 
ATOM     30  O   UNL     1      -4.806  -9.928  -2.216  0.00  0.00    -0.485 OA
ENDBRANCH  19  21
ENDBRANCH   1  17
BRANCH   1  31
ATOM     31  C   UNL     1       3.122  -7.253  -1.603  0.00  0.00    +0.065 C 
BRANCH  31  32
ATOM     32  C   UNL     1       2.981  -7.033  -3.087  0.00  0.00    -0.039 C 
ATOM     33  C   UNL     1       3.656  -6.138  -3.844  0.00  0.00    -0.001 A 
ATOM     34  C   UNL     1       4.682  -5.138  -3.525  0.00  0.00    +0.010 A 
ATOM     35  C   UNL     1       5.180  -4.368  -4.519  0.00  0.00    +0.001 A 
ATOM     36  C   UNL     1       4.742  -4.501  -5.844  0.00  0.00    +0.002 A 
ATOM     37  C   UNL     1       3.802  -5.396  -6.215  0.00  0.00    +0.026 A 
ATOM     38  C   UNL     1       3.210  -6.258  -5.251  0.00  0.00    +0.043 A 
ATOM     39  N   UNL     1       2.296  -7.192  -5.359  0.00  0.00    -0.380 N 
ATOM     40  C   UNL     1       2.062  -7.774  -4.033  0.00  0.00    +0.144 C 
ATOM     41  H   UNL     1       1.851  -7.456  -6.180  0.00  0.00    +0.160 HD
ENDBRANCH  31  32
ENDBRANCH   1  31
TORSDOF 6
