REMARK  Name = ZINC41021257
REMARK  15 active torsions:
REMARK  status: ('A' for Active; 'I' for Inactive)
REMARK    1  A    between atoms: C_1  and  C_2
REMARK    2  A    between atoms: C_2  and  C_3
REMARK    3  A    between atoms: C_3  and  C_4
REMARK    4  A    between atoms: C_4  and  S_5
REMARK    5  A    between atoms: S_5  and  C_6
REMARK    6  A    between atoms: C_11  and  C_28
REMARK    7  A    between atoms: C_13  and  C_17
REMARK    8  A    between atoms: C_14  and  C_16
REMARK    9  A    between atoms: N_19  and  C_20
REMARK   10  A    between atoms: C_24  and  C_27
REMARK   11  A    between atoms: C_25  and  C_26
REMARK   12  A    between atoms: C_30  and  O_36
REMARK   13  A    between atoms: C_33  and  O_34
REMARK   14  A    between atoms: O_34  and  C_35
REMARK   15  A    between atoms: O_36  and  C_37
REMARK                            x       y       z     vdW  Elec       q    Type
REMARK                         _______ _______ _______ _____ _____    ______ ____
ROOT
ATOM      1  C   UNL     1       0.479  -4.588  -1.724  0.00  0.00    +0.210 A 
ATOM      2  N   UNL     1       0.415  -5.338  -0.614  0.00  0.00    -0.187 NA
ATOM      3  C   UNL     1       0.622  -6.590  -0.922  0.00  0.00    +0.219 A 
ATOM      4  N   UNL     1       0.831  -6.666  -2.259  0.00  0.00    -0.220 N 
ATOM      5  N   UNL     1       0.726  -5.367  -2.755  0.00  0.00    -0.141 NA
ATOM      6  C   UNL     1       1.107  -7.915  -2.964  0.00  0.00    +0.181 C 
ATOM      7  C   UNL     1       0.826  -9.079  -2.052  0.00  0.00    +0.060 C 
ATOM      8  C   UNL     1       0.622  -8.942  -0.733  0.00  0.00    +0.018 C 
ATOM      9  N   UNL     1       0.644  -7.717  -0.112  0.00  0.00    -0.287 N 
ATOM     10  C   UNL     1       0.359 -10.174   0.095  0.00  0.00    +0.061 C 
ATOM     11  H   UNL     1       0.673  -7.643   0.854  0.00  0.00    +0.155 HD
ENDROOT
BRANCH   6  12
ATOM     12  C   UNL     1       2.553  -7.945  -3.386  0.00  0.00    +0.027 A 
ATOM     13  C   UNL     1       3.550  -7.764  -2.447  0.00  0.00    +0.055 A 
ATOM     14  C   UNL     1       4.881  -7.793  -2.834  0.00  0.00    +0.121 A 
ATOM     15  C   UNL     1       5.212  -8.002  -4.165  0.00  0.00    +0.049 A 
ATOM     16  C   UNL     1       4.215  -8.183  -5.104  0.00  0.00    +0.049 A 
ATOM     17  C   UNL     1       2.884  -8.160  -4.715  0.00  0.00    +0.126 A 
BRANCH  17  18
ATOM     18  O   UNL     1       1.903  -8.344  -5.639  0.00  0.00    -0.495 OA
ATOM     19  C   UNL     1       2.316  -8.646  -6.973  0.00  0.00    +0.277 C 
ENDBRANCH  17  18
BRANCH  14  20
ATOM     20  O   UNL     1       5.863  -7.614  -1.910  0.00  0.00    -0.495 OA
ATOM     21  C   UNL     1       7.212  -7.655  -2.380  0.00  0.00    +0.277 C 
ENDBRANCH  14  20
ENDBRANCH   6  12
BRANCH   7  22
ATOM     22  C   UNL     1       0.773 -10.377  -2.611  0.00  0.00    +0.248 C 
ATOM     23  O   UNL     1      -0.235 -10.755  -3.181  0.00  0.00    -0.270 OA
ATOM     24  N   UNL     1       1.839 -11.196  -2.514  0.00  0.00    -0.281 N 
ATOM     25  H   UNL     1       2.667 -10.871  -2.127  0.00  0.00    +0.155 HD
BRANCH  24  26
ATOM     26  C   UNL     1       1.751 -12.515  -2.971  0.00  0.00    +0.037 A 
ATOM     27  C   UNL     1       1.113 -12.794  -4.172  0.00  0.00    +0.023 A 
ATOM     28  C   UNL     1       1.028 -14.098  -4.620  0.00  0.00    +0.002 A 
ATOM     29  C   UNL     1       1.578 -15.124  -3.875  0.00  0.00    +0.004 A 
ATOM     30  C   UNL     1       2.214 -14.850  -2.679  0.00  0.00    -0.046 A 
ATOM     31  C   UNL     1       2.308 -13.547  -2.227  0.00  0.00    -0.026 A 
ATOM     32  C   UNL     1       3.007 -13.248  -0.926  0.00  0.00    +0.046 C 
ATOM     33  C   UNL     1       2.812 -15.971  -1.869  0.00  0.00    +0.044 C 
ENDBRANCH  24  26
ENDBRANCH   7  22
BRANCH   1  34
ATOM     34  S   UNL     1       0.260  -2.841  -1.791  0.00  0.00    -0.084 S 
BRANCH  34  35
ATOM     35  C   UNL     1      -0.045  -2.370  -0.066  0.00  0.00    +0.077 C 
BRANCH  35  36
ATOM     36  C   UNL     1      -0.255  -0.857   0.020  0.00  0.00    +0.011 C 
BRANCH  36  38
ATOM     37  C   UNL     1      -0.722   1.053   1.561  0.00  0.00    +0.004 C 
ATOM     38  C   UNL     1      -0.512  -0.460   1.475  0.00  0.00    -0.003 C 
ENDBRANCH  36  38
ENDBRANCH  35  36
ENDBRANCH  34  35
ENDBRANCH   1  34
TORSDOF 9
