REMARK  Name = ZINC09730861
REMARK  11 active torsions:
REMARK  status: ('A' for Active; 'I' for Inactive)
REMARK    1  A    between atoms: C_1  and  C_2
REMARK    2  A    between atoms: C_2  and  C_4
REMARK    3  A    between atoms: C_2  and  N_59
REMARK    4  A    between atoms: C_7  and  S_16
REMARK    5  A    between atoms: N_8  and  C_9
REMARK    6  A    between atoms: S_16  and  C_17
REMARK    7  A    between atoms: C_17  and  C_19
REMARK    8  A    between atoms: C_17  and  C_20
REMARK    9  A    between atoms: C_25  and  C_28
REMARK   10  A    between atoms: C_34  and  N_59
REMARK   11  A    between atoms: C_35  and  N_59
REMARK                            x       y       z     vdW  Elec       q    Type
REMARK                         _______ _______ _______ _____ _____    ______ ____
ROOT
ATOM      1  C   UNL     1      -1.451   3.475   2.510  0.00  0.00    +0.125 A 
ATOM      2  N   UNL     1      -2.564   2.989   2.981  0.00  0.00    -0.135 NA
ATOM      3  N   UNL     1      -2.890   3.600   4.064  0.00  0.00    -0.122 NA
ATOM      4  C   UNL     1      -1.996   4.519   4.346  0.00  0.00    +0.197 A 
ATOM      5  N   UNL     1      -1.044   4.465   3.365  0.00  0.00    -0.275 N 
ENDROOT
BRANCH   5   6
ATOM      6  C   UNL     1       0.108   5.259   3.256  0.00  0.00    +0.050 A 
ATOM      7  C   UNL     1       1.365   4.679   3.360  0.00  0.00    +0.029 A 
ATOM      8  C   UNL     1       2.497   5.462   3.247  0.00  0.00    +0.040 A 
ATOM      9  C   UNL     1       2.379   6.826   3.041  0.00  0.00    +0.124 A 
ATOM     10  C   UNL     1       1.126   7.407   2.942  0.00  0.00    +0.040 A 
ATOM     11  C   UNL     1      -0.009   6.627   3.050  0.00  0.00    +0.029 A 
ATOM     12  F   UNL     1       3.487   7.591   2.936  0.00  0.00    -0.205 F 
ENDBRANCH   5   6
BRANCH   1  14
ATOM     13  C   UNL     1      -1.486   3.553   0.032  0.00  0.00    -0.005 C 
ATOM     14  C   UNL     1      -0.740   3.027   1.259  0.00  0.00    -0.003 C 
BRANCH  14  17
ATOM     15  C   UNL     1      -0.013   1.086   0.008  0.00  0.00    -0.096 C 
ATOM     16  C   UNL     1      -0.072   1.015   2.428  0.00  0.00    -0.096 C 
ATOM     17  N   UNL     1      -0.727   1.550   1.216  0.00  0.00    +0.382 N 
ATOM     18  H   UNL     1      -1.695   1.209   1.182  0.00  0.00    -0.082 HD
ENDBRANCH  14  17
ENDBRANCH   1  14
BRANCH   4  19
ATOM     19  S   UNL     1      -2.014   5.610   5.729  0.00  0.00    -0.073 S 
BRANCH  19  20
ATOM     20  C   UNL     1      -3.542   5.070   6.535  0.00  0.00    +0.137 C 
ATOM     21  C   UNL     1      -3.380   3.628   7.022  0.00  0.00    +0.029 C 
BRANCH  20  22
ATOM     22  C   UNL     1      -3.834   5.966   7.711  0.00  0.00    +0.232 C 
ATOM     23  O   UNL     1      -2.945   6.630   8.203  0.00  0.00    -0.274 OA
ATOM     24  N   UNL     1      -5.082   6.032   8.215  0.00  0.00    -0.264 N 
ATOM     25  C   UNL     1      -5.351   6.859   9.298  0.00  0.00    +0.165 A 
ATOM     26  N   UNL     1      -6.492   7.062   9.931  0.00  0.00    -0.225 NA
ATOM     27  C   UNL     1      -6.570   7.896  10.957  0.00  0.00    +0.080 A 
ATOM     28  C   UNL     1      -5.448   8.559  11.370  0.00  0.00    +0.076 A 
ATOM     29  S   UNL     1      -4.243   7.924  10.211  0.00  0.00    -0.060 S 
ATOM     30  H   UNL     1      -5.792   5.502   7.821  0.00  0.00    +0.157 HD
BRANCH  27  31
ATOM     31  C   UNL     1      -7.863   8.108  11.652  0.00  0.00    +0.001 A 
ATOM     32  C   UNL     1      -7.940   8.982  12.735  0.00  0.00    +0.010 A 
ATOM     33  C   UNL     1      -9.147   9.180  13.374  0.00  0.00    +0.001 A 
ATOM     34  C   UNL     1     -10.277   8.504  12.949  0.00  0.00    +0.000 A 
ATOM     35  C   UNL     1     -10.205   7.631  11.878  0.00  0.00    +0.001 A 
ATOM     36  C   UNL     1      -9.005   7.430  11.228  0.00  0.00    +0.010 A 
ENDBRANCH  27  31
ENDBRANCH  20  22
ENDBRANCH  19  20
ENDBRANCH   4  19
TORSDOF 7
