REMARK  Name = ZINC64741734
REMARK  8 active torsions:
REMARK  status: ('A' for Active; 'I' for Inactive)
REMARK    1  A    between atoms: C_1  and  C_2
REMARK    2  A    between atoms: C_2  and  C_4
REMARK    3  A    between atoms: C_2  and  N_16
REMARK    4  A    between atoms: N_6  and  C_7
REMARK    5  A    between atoms: N_16  and  C_17
REMARK    6  A    between atoms: C_17  and  C_18
REMARK    7  A    between atoms: C_18  and  C_20
REMARK    8  A    between atoms: C_18  and  C_26
REMARK                            x       y       z     vdW  Elec       q    Type
REMARK                         _______ _______ _______ _____ _____    ______ ____
ROOT
ATOM      1  N   UNL     1      -1.429  -1.023  -0.072  0.00  0.00    +0.387 N 
ATOM      2  H   UNL     1      -1.515  -2.026   0.003  0.00  0.00    -0.085 HD
ATOM      3  H   UNL     1      -1.710  -0.596   0.798  0.00  0.00    -0.085 HD
ENDROOT
BRANCH   1   5
ATOM      4  C   UNL     1       0.121   0.852  -0.352  0.00  0.00    -0.004 C 
ATOM      5  C   UNL     1      -0.033  -0.671  -0.362  0.00  0.00    +0.013 C 
BRANCH   5   6
ATOM      6  C   UNL     1       0.866  -1.274   0.686  0.00  0.00    +0.203 C 
ATOM      7  O   UNL     1       0.390  -1.932   1.587  0.00  0.00    -0.277 OA
ATOM      8  N   UNL     1       2.198  -1.082   0.623  0.00  0.00    -0.287 N 
ATOM      9  H   UNL     1       2.586  -0.618  -0.136  0.00  0.00    +0.155 HD
BRANCH   8  10
ATOM     10  C   UNL     1       3.023  -1.552   1.652  0.00  0.00    +0.037 A 
ATOM     11  C   UNL     1       4.145  -0.825   2.030  0.00  0.00    +0.027 A 
ATOM     12  C   UNL     1       4.959  -1.287   3.046  0.00  0.00    +0.051 A 
ATOM     13  C   UNL     1       4.660  -2.477   3.690  0.00  0.00    +0.166 A 
ATOM     14  C   UNL     1       3.536  -3.208   3.314  0.00  0.00    +0.168 A 
ATOM     15  C   UNL     1       2.717  -2.741   2.299  0.00  0.00    +0.072 A 
ATOM     16  O   UNL     1       3.464  -4.328   4.091  0.00  0.00    -0.453 OA
ATOM     17  C   UNL     1       4.774  -4.482   4.666  0.00  0.00    +0.466 C 
ATOM     18  O   UNL     1       5.292  -3.139   4.704  0.00  0.00    -0.453 OA
ENDBRANCH   8  10
ENDBRANCH   5   6
ENDBRANCH   1   5
BRANCH   1  19
ATOM     19  C   UNL     1      -2.293  -0.537  -1.156  0.00  0.00    -0.073 C 
BRANCH  19  20
ATOM     20  C   UNL     1      -3.757  -0.805  -0.801  0.00  0.00    +0.014 C 
BRANCH  20  21
ATOM     21  C   UNL     1      -3.976  -2.289  -0.661  0.00  0.00    -0.039 C 
ATOM     22  C   UNL     1      -4.410  -2.947   0.439  0.00  0.00    -0.001 A 
ATOM     23  C   UNL     1      -4.791  -2.494   1.782  0.00  0.00    +0.010 A 
ATOM     24  C   UNL     1      -5.193  -3.409   2.693  0.00  0.00    +0.001 A 
ATOM     25  C   UNL     1      -5.255  -4.776   2.387  0.00  0.00    +0.002 A 
ATOM     26  C   UNL     1      -4.920  -5.268   1.176  0.00  0.00    +0.026 A 
ATOM     27  C   UNL     1      -4.484  -4.395   0.141  0.00  0.00    +0.043 A 
ATOM     28  N   UNL     1      -4.110  -4.624  -1.095  0.00  0.00    -0.380 N 
ATOM     29  C   UNL     1      -3.763  -3.345  -1.723  0.00  0.00    +0.145 C 
ATOM     30  H   UNL     1      -4.074  -5.494  -1.523  0.00  0.00    +0.160 HD
ENDBRANCH  20  21
BRANCH  20  31
ATOM     31  C   UNL     1      -4.659  -0.259  -1.910  0.00  0.00    +0.060 C 
ATOM     32  C   UNL     1      -4.570   1.287  -2.006  0.00  0.00    +0.042 C 
ATOM     33  C   UNL     1      -5.913   1.878  -2.291  0.00  0.00    -0.019 C 
ATOM     34  C   UNL     1      -7.002   1.168  -2.073  0.00  0.00    +0.036 C 
ATOM     35  S   UNL     1      -6.441  -0.416  -1.470  0.00  0.00    -0.129 S 
ENDBRANCH  20  31
ENDBRANCH  19  20
ENDBRANCH   1  19
TORSDOF 7
