REMARK  Name = ZINC09600930
REMARK  5 active torsions:
REMARK  status: ('A' for Active; 'I' for Inactive)
REMARK    1  A    between atoms: C_1  and  C_2
REMARK    2  A    between atoms: C_2  and  C_3
REMARK    3  A    between atoms: C_3  and  C_4
REMARK    4  A    between atoms: C_4  and  S_5
REMARK    5  A    between atoms: S_5  and  C_6
REMARK                            x       y       z     vdW  Elec       q    Type
REMARK                         _______ _______ _______ _____ _____    ______ ____
ROOT
ATOM      1  C   UNL     1       0.198   0.947   5.234  0.00  0.00    +0.212 A 
ATOM      2  N   UNL     1      -0.088   1.145   6.517  0.00  0.00    -0.184 NA
ATOM      3  C   UNL     1       0.691   0.612   7.443  0.00  0.00    +0.248 A 
ATOM      4  C   UNL     1       1.808  -0.150   7.034  0.00  0.00    +0.156 A 
ATOM      5  N   UNL     1       2.036  -0.311   5.739  0.00  0.00    -0.141 NA
ATOM      6  N   UNL     1       1.247   0.220   4.870  0.00  0.00    -0.122 NA
ATOM      7  C   UNL     1       2.699  -0.745   8.051  0.00  0.00    +0.028 A 
ATOM      8  C   UNL     1       3.096  -2.075   7.982  0.00  0.00    +0.012 A 
ATOM      9  C   UNL     1       3.940  -2.591   8.946  0.00  0.00    +0.001 A 
ATOM     10  C   UNL     1       4.394  -1.791   9.980  0.00  0.00    +0.002 A 
ATOM     11  C   UNL     1       4.004  -0.467  10.064  0.00  0.00    +0.024 A 
ATOM     12  C   UNL     1       3.153   0.062   9.111  0.00  0.00    +0.040 A 
ATOM     13  N   UNL     1       2.709   1.386   9.184  0.00  0.00    -0.295 N 
ATOM     14  C   UNL     1       1.305   1.638   9.491  0.00  0.00    +0.283 C 
ATOM     15  O   UNL     1       0.435   0.779   8.763  0.00  0.00    -0.437 OA
ATOM     16  C   UNL     1       1.059   1.516  10.965  0.00  0.00    +0.048 A 
ATOM     17  C   UNL     1       1.188   0.444  11.823  0.00  0.00    +0.050 A 
ATOM     18  C   UNL     1       0.877   0.667  13.162  0.00  0.00    +0.124 A 
ATOM     19  C   UNL     1       0.458   1.907  13.605  0.00  0.00    +0.040 A 
ATOM     20  C   UNL     1       0.325   2.987  12.746  0.00  0.00    +0.026 A 
ATOM     21  C   UNL     1       0.634   2.775  11.401  0.00  0.00    +0.043 A 
ATOM     22  N   UNL     1       0.592   3.663  10.340  0.00  0.00    -0.280 N 
ATOM     23  C   UNL     1       0.969   3.084   9.181  0.00  0.00    +0.285 C 
ATOM     24  O   UNL     1       1.027   3.620   8.095  0.00  0.00    -0.269 OA
ATOM     25  F   UNL     1       0.987  -0.349  14.045  0.00  0.00    -0.205 F 
ATOM     26  H   UNL     1       3.323   2.123   9.035  0.00  0.00    +0.151 HD
ATOM     27  H   UNL     1       0.323   4.591  10.420  0.00  0.00    +0.155 HD
ENDROOT
BRANCH   1  28
ATOM     28  S   UNL     1      -0.836   1.656   3.995  0.00  0.00    -0.084 S 
BRANCH  28  29
ATOM     29  C   UNL     1       0.011   1.072   2.506  0.00  0.00    +0.077 C 
BRANCH  29  30
ATOM     30  C   UNL     1      -0.729   1.579   1.267  0.00  0.00    +0.011 C 
BRANCH  30  32
ATOM     31  C   UNL     1      -0.753   1.593  -1.232  0.00  0.00    +0.004 C 
ATOM     32  C   UNL     1      -0.013   1.086   0.008  0.00  0.00    -0.003 C 
ENDBRANCH  30  32
ENDBRANCH  29  30
ENDBRANCH  28  29
ENDBRANCH   1  28
TORSDOF 4
