REMARK  Name = ZINC08443841
REMARK  6 active torsions:
REMARK  status: ('A' for Active; 'I' for Inactive)
REMARK    1  A    between atoms: C_1  and  C_2
REMARK    2  A    between atoms: C_2  and  C_42
REMARK    3  A    between atoms: C_6  and  C_24
REMARK    4  A    between atoms: C_16  and  C_18
REMARK    5  A    between atoms: C_27  and  C_29
REMARK    6  A    between atoms: C_32  and  N_36
REMARK                            x       y       z     vdW  Elec       q    Type
REMARK                         _______ _______ _______ _____ _____    ______ ____
ROOT
ATOM      1  C   UNL     1       4.280   4.797   1.808  0.00  0.00    +0.011 C 
ATOM      2  C   UNL     1       3.559   4.512   3.127  0.00  0.00    -0.023 C 
ATOM      3  C   UNL     1       2.126   4.065   2.847  0.00  0.00    +0.058 C 
ATOM      4  C   UNL     1       2.132   2.804   1.998  0.00  0.00    +0.017 C 
ATOM      5  C   UNL     1       3.119   1.903   2.127  0.00  0.00    +0.040 C 
ATOM      6  C   UNL     1       3.236   0.601   1.370  0.00  0.00    +0.182 C 
ATOM      7  N   UNL     1       2.320   0.473   0.256  0.00  0.00    -0.251 N 
ATOM      8  C   UNL     1       0.941   0.429   0.460  0.00  0.00    +0.059 A 
ATOM      9  C   UNL     1       0.209  -0.718   0.200  0.00  0.00    +0.025 A 
ATOM     10  C   UNL     1      -1.148  -0.736   0.470  0.00  0.00    +0.002 A 
ATOM     11  C   UNL     1      -1.767   0.372   1.019  0.00  0.00    +0.002 A 
ATOM     12  C   UNL     1      -1.040   1.522   1.277  0.00  0.00    +0.025 A 
ATOM     13  C   UNL     1       0.311   1.551   0.977  0.00  0.00    +0.053 A 
ATOM     14  N   UNL     1       1.085   2.695   1.141  0.00  0.00    -0.316 N 
ATOM     15  C   UNL     1       2.808   0.396  -0.998  0.00  0.00    +0.252 C 
ATOM     16  O   UNL     1       4.002   0.512  -1.194  0.00  0.00    -0.270 OA
ATOM     17  C   UNL     1       4.180   2.131   3.035  0.00  0.00    +0.163 C 
ATOM     18  O   UNL     1       5.051   1.291   3.143  0.00  0.00    -0.292 OA
ATOM     19  C   UNL     1       4.267   3.374   3.871  0.00  0.00    +0.086 C 
ATOM     20  C   UNL     1       3.550   5.772   3.995  0.00  0.00    +0.011 C 
ATOM     21  H   UNL     1       0.859   3.471   0.605  0.00  0.00    +0.152 HD
ENDROOT
BRANCH  15  22
ATOM     22  C   UNL     1       1.891   0.168  -2.135  0.00  0.00    +0.037 A 
ATOM     23  C   UNL     1       0.652   0.810  -2.175  0.00  0.00    +0.013 A 
ATOM     24  C   UNL     1      -0.197   0.597  -3.242  0.00  0.00    +0.001 A 
ATOM     25  C   UNL     1       0.173  -0.257  -4.265  0.00  0.00    +0.000 A 
ATOM     26  C   UNL     1       1.398  -0.900  -4.228  0.00  0.00    +0.001 A 
ATOM     27  C   UNL     1       2.258  -0.693  -3.170  0.00  0.00    +0.013 A 
ENDBRANCH  15  22
BRANCH   6  28
ATOM     28  C   UNL     1       2.983  -0.534   2.329  0.00  0.00    +0.131 A 
ATOM     29  C   UNL     1       3.930  -1.234   2.984  0.00  0.00    +0.047 A 
ATOM     30  C   UNL     1       3.263  -2.193   3.772  0.00  0.00    +0.050 A 
ATOM     31  C   UNL     1       1.932  -2.029   3.546  0.00  0.00    +0.137 A 
ATOM     32  O   UNL     1       1.778  -1.019   2.668  0.00  0.00    -0.457 OA
BRANCH  31  33
ATOM     33  C   UNL     1       0.845  -2.822   4.156  0.00  0.00    +0.036 A 
ATOM     34  C   UNL     1       0.895  -4.217   4.132  0.00  0.00    +0.015 A 
ATOM     35  C   UNL     1      -0.121  -4.951   4.708  0.00  0.00    +0.033 A 
ATOM     36  C   UNL     1      -1.194  -4.308   5.300  0.00  0.00    +0.128 A 
ATOM     37  C   UNL     1      -1.254  -2.926   5.323  0.00  0.00    +0.053 A 
ATOM     38  C   UNL     1      -0.241  -2.179   4.755  0.00  0.00    +0.054 A 
ATOM     39 CL   UNL     1      -0.318  -0.445   4.784  0.00  0.00    -0.083 Cl
BRANCH  36  40
ATOM     40  N   UNL     1      -2.284  -5.103   5.910  0.00  0.00    +0.056 N 
ATOM     41  O   UNL     1      -3.230  -4.540   6.431  0.00  0.00    -0.126 OA
ATOM     42  O   UNL     1      -2.234  -6.320   5.891  0.00  0.00    -0.126 OA
ENDBRANCH  36  40
ENDBRANCH  31  33
ENDBRANCH   6  28
TORSDOF 4
