REMARK  Name = ZINC40008523
REMARK  6 active torsions:
REMARK  status: ('A' for Active; 'I' for Inactive)
REMARK    1  A    between atoms: C_1  and  C_2
REMARK    2  A    between atoms: C_16  and  C_18
REMARK    3  A    between atoms: C_21  and  O_24
REMARK    4  A    between atoms: O_24  and  C_25
REMARK    5  A    between atoms: C_25  and  C_26
REMARK    6  A    between atoms: C_34  and  C_38
REMARK                            x       y       z     vdW  Elec       q    Type
REMARK                         _______ _______ _______ _____ _____    ______ ____
ROOT
ATOM      1  C   UNL     1      -0.018   1.503   0.010  0.00  0.00    +0.044 C 
ATOM      2  C   UNL     1       0.002  -0.004   0.002  0.00  0.00    -0.050 A 
ATOM      3  C   UNL     1       0.006  -0.689  -1.205  0.00  0.00    +0.007 A 
ATOM      4  C   UNL     1       0.021  -2.065  -1.235  0.00  0.00    +0.047 A 
ATOM      5  C   UNL     1       0.034  -2.790  -0.043  0.00  0.00    +0.139 A 
ATOM      6  C   UNL     1       0.036  -2.086   1.172  0.00  0.00    +0.065 A 
ATOM      7  C   UNL     1       0.023  -0.692   1.183  0.00  0.00    +0.018 A 
ATOM      8  C   UNL     1       0.067  -2.849   2.446  0.00  0.00    +0.199 A 
ATOM      9  O   UNL     1      -0.098  -2.332   3.537  0.00  0.00    -0.287 OA
ATOM     10  C   UNL     1       0.312  -4.283   2.265  0.00  0.00    +0.072 A 
ATOM     11  C   UNL     1       0.292  -4.850   1.022  0.00  0.00    +0.199 A 
ATOM     12  O   UNL     1       0.041  -4.142  -0.096  0.00  0.00    -0.450 OA
ATOM     13  C   UNL     1       0.580  -6.287   1.166  0.00  0.00    +0.289 C 
ATOM     14  O   UNL     1       0.640  -7.080   0.247  0.00  0.00    -0.266 OA
ATOM     15  N   UNL     1       0.768  -6.596   2.465  0.00  0.00    -0.232 N 
ATOM     16  C   UNL     1       0.612  -5.362   3.253  0.00  0.00    +0.151 C 
ATOM     17  C   UNL     1       1.056  -7.852   2.969  0.00  0.00    +0.169 A 
ATOM     18  N   UNL     1       1.243  -8.215   4.217  0.00  0.00    -0.224 NA
ATOM     19  C   UNL     1       1.520  -9.489   4.568  0.00  0.00    +0.080 A 
ATOM     20  C   UNL     1       1.742 -10.010   5.864  0.00  0.00    +0.029 A 
ATOM     21  C   UNL     1       2.014 -11.340   6.048  0.00  0.00    +0.005 A 
ATOM     22  C   UNL     1       2.083 -12.220   4.977  0.00  0.00    -0.049 A 
ATOM     23  C   UNL     1       1.872 -11.746   3.696  0.00  0.00    +0.020 A 
ATOM     24  C   UNL     1       1.598 -10.415   3.502  0.00  0.00    +0.041 A 
ATOM     25  S   UNL     1       1.261  -9.393   2.088  0.00  0.00    -0.052 S 
ATOM     26  C   UNL     1       2.385 -13.678   5.209  0.00  0.00    +0.044 C 
ENDROOT
BRANCH  16  27
ATOM     27  C   UNL     1      -0.529  -5.508   4.227  0.00  0.00    -0.022 A 
ATOM     28  C   UNL     1      -1.658  -6.219   3.865  0.00  0.00    +0.009 A 
ATOM     29  C   UNL     1      -2.706  -6.354   4.755  0.00  0.00    +0.046 A 
ATOM     30  C   UNL     1      -2.625  -5.775   6.013  0.00  0.00    +0.121 A 
ATOM     31  C   UNL     1      -1.491  -5.062   6.374  0.00  0.00    +0.046 A 
ATOM     32  C   UNL     1      -0.443  -4.934   5.482  0.00  0.00    +0.009 A 
BRANCH  30  33
ATOM     33  O   UNL     1      -3.654  -5.905   6.890  0.00  0.00    -0.483 OA
BRANCH  33  34
ATOM     34  C   UNL     1      -3.501  -5.282   8.167  0.00  0.00    +0.324 C 
BRANCH  34  35
ATOM     35  C   UNL     1      -4.733  -5.532   8.999  0.00  0.00    +0.248 C 
ATOM     36  O   UNL     1      -5.652  -6.180   8.543  0.00  0.00    -0.272 OA
ATOM     37  N   UNL     1      -4.814  -5.036  10.249  0.00  0.00    -0.327 N 
ATOM     38  H   UNL     1      -4.080  -4.518  10.614  0.00  0.00    +0.145 HD
ATOM     39  H   UNL     1      -5.607  -5.197  10.784  0.00  0.00    +0.145 HD
ENDBRANCH  34  35
ENDBRANCH  33  34
ENDBRANCH  30  33
ENDBRANCH  16  27
TORSDOF 4
