REMARK  Name = ZINC50321830
REMARK  7 active torsions:
REMARK  status: ('A' for Active; 'I' for Inactive)
REMARK    1  A    between atoms: C_1  and  C_2
REMARK    2  A    between atoms: C_2  and  C_3
REMARK    3  A    between atoms: C_3  and  C_4
REMARK    4  A    between atoms: C_5  and  N_20
REMARK    5  A    between atoms: C_6  and  C_10
REMARK    6  A    between atoms: N_12  and  C_13
REMARK    7  A    between atoms: N_12  and  C_14
REMARK                            x       y       z     vdW  Elec       q    Type
REMARK                         _______ _______ _______ _____ _____    ______ ____
ROOT
ATOM      1  C   UNL     1       0.329  -2.147  -0.364  0.00  0.00    +0.057 A 
ATOM      2  C   UNL     1      -0.563  -2.934  -1.023  0.00  0.00    +0.078 A 
ATOM      3  C   UNL     1       0.022  -4.226  -1.052  0.00  0.00    +0.168 A 
ATOM      4  N   UNL     1       1.184  -4.138  -0.433  0.00  0.00    -0.167 NA
ATOM      5  N   UNL     1       1.383  -2.936  -0.029  0.00  0.00    -0.279 N 
ATOM      6  H   UNL     1       2.172  -2.634   0.448  0.00  0.00    +0.189 HD
ENDROOT
BRANCH   3   7
ATOM      7  C   UNL     1      -0.559  -5.438  -1.659  0.00  0.00    +0.269 C 
ATOM      8  O   UNL     1      -1.683  -5.407  -2.123  0.00  0.00    -0.268 OA
ATOM      9  N   UNL     1       0.156  -6.579  -1.701  0.00  0.00    -0.296 N 
ATOM     10  C   UNL     1       1.487  -6.633  -1.090  0.00  0.00    +0.132 C 
BRANCH   9  11
ATOM     11  C   UNL     1      -0.397  -7.767  -2.357  0.00  0.00    +0.076 C 
ATOM     12  C   UNL     1      -0.502  -8.907  -1.342  0.00  0.00    +0.022 C 
ATOM     13  C   UNL     1      -1.080 -10.147  -2.027  0.00  0.00    +0.002 C 
ATOM     14  C   UNL     1      -0.163 -10.569  -3.176  0.00  0.00    +0.000 C 
ATOM     15  C   UNL     1      -0.058  -9.429  -4.191  0.00  0.00    +0.002 C 
ATOM     16  C   UNL     1       0.520  -8.189  -3.506  0.00  0.00    +0.022 C 
ENDBRANCH   9  11
ENDBRANCH   3   7
BRANCH   2  17
ATOM     17  N   UNL     1      -1.800  -2.549  -1.561  0.00  0.00    -0.355 N 
ATOM     18  H   UNL     1      -2.099  -1.630  -1.480  0.00  0.00    +0.142 HD
ATOM     19  H   UNL     1      -2.356  -3.202  -2.014  0.00  0.00    +0.142 HD
ENDBRANCH   2  17
BRANCH   1  20
ATOM     20  C   UNL     1       0.179  -0.677  -0.067  0.00  0.00    +0.056 C 
BRANCH  20  22
ATOM     21  C   UNL     1      -0.771   0.995   1.528  0.00  0.00    +0.004 C 
ATOM     22  C   UNL     1      -0.619  -0.497   1.226  0.00  0.00    +0.003 C 
ENDBRANCH  20  22
ENDBRANCH   1  20
TORSDOF 5
