REMARK  Name = ZINC10603759
REMARK  10 active torsions:
REMARK  status: ('A' for Active; 'I' for Inactive)
REMARK    1  A    between atoms: C_1  and  C_2
REMARK    2  A    between atoms: C_2  and  C_4
REMARK    3  A    between atoms: C_2  and  O_14
REMARK    4  A    between atoms: N_6  and  C_7
REMARK    5  A    between atoms: O_14  and  C_15
REMARK    6  A    between atoms: C_15  and  C_17
REMARK    7  A    between atoms: C_22  and  N_23
REMARK    8  A    between atoms: N_23  and  S_24
REMARK    9  A    between atoms: S_24  and  C_27
REMARK   10  A    between atoms: C_31  and  N_33
REMARK                            x       y       z     vdW  Elec       q    Type
REMARK                         _______ _______ _______ _____ _____    ______ ____
ROOT
ATOM      1  C   UNL     1      -2.271   1.118   0.778  0.00  0.00    +0.081 A 
ATOM      2  C   UNL     1      -3.470   1.837   0.782  0.00  0.00    +0.017 A 
ATOM      3  C   UNL     1      -3.593   2.972   0.011  0.00  0.00    +0.001 A 
ATOM      4  C   UNL     1      -2.532   3.410  -0.766  0.00  0.00    +0.002 A 
ATOM      5  C   UNL     1      -1.340   2.715  -0.776  0.00  0.00    +0.025 A 
ATOM      6  C   UNL     1      -1.196   1.568  -0.005  0.00  0.00    +0.062 A 
ENDROOT
BRANCH   1   7
ATOM      7  C   UNL     1      -2.134  -0.100   1.595  0.00  0.00    +0.342 C 
ATOM      8  O   UNL     1      -1.089  -0.719   1.592  0.00  0.00    -0.245 OA
BRANCH   7   9
ATOM      9  O   UNL     1      -3.169  -0.527   2.345  0.00  0.00    -0.449 OA
BRANCH   9  11
ATOM     10  C   UNL     1      -3.365  -2.954   2.292  0.00  0.00    +0.062 C 
ATOM     11  C   UNL     1      -2.963  -1.735   3.124  0.00  0.00    +0.259 C 
BRANCH  11  12
ATOM     12  C   UNL     1      -3.807  -1.678   4.371  0.00  0.00    +0.258 C 
ATOM     13  O   UNL     1      -4.580  -0.759   4.539  0.00  0.00    -0.271 OA
ATOM     14  N   UNL     1      -3.703  -2.649   5.301  0.00  0.00    -0.280 N 
ATOM     15  H   UNL     1      -3.029  -3.340   5.207  0.00  0.00    +0.155 HD
BRANCH  14  16
ATOM     16  C   UNL     1      -4.569  -2.660   6.402  0.00  0.00    +0.069 A 
ATOM     17  C   UNL     1      -5.810  -2.045   6.317  0.00  0.00    +0.026 A 
ATOM     18  C   UNL     1      -6.664  -2.062   7.403  0.00  0.00    +0.002 A 
ATOM     19  C   UNL     1      -6.279  -2.681   8.578  0.00  0.00    +0.003 A 
ATOM     20  C   UNL     1      -5.041  -3.291   8.669  0.00  0.00    +0.040 A 
ATOM     21  C   UNL     1      -4.184  -3.282   7.584  0.00  0.00    +0.144 A 
ATOM     22  F   UNL     1      -2.974  -3.877   7.673  0.00  0.00    -0.204 F 
ENDBRANCH  14  16
ENDBRANCH  11  12
ENDBRANCH   9  11
ENDBRANCH   7   9
ENDBRANCH   1   7
BRANCH   6  23
ATOM     23  N   UNL     1       0.002   0.867  -0.015  0.00  0.00    -0.215 N 
ATOM     24  H   UNL     1      -0.002  -0.101   0.044  0.00  0.00    +0.174 HD
BRANCH  23  25
ATOM     25  S   UNL     1       1.438   1.683  -0.132  0.00  0.00    +0.072 S 
ATOM     26  O   UNL     1       2.469   0.716   0.020  0.00  0.00    -0.150 OA
ATOM     27  O   UNL     1       1.339   2.517  -1.279  0.00  0.00    -0.150 OA
BRANCH  25  28
ATOM     28  C   UNL     1       1.544   2.755   1.262  0.00  0.00    +0.111 A 
ATOM     29  C   UNL     1       2.128   2.311   2.434  0.00  0.00    +0.029 A 
ATOM     30  C   UNL     1       2.211   3.152   3.527  0.00  0.00    +0.004 A 
ATOM     31  C   UNL     1       1.710   4.438   3.450  0.00  0.00    +0.033 A 
ATOM     32  C   UNL     1       1.126   4.883   2.278  0.00  0.00    +0.128 A 
ATOM     33  C   UNL     1       1.047   4.043   1.183  0.00  0.00    +0.061 A 
BRANCH  32  34
ATOM     34  N   UNL     1       0.589   6.260   2.195  0.00  0.00    +0.056 N 
ATOM     35  O   UNL     1       0.663   7.001   3.159  0.00  0.00    -0.126 OA
ATOM     36  O   UNL     1       0.075   6.651   1.163  0.00  0.00    -0.126 OA
ENDBRANCH  32  34
ENDBRANCH  25  28
ENDBRANCH  23  25
ENDBRANCH   6  23
TORSDOF 9
