REMARK  Name = ZINC15015772
REMARK  10 active torsions:
REMARK  status: ('A' for Active; 'I' for Inactive)
REMARK    1  A    between atoms: C_1  and  C_2
REMARK    2  A    between atoms: C_3  and  C_15
REMARK    3  A    between atoms: N_6  and  C_9
REMARK    4  A    between atoms: N_7  and  C_8
REMARK    5  A    between atoms: C_15  and  C_16
REMARK    6  A    between atoms: C_15  and  C_24
REMARK    7  A    between atoms: C_20  and  O_23
REMARK    8  A    between atoms: C_25  and  C_37
REMARK    9  A    between atoms: N_26  and  C_36
REMARK   10  A    between atoms: N_27  and  C_30
REMARK                            x       y       z     vdW  Elec       q    Type
REMARK                         _______ _______ _______ _____ _____    ______ ____
ROOT
ATOM      1  C   UNL     1      -2.133   1.961   0.162  0.00  0.00    +0.095 C 
ENDROOT
BRANCH   1   4
ATOM      2  C   UNL     1       0.360   0.987   1.754  0.00  0.00    +0.065 C 
ATOM      3  C   UNL     1      -0.018   0.560   0.359  0.00  0.00    +0.042 A 
ATOM      4  C   UNL     1      -1.099   0.981  -0.328  0.00  0.00    +0.051 A 
ATOM      5  C   UNL     1      -1.089   0.347  -1.593  0.00  0.00    +0.276 A 
ATOM      6  O   UNL     1      -1.916   0.491  -2.475  0.00  0.00    -0.266 OA
ATOM      7  N   UNL     1       0.001  -0.446  -1.643  0.00  0.00    -0.217 N 
ATOM      8  N   UNL     1       0.677  -0.318  -0.423  0.00  0.00    -0.284 N 
ATOM      9  C   UNL     1       1.916  -1.006  -0.051  0.00  0.00    +0.171 C 
BRANCH   7  10
ATOM     10  C   UNL     1       0.386  -1.251  -2.720  0.00  0.00    +0.067 A 
ATOM     11  C   UNL     1       1.694  -1.214  -3.184  0.00  0.00    +0.028 A 
ATOM     12  C   UNL     1       2.073  -2.015  -4.243  0.00  0.00    +0.002 A 
ATOM     13  C   UNL     1       1.148  -2.844  -4.850  0.00  0.00    +0.000 A 
ATOM     14  C   UNL     1      -0.158  -2.880  -4.394  0.00  0.00    +0.002 A 
ATOM     15  C   UNL     1      -0.541  -2.086  -3.332  0.00  0.00    +0.028 A 
ENDBRANCH   7  10
ENDBRANCH   1   4
BRANCH   1  16
ATOM     16  C   UNL     1      -2.694   1.483   1.476  0.00  0.00    +0.051 A 
ATOM     17  C   UNL     1      -2.893   2.240   2.575  0.00  0.00    +0.042 A 
ATOM     18  N   UNL     1      -3.418   1.448   3.556  0.00  0.00    -0.284 N 
ATOM     19  N   UNL     1      -3.541   0.147   3.049  0.00  0.00    -0.217 N 
ATOM     20  C   UNL     1      -3.099   0.161   1.775  0.00  0.00    +0.276 A 
ATOM     21  O   UNL     1      -3.058  -0.792   1.018  0.00  0.00    -0.266 OA
ATOM     22  C   UNL     1      -3.784   1.882   4.907  0.00  0.00    +0.171 C 
ATOM     23  C   UNL     1      -2.590   3.711   2.698  0.00  0.00    +0.065 C 
BRANCH  19  24
ATOM     24  C   UNL     1      -4.033  -0.965   3.740  0.00  0.00    +0.067 A 
ATOM     25  C   UNL     1      -3.563  -1.256   5.014  0.00  0.00    +0.028 A 
ATOM     26  C   UNL     1      -4.055  -2.352   5.696  0.00  0.00    +0.002 A 
ATOM     27  C   UNL     1      -5.005  -3.165   5.107  0.00  0.00    +0.000 A 
ATOM     28  C   UNL     1      -5.471  -2.881   3.836  0.00  0.00    +0.002 A 
ATOM     29  C   UNL     1      -4.988  -1.784   3.151  0.00  0.00    +0.028 A 
ENDBRANCH  19  24
ENDBRANCH   1  16
BRANCH   1  30
ATOM     30  C   UNL     1      -3.244   2.067  -0.850  0.00  0.00    -0.013 A 
ATOM     31  C   UNL     1      -4.046   0.972  -1.113  0.00  0.00    +0.006 A 
ATOM     32  C   UNL     1      -5.070   1.068  -2.037  0.00  0.00    +0.004 A 
ATOM     33  C   UNL     1      -5.288   2.256  -2.708  0.00  0.00    +0.047 A 
ATOM     34  C   UNL     1      -4.482   3.354  -2.451  0.00  0.00    +0.135 A 
ATOM     35  C   UNL     1      -3.458   3.258  -1.519  0.00  0.00    +0.086 A 
ATOM     36 CL   UNL     1      -2.446   4.631  -1.195  0.00  0.00    -0.079 Cl
BRANCH  34  37
ATOM     37  O   UNL     1      -4.694   4.524  -3.111  0.00  0.00    -0.505 OA
ATOM     38  H   UNL     1      -4.201   4.604  -3.938  0.00  0.00    +0.292 HD
ENDBRANCH  34  37
ENDBRANCH   1  30
TORSDOF 6
