REMARK  Name = ZINC48822661
REMARK  5 active torsions:
REMARK  status: ('A' for Active; 'I' for Inactive)
REMARK    1  A    between atoms: C_1  and  C_2
REMARK    2  A    between atoms: C_4  and  C_7
REMARK    3  A    between atoms: C_7  and  N_12
REMARK    4  A    between atoms: C_13  and  C_15
REMARK    5  A    between atoms: C_15  and  C_16
REMARK                            x       y       z     vdW  Elec       q    Type
REMARK                         _______ _______ _______ _____ _____    ______ ____
ROOT
ATOM      1  C   UNL     1      -1.588  -3.254  -0.008  0.00  0.00    +0.097 C 
ATOM      2  C   UNL     1      -2.315  -3.374  -1.370  0.00  0.00    +0.034 C 
ATOM      3  C   UNL     1      -2.696  -4.874  -1.424  0.00  0.00    +0.003 C 
ATOM      4  C   UNL     1      -1.487  -5.595  -0.793  0.00  0.00    +0.003 C 
ATOM      5  C   UNL     1      -0.782  -4.565   0.107  0.00  0.00    +0.034 C 
ENDROOT
BRANCH   1   9
ATOM      6  C   UNL     1      -0.018   1.503   0.010  0.00  0.00    +0.112 C 
ATOM      7  C   UNL     1       0.002  -0.004   0.002  0.00  0.00    +0.224 A 
ATOM      8  N   UNL     1      -1.044  -0.783   0.003  0.00  0.00    -0.194 NA
ATOM      9  C   UNL     1      -0.663  -2.065  -0.006  0.00  0.00    +0.195 A 
ATOM     10  N   UNL     1       0.638  -2.118  -0.012  0.00  0.00    -0.059 NA
ATOM     11  O   UNL     1       1.097  -0.774  -0.013  0.00  0.00    -0.338 OA
ENDBRANCH   1   9
BRANCH   1  12
ATOM     12  N   UNL     1      -2.557  -3.150   1.086  0.00  0.00    -0.303 N 
ATOM     13  C   UNL     1      -3.390  -2.093   1.150  0.00  0.00    +0.214 C 
ATOM     14  O   UNL     1      -3.338  -1.228   0.302  0.00  0.00    -0.276 OA
ATOM     15  H   UNL     1      -2.598  -3.842   1.764  0.00  0.00    +0.150 HD
BRANCH  13  16
ATOM     16  C   UNL     1      -4.387  -1.986   2.275  0.00  0.00    +0.099 C 
BRANCH  16  17
ATOM     17  C   UNL     1      -5.203  -0.702   2.113  0.00  0.00    -0.002 C 
ATOM     18  C   UNL     1      -6.159  -0.817   0.900  0.00  0.00    +0.004 C 
ATOM     19  C   UNL     1      -7.266   0.212   1.238  0.00  0.00    +0.000 C 
ATOM     20  C   UNL     1      -7.456   0.076   2.763  0.00  0.00    +0.000 C 
ATOM     21  C   UNL     1      -6.145  -0.505   3.319  0.00  0.00    +0.004 C 
ENDBRANCH  16  17
ENDBRANCH  13  16
ENDBRANCH   1  12
TORSDOF 4
