REMARK  Name = ZINC39654495
REMARK  10 active torsions:
REMARK  status: ('A' for Active; 'I' for Inactive)
REMARK    1  A    between atoms: C_1  and  C_2
REMARK    2  A    between atoms: C_2  and  C_3
REMARK    3  A    between atoms: C_6  and  C_9
REMARK    4  A    between atoms: C_9  and  C_10
REMARK    5  A    between atoms: C_10  and  N_11
REMARK    6  A    between atoms: C_12  and  C_14
REMARK    7  A    between atoms: C_25  and  C_27
REMARK    8  A    between atoms: C_32  and  O_33
REMARK    9  A    between atoms: O_33  and  C_34
REMARK   10  A    between atoms: C_37  and  C_40
REMARK                            x       y       z     vdW  Elec       q    Type
REMARK                         _______ _______ _______ _____ _____    ______ ____
ROOT
ATOM      1  C   UNL     1       5.708  -1.091   8.840  0.00  0.00    +0.100 C 
ATOM      2  C   UNL     1       4.575  -1.686   9.707  0.00  0.00    +0.121 C 
ATOM      3  N   UNL     1       4.889  -1.246  11.086  0.00  0.00    -0.296 N 
ATOM      4  C   UNL     1       5.377   0.145  10.927  0.00  0.00    +0.115 C 
ATOM      5  C   UNL     1       6.231   0.111   9.644  0.00  0.00    -0.004 C 
ATOM      6  C   UNL     1       7.703  -0.088   9.994  0.00  0.00    -0.010 C 
ATOM      7  C   UNL     1       8.215   1.145  10.745  0.00  0.00    -0.082 C 
ATOM      8  N   UNL     1       8.048   2.336   9.903  0.00  0.00    +0.379 N 
ATOM      9  C   UNL     1       6.622   2.573   9.648  0.00  0.00    -0.082 C 
ATOM     10  C   UNL     1       6.043   1.401   8.851  0.00  0.00    -0.010 C 
ATOM     11  C   UNL     1       4.761  -1.950  12.228  0.00  0.00    +0.252 C 
ATOM     12  O   UNL     1       4.972  -1.416  13.299  0.00  0.00    -0.270 OA
ATOM     13  H   UNL     1       8.442   3.137  10.374  0.00  0.00    -0.086 HD
ATOM     14  H   UNL     1       8.527   2.196   9.026  0.00  0.00    -0.086 HD
ENDROOT
BRANCH  11  15
ATOM     15  C   UNL     1       4.363  -3.370  12.177  0.00  0.00    +0.099 A 
ATOM     16  C   UNL     1       3.464  -3.824  11.204  0.00  0.00    +0.020 A 
ATOM     17  C   UNL     1       3.124  -5.165  11.199  0.00  0.00    +0.021 A 
ATOM     18  C   UNL     1       3.675  -6.011  12.145  0.00  0.00    +0.114 A 
ATOM     19  N   UNL     1       4.519  -5.562  13.053  0.00  0.00    -0.220 NA
ATOM     20  C   UNL     1       4.882  -4.291  13.099  0.00  0.00    +0.233 A 
BRANCH  20  21
ATOM     21  O   UNL     1       5.757  -3.875  14.046  0.00  0.00    -0.437 OA
BRANCH  21  22
ATOM     22  C   UNL     1       6.163  -4.775  14.979  0.00  0.00    +0.130 A 
ATOM     23  C   UNL     1       5.604  -4.759  16.249  0.00  0.00    +0.046 A 
ATOM     24  C   UNL     1       6.019  -5.676  17.196  0.00  0.00    +0.007 A 
ATOM     25  C   UNL     1       6.989  -6.609  16.879  0.00  0.00    -0.050 A 
ATOM     26  C   UNL     1       7.548  -6.626  15.614  0.00  0.00    +0.007 A 
ATOM     27  C   UNL     1       7.133  -5.715  14.662  0.00  0.00    +0.046 A 
ATOM     28  C   UNL     1       7.439  -7.607  17.914  0.00  0.00    +0.044 C 
ENDBRANCH  21  22
ENDBRANCH  20  21
ENDBRANCH  11  15
BRANCH   1  30
ATOM     29  N   UNL     1       5.975  -0.591   6.432  0.00  0.00    -0.315 N 
ATOM     30  C   UNL     1       5.166  -0.635   7.509  0.00  0.00    +0.218 C 
ATOM     31  O   UNL     1       4.002  -0.310   7.408  0.00  0.00    -0.275 OA
ATOM     32  H   UNL     1       6.906  -0.851   6.513  0.00  0.00    +0.149 HD
BRANCH  29  33
ATOM     33  C   UNL     1       5.448  -0.148   5.138  0.00  0.00    +0.109 C 
BRANCH  33  34
ATOM     34  C   UNL     1       6.564  -0.190   4.092  0.00  0.00    +0.054 C 
BRANCH  34  38
ATOM     35  C   UNL     1       5.030   1.100   0.320  0.00  0.00    -0.048 A 
ATOM     36  C   UNL     1       5.570   2.021   1.198  0.00  0.00    +0.004 A 
ATOM     37  C   UNL     1       6.066   1.603   2.419  0.00  0.00    +0.004 A 
ATOM     38  C   UNL     1       6.022   0.265   2.762  0.00  0.00    -0.046 A 
ATOM     39  C   UNL     1       5.481  -0.656   1.884  0.00  0.00    +0.004 A 
ATOM     40  C   UNL     1       4.981  -0.238   0.665  0.00  0.00    +0.004 A 
BRANCH  35  42
ATOM     41  C   UNL     1       3.008   1.911  -0.865  0.00  0.00    +0.009 C 
ATOM     42  C   UNL     1       4.489   1.555  -1.011  0.00  0.00    +0.032 C 
ENDBRANCH  35  42
ENDBRANCH  34  38
ENDBRANCH  33  34
ENDBRANCH  29  33
ENDBRANCH   1  30
TORSDOF 8
