REMARK  Name = ZINC03436274
REMARK  7 active torsions:
REMARK  status: ('A' for Active; 'I' for Inactive)
REMARK    1  A    between atoms: C_1  and  C_2
REMARK    2  A    between atoms: C_2  and  C_4
REMARK    3  A    between atoms: C_2  and  O_15
REMARK    4  A    between atoms: N_6  and  C_7
REMARK    5  A    between atoms: O_15  and  C_16
REMARK    6  A    between atoms: C_16  and  C_18
REMARK    7  A    between atoms: C_19  and  C_20
REMARK                            x       y       z     vdW  Elec       q    Type
REMARK                         _______ _______ _______ _____ _____    ______ ____
ROOT
ATOM      1  C   UNL     1      -5.221   0.611  -1.427  0.00  0.00    +0.062 C 
ATOM      2  C   UNL     1      -4.781   0.881   0.014  0.00  0.00    +0.259 C 
ENDROOT
BRANCH   2   3
ATOM      3  C   UNL     1      -5.876   1.616   0.744  0.00  0.00    +0.258 C 
ATOM      4  O   UNL     1      -5.690   2.750   1.134  0.00  0.00    -0.271 OA
ATOM      5  N   UNL     1      -7.061   1.014   0.964  0.00  0.00    -0.281 N 
ATOM      6  H   UNL     1      -7.233   0.133   0.596  0.00  0.00    +0.155 HD
BRANCH   5   7
ATOM      7  C   UNL     1      -8.045   1.661   1.723  0.00  0.00    +0.052 A 
ATOM      8  C   UNL     1      -8.181   3.041   1.654  0.00  0.00    +0.027 A 
ATOM      9  C   UNL     1      -9.152   3.676   2.403  0.00  0.00    +0.040 A 
ATOM     10  C   UNL     1      -9.990   2.938   3.222  0.00  0.00    +0.125 A 
ATOM     11  C   UNL     1      -9.857   1.562   3.292  0.00  0.00    +0.060 A 
ATOM     12  C   UNL     1      -8.890   0.921   2.541  0.00  0.00    +0.065 A 
ATOM     13 CL   UNL     1      -8.728  -0.805   2.623  0.00  0.00    -0.082 Cl
ATOM     14  F   UNL     1     -10.939   3.562   3.954  0.00  0.00    -0.205 F 
ENDBRANCH   5   7
ENDBRANCH   2   3
BRANCH   2  15
ATOM     15  O   UNL     1      -3.595   1.678   0.008  0.00  0.00    -0.449 OA
BRANCH  15  16
ATOM     16  C   UNL     1      -2.416   1.021  -0.012  0.00  0.00    +0.333 C 
ATOM     17  O   UNL     1      -2.398  -0.195  -0.024  0.00  0.00    -0.246 OA
BRANCH  16  18
ATOM     18  C   UNL     1      -1.199   1.748  -0.019  0.00  0.00    +0.092 C 
ATOM     19  C   UNL     1      -0.019   1.091  -0.038  0.00  0.00    +0.015 C 
BRANCH  19  20
ATOM     20  C   UNL     1       1.242   1.845  -0.052  0.00  0.00    -0.021 A 
ATOM     21  C   UNL     1       1.224   3.244  -0.038  0.00  0.00    +0.012 A 
ATOM     22  C   UNL     1       2.408   3.948  -0.050  0.00  0.00    +0.050 A 
ATOM     23  C   UNL     1       3.622   3.274  -0.076  0.00  0.00    +0.166 A 
ATOM     24  C   UNL     1       3.648   1.879  -0.090  0.00  0.00    +0.167 A 
ATOM     25  C   UNL     1       2.466   1.165  -0.072  0.00  0.00    +0.057 A 
ATOM     26  O   UNL     1       4.950   1.468  -0.115  0.00  0.00    -0.453 OA
ATOM     27  C   UNL     1       5.721   2.612   0.297  0.00  0.00    +0.466 C 
ATOM     28  O   UNL     1       4.906   3.733  -0.092  0.00  0.00    -0.453 OA
ENDBRANCH  19  20
ENDBRANCH  16  18
ENDBRANCH  15  16
ENDBRANCH   2  15
TORSDOF 6
