REMARK  Name = ZINC39658500
REMARK  7 active torsions:
REMARK  status: ('A' for Active; 'I' for Inactive)
REMARK    1  A    between atoms: C_4  and  C_7
REMARK    2  A    between atoms: C_7  and  S_8
REMARK    3  A    between atoms: S_8  and  C_9
REMARK    4  A    between atoms: C_9  and  C_10
REMARK    5  A    between atoms: C_10  and  N_11
REMARK    6  A    between atoms: C_12  and  C_14
REMARK    7  A    between atoms: C_25  and  C_27
REMARK                            x       y       z     vdW  Elec       q    Type
REMARK                         _______ _______ _______ _____ _____    ______ ____
ROOT
ATOM      1  C   UNL     1      10.279  -3.830   3.557  0.00  0.00    +0.100 C 
ATOM      2  C   UNL     1       9.810  -5.177   2.962  0.00  0.00    +0.121 C 
ATOM      3  N   UNL     1      10.596  -6.201   3.688  0.00  0.00    -0.296 N 
ATOM      4  C   UNL     1      10.643  -5.708   5.086  0.00  0.00    +0.115 C 
ATOM      5  C   UNL     1      10.824  -4.183   4.951  0.00  0.00    -0.004 C 
ATOM      6  C   UNL     1      10.024  -3.460   6.030  0.00  0.00    -0.010 C 
ATOM      7  C   UNL     1      10.622  -3.780   7.403  0.00  0.00    -0.082 C 
ATOM      8  N   UNL     1      12.026  -3.355   7.439  0.00  0.00    +0.379 N 
ATOM      9  C   UNL     1      12.807  -4.122   6.462  0.00  0.00    -0.082 C 
ATOM     10  C   UNL     1      12.302  -3.816   5.049  0.00  0.00    -0.010 C 
ATOM     11  C   UNL     1      11.146  -7.327   3.191  0.00  0.00    +0.248 C 
ATOM     12  O   UNL     1      11.685  -8.121   3.937  0.00  0.00    -0.270 OA
ATOM     13  H   UNL     1      12.084  -2.372   7.218  0.00  0.00    -0.086 HD
ATOM     14  H   UNL     1      12.400  -3.511   8.363  0.00  0.00    -0.086 HD
ENDROOT
BRANCH  11  15
ATOM     15  C   UNL     1      11.092  -7.596   1.739  0.00  0.00    +0.057 A 
ATOM     16  C   UNL     1       9.973  -7.215   0.996  0.00  0.00    +0.014 A 
ATOM     17  C   UNL     1       9.929  -7.468  -0.359  0.00  0.00    +0.002 A 
ATOM     18  C   UNL     1      10.991  -8.099  -0.984  0.00  0.00    +0.021 A 
ATOM     19  C   UNL     1      12.104  -8.481  -0.255  0.00  0.00    +0.060 A 
ATOM     20  C   UNL     1      12.164  -8.227   1.103  0.00  0.00    +0.071 A 
ATOM     21 CL   UNL     1      13.563  -8.699   2.015  0.00  0.00    -0.081 Cl
ATOM     22 CL   UNL     1      13.429  -9.273  -1.049  0.00  0.00    -0.082 Cl
ENDBRANCH  11  15
BRANCH   1  24
ATOM     23  N   UNL     1       9.329  -1.547   3.597  0.00  0.00    -0.314 N 
ATOM     24  C   UNL     1       9.118  -2.876   3.674  0.00  0.00    +0.218 C 
ATOM     25  O   UNL     1       7.995  -3.303   3.837  0.00  0.00    -0.275 OA
ATOM     26  H   UNL     1      10.227  -1.205   3.466  0.00  0.00    +0.149 HD
BRANCH  23  27
ATOM     27  C   UNL     1       8.201  -0.619   3.710  0.00  0.00    +0.115 C 
BRANCH  27  28
ATOM     28  C   UNL     1       8.710   0.819   3.590  0.00  0.00    +0.088 C 
BRANCH  28  29
ATOM     29  S   UNL     1       7.313   1.968   3.731  0.00  0.00    -0.155 S 
BRANCH  29  30
ATOM     30  C   UNL     1       8.075   3.607   3.570  0.00  0.00    +0.104 C 
BRANCH  30  34
ATOM     31  C   UNL     1       5.057   6.617   3.854  0.00  0.00    +0.000 A 
ATOM     32  C   UNL     1       5.700   6.173   4.994  0.00  0.00    +0.000 A 
ATOM     33  C   UNL     1       6.677   5.199   4.902  0.00  0.00    +0.004 A 
ATOM     34  C   UNL     1       7.010   4.668   3.670  0.00  0.00    -0.038 A 
ATOM     35  C   UNL     1       6.366   5.111   2.530  0.00  0.00    +0.004 A 
ATOM     36  C   UNL     1       5.390   6.086   2.622  0.00  0.00    +0.000 A 
ENDBRANCH  30  34
ENDBRANCH  29  30
ENDBRANCH  28  29
ENDBRANCH  27  28
ENDBRANCH  23  27
ENDBRANCH   1  24
TORSDOF 7
