REMARK  Name = ZINC09047412
REMARK  10 active torsions:
REMARK  status: ('A' for Active; 'I' for Inactive)
REMARK    1  A    between atoms: C_1  and  C_2
REMARK    2  A    between atoms: C_2  and  C_4
REMARK    3  A    between atoms: C_2  and  N_13
REMARK    4  A    between atoms: N_6  and  C_7
REMARK    5  A    between atoms: C_7  and  C_8
REMARK    6  A    between atoms: C_14  and  C_16
REMARK    7  A    between atoms: C_20  and  C_24
REMARK    8  A    between atoms: C_24  and  N_25
REMARK    9  A    between atoms: N_25  and  S_26
REMARK   10  A    between atoms: S_26  and  C_29
REMARK                            x       y       z     vdW  Elec       q    Type
REMARK                         _______ _______ _______ _____ _____    ______ ____
ROOT
ATOM      1  C   UNL     1       0.780  -1.133   3.576  0.00  0.00    +0.075 C 
ATOM      2  C   UNL     1       1.347  -2.526   3.298  0.00  0.00    +0.013 C 
ATOM      3  C   UNL     1       2.087  -3.033   4.537  0.00  0.00    +0.005 C 
ATOM      4  C   UNL     1       1.116  -3.104   5.717  0.00  0.00    +0.005 C 
ATOM      5  C   UNL     1       0.549  -1.711   5.996  0.00  0.00    +0.005 C 
ATOM      6  C   UNL     1      -0.191  -1.204   4.756  0.00  0.00    +0.013 C 
ENDROOT
BRANCH   1   8
ATOM      7  N   UNL     1       0.711  -0.489   1.189  0.00  0.00    -0.304 N 
ATOM      8  C   UNL     1       0.051  -0.633   2.355  0.00  0.00    +0.217 C 
ATOM      9  O   UNL     1      -1.129  -0.361   2.423  0.00  0.00    -0.275 OA
ATOM     10  H   UNL     1       1.654  -0.707   1.135  0.00  0.00    +0.149 HD
BRANCH   7  12
ATOM     11  C   UNL     1      -0.019   1.526   0.010  0.00  0.00    +0.038 C 
ATOM     12  C   UNL     1       0.002  -0.004   0.002  0.00  0.00    +0.156 C 
BRANCH  12  13
ATOM     13  C   UNL     1       0.707  -0.490  -1.238  0.00  0.00    +0.233 C 
ATOM     14  O   UNL     1       1.704  -1.174  -1.140  0.00  0.00    -0.274 OA
ATOM     15  N   UNL     1       0.231  -0.164  -2.456  0.00  0.00    -0.307 N 
ATOM     16  H   UNL     1      -0.566   0.383  -2.534  0.00  0.00    +0.149 HD
BRANCH  15  17
ATOM     17  C   UNL     1       0.917  -0.637  -3.661  0.00  0.00    +0.178 C 
BRANCH  17  18
ATOM     18  C   UNL     1       0.188  -0.137  -4.882  0.00  0.00    +0.122 A 
ATOM     19  C   UNL     1       0.425   1.022  -5.520  0.00  0.00    +0.046 A 
ATOM     20  C   UNL     1      -0.482   1.087  -6.603  0.00  0.00    +0.041 A 
ATOM     21  C   UNL     1      -1.219  -0.037  -6.562  0.00  0.00    +0.195 A 
ATOM     22  O   UNL     1      -0.805  -0.778  -5.521  0.00  0.00    -0.466 OA
ENDBRANCH  17  18
ENDBRANCH  15  17
ENDBRANCH  12  13
ENDBRANCH   7  12
ENDBRANCH   1   8
BRANCH   4  23
ATOM     23  C   UNL     1       1.856  -3.611   6.957  0.00  0.00    +0.109 C 
BRANCH  23  24
ATOM     24  N   UNL     1       2.296  -4.990   6.733  0.00  0.00    -0.190 NA
ATOM     25  H   UNL     1       1.923  -5.505   6.000  0.00  0.00    +0.148 HD
BRANCH  24  26
ATOM     26  S   UNL     1       3.428  -5.671   7.732  0.00  0.00    +0.058 S 
ATOM     27  O   UNL     1       3.620  -7.004   7.279  0.00  0.00    -0.153 OA
ATOM     28  O   UNL     1       4.495  -4.738   7.830  0.00  0.00    -0.153 OA
BRANCH  26  29
ATOM     29  C   UNL     1       2.708  -5.783   9.336  0.00  0.00    +0.105 A 
ATOM     30  C   UNL     1       2.851  -4.740  10.232  0.00  0.00    +0.030 A 
ATOM     31  C   UNL     1       2.282  -4.825  11.488  0.00  0.00    +0.022 A 
ATOM     32  C   UNL     1       1.578  -5.959  11.853  0.00  0.00    +0.041 A 
ATOM     33  C   UNL     1       1.440  -7.005  10.958  0.00  0.00    +0.022 A 
ATOM     34  C   UNL     1       2.005  -6.916   9.700  0.00  0.00    +0.030 A 
ATOM     35 CL   UNL     1       0.868  -6.069  13.434  0.00  0.00    -0.084 Cl
ENDBRANCH  26  29
ENDBRANCH  24  26
ENDBRANCH  23  24
ENDBRANCH   4  23
TORSDOF 9
