REMARK  Name = ZINC03296897
REMARK  11 active torsions:
REMARK  status: ('A' for Active; 'I' for Inactive)
REMARK    1  A    between atoms: C_1  and  C_2
REMARK    2  A    between atoms: C_2  and  C_4
REMARK    3  A    between atoms: C_2  and  O_29
REMARK    4  A    between atoms: C_4  and  C_6
REMARK    5  A    between atoms: C_4  and  N_18
REMARK    6  A    between atoms: C_6  and  O_8
REMARK    7  A    between atoms: O_8  and  C_9
REMARK    8  A    between atoms: C_9  and  C_10
REMARK    9  A    between atoms: C_10  and  C_12
REMARK   10  A    between atoms: N_18  and  S_19
REMARK   11  A    between atoms: S_19  and  C_22
REMARK                            x       y       z     vdW  Elec       q    Type
REMARK                         _______ _______ _______ _____ _____    ______ ____
ROOT
ATOM      1  C   UNL     1      -2.164   1.050   1.278  0.00  0.00    +0.213 C 
ENDROOT
BRANCH   1   3
ATOM      2  C   UNL     1      -0.013   1.086   0.008  0.00  0.00    +0.040 C 
ATOM      3  C   UNL     1      -0.729   1.579   1.267  0.00  0.00    +0.141 C 
BRANCH   3   4
ATOM      4  O   UNL     1      -0.748   3.008   1.275  0.00  0.00    -0.390 OA
ATOM      5  H   UNL     1       0.130   3.413   1.268  0.00  0.00    +0.210 HD
ENDBRANCH   3   4
ENDBRANCH   1   3
BRANCH   1   6
ATOM      6  C   UNL     1      -2.929   1.647   0.124  0.00  0.00    +0.329 C 
ATOM      7  O   UNL     1      -3.914   2.314   0.333  0.00  0.00    -0.249 OA
BRANCH   6   8
ATOM      8  O   UNL     1      -2.515   1.437  -1.135  0.00  0.00    -0.455 OA
BRANCH   8   9
ATOM      9  C   UNL     1      -3.300   2.042  -2.196  0.00  0.00    +0.312 C 
BRANCH   9  10
ATOM     10  C   UNL     1      -2.689   1.700  -3.531  0.00  0.00    +0.207 C 
ATOM     11  O   UNL     1      -1.689   1.013  -3.583  0.00  0.00    -0.288 OA
BRANCH  10  12
ATOM     12  C   UNL     1      -3.278   2.179  -4.720  0.00  0.00    +0.059 A 
ATOM     13  C   UNL     1      -2.878   1.982  -6.039  0.00  0.00    +0.020 A 
ATOM     14  C   UNL     1      -3.641   2.567  -7.014  0.00  0.00    +0.023 A 
ATOM     15  C   UNL     1      -4.732   3.299  -6.656  0.00  0.00    +0.056 A 
ATOM     16  S   UNL     1      -4.736   3.188  -4.926  0.00  0.00    -0.078 S 
ATOM     17 BR   UNL     1      -5.954   4.209  -7.776  0.00  0.00    -0.043 Br
ENDBRANCH  10  12
ENDBRANCH   9  10
ENDBRANCH   8   9
ENDBRANCH   6   8
ENDBRANCH   1   6
BRANCH   1  18
ATOM     18  N   UNL     1      -2.812   1.421   2.538  0.00  0.00    -0.174 NA
ATOM     19  H   UNL     1      -3.232   2.292   2.629  0.00  0.00    +0.149 HD
BRANCH  18  20
ATOM     20  S   UNL     1      -2.830   0.357   3.806  0.00  0.00    +0.059 S 
ATOM     21  O   UNL     1      -3.498   1.010   4.876  0.00  0.00    -0.153 OA
ATOM     22  O   UNL     1      -3.267  -0.890   3.283  0.00  0.00    -0.153 OA
BRANCH  20  23
ATOM     23  C   UNL     1      -1.159   0.130   4.319  0.00  0.00    +0.105 A 
ATOM     24  C   UNL     1      -0.395  -0.876   3.758  0.00  0.00    +0.030 A 
ATOM     25  C   UNL     1       0.917  -1.051   4.156  0.00  0.00    +0.022 A 
ATOM     26  C   UNL     1       1.462  -0.226   5.123  0.00  0.00    +0.041 A 
ATOM     27  C   UNL     1       0.695   0.777   5.688  0.00  0.00    +0.022 A 
ATOM     28  C   UNL     1      -0.615   0.955   5.285  0.00  0.00    +0.030 A 
ATOM     29 CL   UNL     1       3.108  -0.449   5.628  0.00  0.00    -0.084 Cl
ENDBRANCH  20  23
ENDBRANCH  18  20
ENDBRANCH   1  18
TORSDOF 10
