REMARK  Name = ZINC57653912
REMARK  8 active torsions:
REMARK  status: ('A' for Active; 'I' for Inactive)
REMARK    1  A    between atoms: C_1  and  C_2
REMARK    2  A    between atoms: C_2  and  C_3
REMARK    3  A    between atoms: C_6  and  C_9
REMARK    4  A    between atoms: C_9  and  C_10
REMARK    5  A    between atoms: C_10  and  C_11
REMARK    6  A    between atoms: C_11  and  C_13
REMARK    7  A    between atoms: C_11  and  O_15
REMARK    8  A    between atoms: O_15  and  C_16
REMARK                            x       y       z     vdW  Elec       q    Type
REMARK                         _______ _______ _______ _____ _____    ______ ____
ROOT
ATOM      1  C   UNL     1       3.895  -1.401   6.644  0.00  0.00    +0.275 C 
ENDROOT
BRANCH   1   2
ATOM      2  C   UNL     1       3.995  -0.308   7.625  0.00  0.00    +0.107 C 
ATOM      3  N   UNL     1       4.073   0.534   8.383  0.00  0.00    -0.193 NA
ENDBRANCH   1   2
BRANCH   1   4
ATOM      4  C   UNL     1       3.262  -0.872   5.355  0.00  0.00    +0.065 C 
BRANCH   4   5
ATOM      5  C   UNL     1       3.042  -2.031   4.381  0.00  0.00    +0.040 C 
BRANCH   5   9
ATOM      6  C   UNL     1       1.276  -0.556   0.782  0.00  0.00    -0.048 A 
ATOM      7  C   UNL     1       2.652  -0.613   0.904  0.00  0.00    +0.004 A 
ATOM      8  C   UNL     1       3.223  -1.090   2.069  0.00  0.00    +0.004 A 
ATOM      9  C   UNL     1       2.419  -1.510   3.112  0.00  0.00    -0.047 A 
ATOM     10  C   UNL     1       1.044  -1.452   2.990  0.00  0.00    +0.004 A 
ATOM     11  C   UNL     1       0.472  -0.971   1.827  0.00  0.00    +0.004 A 
BRANCH   6  13
ATOM     12  C   UNL     1       0.455   1.477  -0.376  0.00  0.00    +0.009 C 
ATOM     13  C   UNL     1       0.653  -0.036  -0.487  0.00  0.00    +0.032 C 
ENDBRANCH   6  13
ENDBRANCH   5   9
ENDBRANCH   4   5
ENDBRANCH   1   4
BRANCH   1  14
ATOM     14  O   UNL     1       5.200  -1.908   6.360  0.00  0.00    -0.474 OA
BRANCH  14  15
ATOM     15  C   UNL     1       5.697  -2.844   7.212  0.00  0.00    +0.126 A 
ATOM     16  C   UNL     1       6.911  -3.456   6.937  0.00  0.00    +0.049 A 
ATOM     17  C   UNL     1       7.418  -4.408   7.802  0.00  0.00    +0.053 A 
ATOM     18  C   UNL     1       6.716  -4.753   8.945  0.00  0.00    +0.166 A 
ATOM     19  C   UNL     1       5.497  -4.140   9.222  0.00  0.00    +0.170 A 
ATOM     20  C   UNL     1       4.993  -3.182   8.357  0.00  0.00    +0.095 A 
ATOM     21  O   UNL     1       5.009  -4.647  10.392  0.00  0.00    -0.452 OA
ATOM     22  C   UNL     1       5.739  -5.868  10.616  0.00  0.00    +0.466 C 
ATOM     23  O   UNL     1       6.992  -5.646   9.942  0.00  0.00    -0.453 OA
ENDBRANCH  14  15
ENDBRANCH   1  14
TORSDOF 7
