REMARK  Name = ZINC16676499
REMARK  12 active torsions:
REMARK  status: ('A' for Active; 'I' for Inactive)
REMARK    1  A    between atoms: C_1  and  C_2
REMARK    2  A    between atoms: C_2  and  C_3
REMARK    3  A    between atoms: C_2  and  C_4
REMARK    4  A    between atoms: C_8  and  C_30
REMARK    5  A    between atoms: C_9  and  N_10
REMARK    6  A    between atoms: N_10  and  S_11
REMARK    7  A    between atoms: S_11  and  C_14
REMARK    8  A    between atoms: C_17  and  N_20
REMARK    9  A    between atoms: C_23  and  C_28
REMARK   10  A    between atoms: C_23  and  C_29
REMARK   11  A    between atoms: C_30  and  C_31
REMARK   12  A    between atoms: C_30  and  C_32
REMARK                            x       y       z     vdW  Elec       q    Type
REMARK                         _______ _______ _______ _____ _____    ______ ____
ROOT
ATOM      1  S   UNL     1      -3.542   4.454   0.906  0.00  0.00    +0.072 S 
ATOM      2  O   UNL     1      -3.550   4.982   2.225  0.00  0.00    -0.150 OA
ATOM      3  O   UNL     1      -3.430   5.280  -0.245  0.00  0.00    -0.150 OA
ENDROOT
BRANCH   1   4
ATOM      4  C   UNL     1      -5.035   3.536   0.723  0.00  0.00    +0.109 A 
ATOM      5  C   UNL     1      -5.587   3.359  -0.533  0.00  0.00    +0.030 A 
ATOM      6  C   UNL     1      -6.754   2.636  -0.680  0.00  0.00    +0.027 A 
ATOM      7  C   UNL     1      -7.380   2.095   0.436  0.00  0.00    +0.059 A 
ATOM      8  C   UNL     1      -6.826   2.279   1.696  0.00  0.00    +0.027 A 
ATOM      9  C   UNL     1      -5.655   2.998   1.836  0.00  0.00    +0.030 A 
BRANCH   7  10
ATOM     10  N   UNL     1      -8.565   1.366   0.290  0.00  0.00    -0.143 N 
ATOM     11  C   UNL     1      -9.017   0.419   1.127  0.00  0.00    +0.246 C 
ATOM     12  O   UNL     1      -8.405   0.140   2.136  0.00  0.00    -0.273 OA
ATOM     13  C   UNL     1     -10.298  -0.282   0.788  0.00  0.00    +0.064 C 
ATOM     14  C   UNL     1     -11.076   0.575  -0.245  0.00  0.00    +0.205 C 
ATOM     15  S   UNL     1      -9.667   1.516  -0.961  0.00  0.00    +0.053 S 
ATOM     16  O   UNL     1      -9.971   2.902  -1.042  0.00  0.00    -0.155 OA
ATOM     17  O   UNL     1      -9.097   0.819  -2.061  0.00  0.00    -0.155 OA
ATOM     18  C   UNL     1     -11.142  -0.458   2.051  0.00  0.00    +0.022 C 
ATOM     19  C   UNL     1      -9.981  -1.652   0.186  0.00  0.00    +0.022 C 
ENDBRANCH   7  10
ENDBRANCH   1   4
BRANCH   1  20
ATOM     20  N   UNL     1      -2.290   3.372   0.836  0.00  0.00    -0.216 N 
ATOM     21  H   UNL     1      -1.754   3.200   1.626  0.00  0.00    +0.174 HD
BRANCH  20  27
ATOM     22  C   UNL     1      -2.350   1.371  -0.511  0.00  0.00    -0.022 A 
ATOM     23  C   UNL     1      -2.073   0.719  -1.697  0.00  0.00    +0.006 A 
ATOM     24  C   UNL     1      -1.450   1.394  -2.730  0.00  0.00    +0.001 A 
ATOM     25  C   UNL     1      -1.102   2.724  -2.580  0.00  0.00    +0.006 A 
ATOM     26  C   UNL     1      -1.376   3.382  -1.397  0.00  0.00    -0.022 A 
ATOM     27  C   UNL     1      -2.007   2.708  -0.359  0.00  0.00    +0.055 A 
BRANCH  22  29
ATOM     28  C   UNL     1      -4.337   0.023   0.108  0.00  0.00    +0.012 C 
ATOM     29  C   UNL     1      -3.029   0.634   0.614  0.00  0.00    +0.015 C 
ATOM     30  C   UNL     1      -2.110  -0.479   1.123  0.00  0.00    +0.012 C 
ENDBRANCH  22  29
BRANCH  26  31
ATOM     31  C   UNL     1      -0.997   4.832  -1.235  0.00  0.00    +0.015 C 
ATOM     32  C   UNL     1       0.521   4.979  -1.365  0.00  0.00    +0.012 C 
ATOM     33  C   UNL     1      -1.685   5.663  -2.319  0.00  0.00    +0.012 C 
ENDBRANCH  26  31
ENDBRANCH  20  27
ENDBRANCH   1  20
TORSDOF 6
