REMARK  Name = ZINC04251946
REMARK  6 active torsions:
REMARK  status: ('A' for Active; 'I' for Inactive)
REMARK    1  A    between atoms: C_1  and  C_2
REMARK    2  A    between atoms: C_2  and  C_4
REMARK    3  A    between atoms: C_2  and  S_14
REMARK    4  A    between atoms: S_14  and  C_15
REMARK    5  A    between atoms: C_17  and  C_21
REMARK    6  A    between atoms: N_19  and  N_20
REMARK                            x       y       z     vdW  Elec       q    Type
REMARK                         _______ _______ _______ _____ _____    ______ ____
ROOT
ATOM      1  S   UNL     1      -1.414  -1.051   0.014  0.00  0.00    -0.074 S 
ENDROOT
BRANCH   1   2
ATOM      2  C   UNL     1       0.004  -0.005   0.009  0.00  0.00    +0.187 A 
ATOM      3  N   UNL     1       1.251  -0.410  -0.005  0.00  0.00    -0.221 NA
ATOM      4  C   UNL     1       2.070   0.672  -0.006  0.00  0.00    +0.092 A 
ATOM      5  C   UNL     1       1.292   1.783   0.009  0.00  0.00    +0.138 A 
ATOM      6  N   UNL     1      -0.014   1.356   0.018  0.00  0.00    -0.251 N 
BRANCH   4   7
ATOM      7  C   UNL     1       3.553   0.645  -0.019  0.00  0.00    +0.002 A 
ATOM      8  C   UNL     1       4.274   1.837  -0.024  0.00  0.00    +0.010 A 
ATOM      9  C   UNL     1       5.654   1.806  -0.031  0.00  0.00    +0.001 A 
ATOM     10  C   UNL     1       6.321   0.594  -0.044  0.00  0.00    +0.000 A 
ATOM     11  C   UNL     1       5.610  -0.593  -0.044  0.00  0.00    +0.001 A 
ATOM     12  C   UNL     1       4.230  -0.573  -0.032  0.00  0.00    +0.010 A 
ENDBRANCH   4   7
BRANCH   6  13
ATOM     13  N   UNL     1      -1.125   2.151   0.028  0.00  0.00    -0.296 N 
ATOM     14  H   UNL     1      -1.415   2.355   0.973  0.00  0.00    +0.163 HD
ATOM     15  H   UNL     1      -0.967   3.000  -0.493  0.00  0.00    +0.163 HD
ENDBRANCH   6  13
ENDBRANCH   1   2
BRANCH   1  17
ATOM     16  C   UNL     1       0.174  -2.866   1.296  0.00  0.00    +0.029 C 
ATOM     17  C   UNL     1      -0.610  -2.672  -0.004  0.00  0.00    +0.137 C 
BRANCH  17  18
ATOM     18  C   UNL     1      -1.656  -3.750  -0.125  0.00  0.00    +0.231 C 
ATOM     19  O   UNL     1      -2.809  -3.512   0.166  0.00  0.00    -0.274 OA
ATOM     20  N   UNL     1      -1.309  -4.979  -0.558  0.00  0.00    -0.269 N 
ATOM     21  C   UNL     1      -2.253  -6.005  -0.570  0.00  0.00    +0.125 A 
ATOM     22  C   UNL     1      -1.864  -7.295  -0.916  0.00  0.00    +0.045 A 
ATOM     23  C   UNL     1      -2.810  -8.304  -0.924  0.00  0.00    +0.025 A 
ATOM     24  C   UNL     1      -4.120  -7.988  -0.585  0.00  0.00    +0.059 A 
ATOM     25  C   UNL     1      -4.435  -6.684  -0.251  0.00  0.00    +0.132 A 
ATOM     26  N   UNL     1      -3.510  -5.744  -0.247  0.00  0.00    -0.239 NA
ATOM     27 CL   UNL     1      -5.346  -9.216  -0.580  0.00  0.00    -0.082 Cl
ATOM     28  H   UNL     1      -0.404  -5.149  -0.860  0.00  0.00    +0.156 HD
ENDBRANCH  17  18
ENDBRANCH   1  17
TORSDOF 5
