REMARK  Name = ZINC12972238
REMARK  8 active torsions:
REMARK  status: ('A' for Active; 'I' for Inactive)
REMARK    1  A    between atoms: C_1  and  C_2
REMARK    2  A    between atoms: C_5  and  N_9
REMARK    3  A    between atoms: C_6  and  C_8
REMARK    4  A    between atoms: C_10  and  C_12
REMARK    5  A    between atoms: C_12  and  C_13
REMARK    6  A    between atoms: C_13  and  C_14
REMARK    7  A    between atoms: C_17  and  S_20
REMARK    8  A    between atoms: S_20  and  N_23
REMARK                            x       y       z     vdW  Elec       q    Type
REMARK                         _______ _______ _______ _____ _____    ______ ____
ROOT
ATOM      1  C   UNL     1       0.503  -3.560  -1.521  0.00  0.00    -0.047 A 
ATOM      2  C   UNL     1      -0.379  -3.706  -0.467  0.00  0.00    +0.005 A 
ATOM      3  C   UNL     1      -1.505  -2.908  -0.392  0.00  0.00    +0.029 A 
ATOM      4  C   UNL     1      -1.750  -1.964  -1.372  0.00  0.00    +0.105 A 
ATOM      5  C   UNL     1      -0.870  -1.822  -2.430  0.00  0.00    +0.029 A 
ATOM      6  C   UNL     1       0.258  -2.617  -2.502  0.00  0.00    +0.005 A 
ENDROOT
BRANCH   4   7
ATOM      7  S   UNL     1      -3.185  -0.946  -1.278  0.00  0.00    +0.061 S 
ATOM      8  O   UNL     1      -4.131  -1.652  -0.487  0.00  0.00    -0.153 OA
ATOM      9  O   UNL     1      -3.468  -0.519  -2.603  0.00  0.00    -0.153 OA
BRANCH   7  10
ATOM     10  N   UNL     1      -2.769   0.409  -0.421  0.00  0.00    -0.177 NA
ATOM     11  C   UNL     1      -2.257   1.567  -1.094  0.00  0.00    +0.109 C 
ATOM     12  C   UNL     1      -0.723   1.611  -1.303  0.00  0.00    +0.017 C 
ATOM     13  C   UNL     1       0.003   1.105  -0.032  0.00  0.00    +0.001 C 
ATOM     14  C   UNL     1      -0.693   1.588   1.207  0.00  0.00    +0.001 C 
ATOM     15  C   UNL     1      -1.580   0.430   1.653  0.00  0.00    +0.017 C 
ATOM     16  C   UNL     1      -2.922   0.444   1.072  0.00  0.00    +0.109 C 
ENDBRANCH   7  10
ENDBRANCH   4   7
BRANCH   1  17
ATOM     17  C   UNL     1       1.731  -4.430  -1.602  0.00  0.00    +0.044 C 
BRANCH  17  18
ATOM     18  C   UNL     1       1.404  -5.703  -2.385  0.00  0.00    +0.101 C 
BRANCH  18  20
ATOM     19  N   UNL     1       2.581  -7.753  -3.113  0.00  0.00    -0.285 N 
ATOM     20  C   UNL     1       2.633  -6.572  -2.465  0.00  0.00    +0.218 C 
ATOM     21  O   UNL     1       3.667  -6.209  -1.947  0.00  0.00    -0.275 OA
ATOM     22  H   UNL     1       1.736  -8.081  -3.458  0.00  0.00    +0.155 HD
BRANCH  19  27
ATOM     23  C   UNL     1       7.309 -10.807  -3.823  0.00  0.00    +0.044 C 
ATOM     24  C   UNL     1       6.053  -9.996  -3.634  0.00  0.00    -0.050 A 
ATOM     25  C   UNL     1       6.136  -8.627  -3.459  0.00  0.00    +0.005 A 
ATOM     26  C   UNL     1       4.987  -7.880  -3.286  0.00  0.00    +0.024 A 
ATOM     27  C   UNL     1       3.747  -8.506  -3.288  0.00  0.00    +0.036 A 
ATOM     28  C   UNL     1       3.668  -9.882  -3.458  0.00  0.00    -0.029 A 
ATOM     29  C   UNL     1       4.821 -10.622  -3.636  0.00  0.00    +0.008 A 
ATOM     30  C   UNL     1       2.325 -10.566  -3.454  0.00  0.00    +0.045 C 
ENDBRANCH  19  27
ENDBRANCH  18  20
ENDBRANCH  17  18
ENDBRANCH   1  17
TORSDOF 6
