REMARK  Name = ZINC13499413
REMARK  11 active torsions:
REMARK  status: ('A' for Active; 'I' for Inactive)
REMARK    1  A    between atoms: C_1  and  C_2
REMARK    2  A    between atoms: C_2  and  C_3
REMARK    3  A    between atoms: C_3  and  C_4
REMARK    4  A    between atoms: C_4  and  C_6
REMARK    5  A    between atoms: C_4  and  N_75
REMARK    6  A    between atoms: N_10  and  C_11
REMARK    7  A    between atoms: C_11  and  C_12
REMARK    8  A    between atoms: C_12  and  C_13
REMARK    9  A    between atoms: C_19  and  C_20
REMARK   10  A    between atoms: C_19  and  N_75
REMARK   11  A    between atoms: C_36  and  N_75
REMARK                            x       y       z     vdW  Elec       q    Type
REMARK                         _______ _______ _______ _____ _____    ______ ____
ROOT
ATOM      1  N   UNL     1      -2.251   0.625  -1.233  0.00  0.00    +0.391 N 
ATOM      2  H   UNL     1      -2.322   1.590  -1.574  0.00  0.00    -0.080 HD
ENDROOT
BRANCH   1   3
ATOM      3  C   UNL     1      -1.281  -0.111  -2.072  0.00  0.00    -0.067 C 
ATOM      4  C   UNL     1      -0.017   0.752  -2.265  0.00  0.00    -0.015 C 
ATOM      5  C   UNL     1       0.406   0.483  -3.731  0.00  0.00    -0.002 C 
ATOM      6  C   UNL     1      -0.953   0.393  -4.468  0.00  0.00    -0.002 C 
ATOM      7  C   UNL     1      -1.876  -0.339  -3.473  0.00  0.00    -0.015 C 
ENDBRANCH   1   3
BRANCH   1   8
ATOM      8  C   UNL     1      -3.581  -0.014  -1.321  0.00  0.00    +0.003 C 
BRANCH   8   9
ATOM      9  C   UNL     1      -3.535  -1.409  -0.751  0.00  0.00    +0.138 A 
ATOM     10  N   UNL     1      -2.638  -1.888   0.075  0.00  0.00    -0.115 NA
ATOM     11  N   UNL     1      -2.946  -3.113   0.330  0.00  0.00    -0.023 NA
ATOM     12  N   UNL     1      -4.011  -3.430  -0.319  0.00  0.00    -0.044 NA
ATOM     13  N   UNL     1      -4.406  -2.406  -0.997  0.00  0.00    -0.231 N 
BRANCH  13  14
ATOM     14  C   UNL     1      -5.580  -2.340  -1.871  0.00  0.00    +0.152 C 
BRANCH  14  15
ATOM     15  C   UNL     1      -5.151  -2.574  -3.321  0.00  0.00    +0.058 C 
BRANCH  15  16
ATOM     16  C   UNL     1      -6.363  -2.534  -4.216  0.00  0.00    -0.046 A 
ATOM     17  C   UNL     1      -7.061  -3.696  -4.484  0.00  0.00    +0.004 A 
ATOM     18  C   UNL     1      -8.176  -3.659  -5.301  0.00  0.00    +0.000 A 
ATOM     19  C   UNL     1      -8.585  -2.462  -5.858  0.00  0.00    +0.000 A 
ATOM     20  C   UNL     1      -7.883  -1.301  -5.594  0.00  0.00    +0.000 A 
ATOM     21  C   UNL     1      -6.772  -1.337  -4.773  0.00  0.00    +0.004 A 
ENDBRANCH  15  16
ENDBRANCH  14  15
ENDBRANCH  13  14
ENDBRANCH   8   9
BRANCH   8  22
ATOM     22  C   UNL     1      -4.587   0.826  -0.532  0.00  0.00    -0.008 C 
BRANCH  22  24
ATOM     23  C   UNL     1      -5.550   3.114  -0.251  0.00  0.00    +0.004 C 
ATOM     24  C   UNL     1      -4.635   2.241  -1.111  0.00  0.00    -0.005 C 
ENDBRANCH  22  24
ENDBRANCH   8  22
ENDBRANCH   1   8
BRANCH   1  25
ATOM     25  C   UNL     1      -1.791   0.643   0.172  0.00  0.00    -0.036 C 
BRANCH  25  26
ATOM     26  C   UNL     1      -0.724   1.698   0.316  0.00  0.00    +0.001 A 
ATOM     27  C   UNL     1      -1.073   3.009   0.374  0.00  0.00    +0.017 A 
ATOM     28  C   UNL     1      -0.014   4.009   0.508  0.00  0.00    +0.002 A 
ATOM     29  C   UNL     1      -0.314   5.375   0.567  0.00  0.00    +0.059 A 
ATOM     30  C   UNL     1       0.705   6.295   0.696  0.00  0.00    +0.163 A 
ATOM     31  C   UNL     1       2.034   5.868   0.768  0.00  0.00    +0.164 A 
ATOM     32  C   UNL     1       2.340   4.519   0.709  0.00  0.00    +0.075 A 
ATOM     33  C   UNL     1       1.325   3.579   0.579  0.00  0.00    +0.053 A 
ATOM     34  N   UNL     1       1.612   2.231   0.519  0.00  0.00    -0.322 N 
ATOM     35  H   UNL     1       2.535   1.936   0.567  0.00  0.00    +0.169 HD
ATOM     36  C   UNL     1       0.631   1.320   0.396  0.00  0.00    +0.251 A 
ATOM     37  O   UNL     1       0.921   0.137   0.347  0.00  0.00    -0.268 OA
ATOM     38  O   UNL     1       3.045   6.768   0.899  0.00  0.00    -0.485 OA
ATOM     39  C   UNL     1       2.741   8.130   0.579  0.00  0.00    +0.270 C 
ATOM     40  C   UNL     1       1.411   8.497   1.252  0.00  0.00    +0.270 C 
ATOM     41  O   UNL     1       0.397   7.621   0.749  0.00  0.00    -0.485 OA
ENDBRANCH  25  26
ENDBRANCH   1  25
TORSDOF 10
