REMARK  Name = ZINC03008297
REMARK  7 active torsions:
REMARK  status: ('A' for Active; 'I' for Inactive)
REMARK    1  A    between atoms: C_1  and  C_2
REMARK    2  A    between atoms: C_6  and  N_9
REMARK    3  A    between atoms: C_7  and  C_8
REMARK    4  A    between atoms: C_10  and  N_17
REMARK    5  A    between atoms: C_18  and  C_20
REMARK    6  A    between atoms: C_20  and  C_21
REMARK    7  A    between atoms: C_20  and  C_22
REMARK                            x       y       z     vdW  Elec       q    Type
REMARK                         _______ _______ _______ _____ _____    ______ ____
ROOT
ATOM      1  N   UNL     1       1.216  -2.104   0.056  0.00  0.00    -0.218 N 
ATOM      2  C   UNL     1       2.327  -2.881   0.089  0.00  0.00    +0.133 A 
ATOM      3  C   UNL     1       1.918  -4.194   0.041  0.00  0.00    +0.026 A 
ATOM      4  C   UNL     1       0.535  -4.204  -0.031  0.00  0.00    +0.079 A 
ATOM      5  N   UNL     1       0.109  -2.950  -0.022  0.00  0.00    -0.168 NA
ATOM      6  C   UNL     1      -0.138  -5.574  -0.101  0.00  0.00    +0.127 C 
ATOM      7  S   UNL     1       1.225  -6.691   0.426  0.00  0.00    -0.150 S 
ATOM      8  C   UNL     1       2.618  -5.551   0.044  0.00  0.00    +0.110 C 
ENDROOT
BRANCH   1  14
ATOM      9  C   UNL     1      -0.639   2.048   1.931  0.00  0.00    +0.044 C 
ATOM     10  C   UNL     1       0.298   1.334   0.991  0.00  0.00    -0.046 A 
ATOM     11  C   UNL     1       1.126   2.062   0.156  0.00  0.00    +0.004 A 
ATOM     12  C   UNL     1       1.983   1.411  -0.712  0.00  0.00    +0.002 A 
ATOM     13  C   UNL     1       2.015   0.031  -0.748  0.00  0.00    +0.028 A 
ATOM     14  C   UNL     1       1.186  -0.703   0.090  0.00  0.00    +0.071 A 
ATOM     15  C   UNL     1       0.326  -0.046   0.960  0.00  0.00    -0.022 A 
ATOM     16  C   UNL     1      -0.577  -0.839   1.870  0.00  0.00    +0.046 C 
ENDBRANCH   1  14
BRANCH   2  17
ATOM     17  N   UNL     1       3.645  -2.430   0.162  0.00  0.00    -0.270 N 
ATOM     18  C   UNL     1       4.641  -3.177  -0.354  0.00  0.00    +0.221 C 
ATOM     19  O   UNL     1       4.401  -4.271  -0.819  0.00  0.00    -0.275 OA
ATOM     20  H   UNL     1       3.845  -1.580   0.583  0.00  0.00    +0.156 HD
BRANCH  18  21
ATOM     21  C   UNL     1       6.054  -2.653  -0.352  0.00  0.00    +0.069 C 
ATOM     22  C   UNL     1       6.983  -3.688  -0.989  0.00  0.00    +0.017 C 
ATOM     23  C   UNL     1       6.116  -1.351  -1.153  0.00  0.00    +0.017 C 
ENDBRANCH  18  21
ENDBRANCH   2  17
TORSDOF 3
