REMARK  Name = ZINC46004540
REMARK  10 active torsions:
REMARK  status: ('A' for Active; 'I' for Inactive)
REMARK    1  A    between atoms: C_1  and  C_2
REMARK    2  A    between atoms: C_3  and  S_24
REMARK    3  A    between atoms: C_4  and  C_23
REMARK    4  A    between atoms: N_5  and  C_7
REMARK    5  A    between atoms: C_7  and  C_8
REMARK    6  A    between atoms: C_8  and  C_9
REMARK    7  A    between atoms: N_11  and  C_12
REMARK    8  A    between atoms: C_15  and  C_18
REMARK    9  A    between atoms: S_24  and  N_27
REMARK   10  A    between atoms: C_30  and  C_33
REMARK                            x       y       z     vdW  Elec       q    Type
REMARK                         _______ _______ _______ _____ _____    ______ ____
ROOT
ATOM      1  C   UNL     1      -0.009   1.493  -0.020  0.00  0.00    +0.069 C 
ATOM      2  C   UNL     1       0.007  -0.014  -0.019  0.00  0.00    +0.087 A 
ATOM      3  C   UNL     1       0.005  -0.834  -1.152  0.00  0.00    +0.148 A 
ATOM      4  C   UNL     1       0.023  -2.121  -0.734  0.00  0.00    +0.063 A 
ATOM      5  N   UNL     1       0.035  -2.115   0.616  0.00  0.00    -0.266 N 
ATOM      6  N   UNL     1       0.029  -0.780   1.041  0.00  0.00    -0.174 NA
ATOM      7  C   UNL     1       0.028  -3.342  -1.617  0.00  0.00    +0.067 C 
ENDROOT
BRANCH   3   8
ATOM      8  S   UNL     1      -0.016  -0.289  -2.827  0.00  0.00    +0.064 S 
ATOM      9  O   UNL     1      -0.562  -1.353  -3.594  0.00  0.00    -0.153 OA
ATOM     10  O   UNL     1      -0.581   1.015  -2.823  0.00  0.00    -0.153 OA
BRANCH   8  11
ATOM     11  N   UNL     1       1.560  -0.120  -3.308  0.00  0.00    -0.176 NA
ATOM     12  C   UNL     1       2.265   1.156  -3.127  0.00  0.00    +0.110 C 
ATOM     13  C   UNL     1       2.850   1.591  -4.475  0.00  0.00    +0.020 C 
ATOM     14  C   UNL     1       3.722   0.464  -5.034  0.00  0.00    -0.012 C 
ATOM     15  C   UNL     1       2.865  -0.783  -5.260  0.00  0.00    +0.020 C 
ATOM     16  C   UNL     1       2.281  -1.246  -3.916  0.00  0.00    +0.110 C 
ATOM     17  C   UNL     1       4.336   0.908  -6.364  0.00  0.00    +0.007 C 
ENDBRANCH   8  11
ENDBRANCH   3   8
BRANCH   5  18
ATOM     18  C   UNL     1       0.055  -3.296   1.483  0.00  0.00    +0.153 C 
BRANCH  18  19
ATOM     19  C   UNL     1       1.505  -3.691   1.772  0.00  0.00    +0.119 C 
BRANCH  19  20
ATOM     20  C   UNL     1       1.526  -4.906   2.664  0.00  0.00    +0.219 C 
ATOM     21  O   UNL     1       0.484  -5.406   3.032  0.00  0.00    -0.275 OA
ATOM     22  N   UNL     1       2.702  -5.436   3.052  0.00  0.00    -0.285 N 
ATOM     23  H   UNL     1       3.534  -5.079   2.705  0.00  0.00    +0.155 HD
BRANCH  22  24
ATOM     24  C   UNL     1       2.723  -6.502   3.956  0.00  0.00    +0.033 A 
ATOM     25  C   UNL     1       1.724  -7.468   3.912  0.00  0.00    +0.024 A 
ATOM     26  C   UNL     1       1.742  -8.520   4.802  0.00  0.00    +0.013 A 
ATOM     27  C   UNL     1       2.766  -8.616   5.747  0.00  0.00    +0.020 A 
ATOM     28  C   UNL     1       3.768  -7.644   5.788  0.00  0.00    +0.013 A 
ATOM     29  C   UNL     1       3.747  -6.597   4.892  0.00  0.00    +0.024 A 
BRANCH  27  30
ATOM     30  C   UNL     1       2.788  -9.742   6.703  0.00  0.00    +0.167 A 
ATOM     31  C   UNL     1       3.718  -9.953   7.674  0.00  0.00    +0.072 A 
ATOM     32  C   UNL     1       3.373 -11.128   8.357  0.00  0.00    +0.157 A 
ATOM     33  N   UNL     1       2.284 -11.607   7.823  0.00  0.00    -0.086 NA
ATOM     34  O   UNL     1       1.889 -10.742   6.773  0.00  0.00    -0.355 OA
ENDBRANCH  27  30
ENDBRANCH  22  24
ENDBRANCH  19  20
ENDBRANCH  18  19
ENDBRANCH   5  18
TORSDOF 7
