REMARK  Name = ZINC15859384
REMARK  5 active torsions:
REMARK  status: ('A' for Active; 'I' for Inactive)
REMARK    1  A    between atoms: C_7  and  N_24
REMARK    2  A    between atoms: C_8  and  C_10
REMARK    3  A    between atoms: C_10  and  C_12
REMARK    4  A    between atoms: C_10  and  N_54
REMARK    5  A    between atoms: C_25  and  C_27
REMARK                            x       y       z     vdW  Elec       q    Type
REMARK                         _______ _______ _______ _____ _____    ______ ____
ROOT
ATOM      1  C   UNL     1      -0.496   3.819  -3.313  0.00  0.00    +0.001 A 
ATOM      2  C   UNL     1       0.770   4.122  -2.832  0.00  0.00    +0.004 A 
ATOM      3  C   UNL     1       0.965   4.404  -1.497  0.00  0.00    +0.047 A 
ATOM      4  C   UNL     1      -0.114   4.387  -0.621  0.00  0.00    +0.137 A 
ATOM      5  C   UNL     1      -1.393   4.080  -1.115  0.00  0.00    +0.042 A 
ATOM      6  C   UNL     1      -1.572   3.802  -2.469  0.00  0.00    +0.013 A 
ATOM      7  C   UNL     1      -2.291   4.147   0.047  0.00  0.00    +0.082 A 
ATOM      8  C   UNL     1      -1.517   4.473   1.098  0.00  0.00    +0.118 A 
ATOM      9  O   UNL     1      -0.237   4.614   0.702  0.00  0.00    -0.459 OA
ENDROOT
BRANCH   7  10
ATOM     10  N   UNL     1      -3.676   3.916   0.059  0.00  0.00    -0.278 N 
ATOM     11  C   UNL     1      -4.150   2.671   0.260  0.00  0.00    +0.255 C 
ATOM     12  O   UNL     1      -3.383   1.762   0.521  0.00  0.00    -0.269 OA
ATOM     13  H   UNL     1      -4.292   4.653  -0.078  0.00  0.00    +0.155 HD
BRANCH  11  14
ATOM     14  C   UNL     1      -5.590   2.410   0.164  0.00  0.00    +0.074 A 
ATOM     15  C   UNL     1      -6.274   1.217   0.333  0.00  0.00    +0.021 A 
ATOM     16  C   UNL     1      -7.639   1.253   0.186  0.00  0.00    +0.008 A 
ATOM     17  C   UNL     1      -8.243   2.433  -0.112  0.00  0.00    +0.046 A 
ATOM     18  S   UNL     1      -6.917   3.547  -0.193  0.00  0.00    -0.092 S 
ENDBRANCH  11  14
ENDBRANCH   7  10
BRANCH   8  19
ATOM     19  C   UNL     1      -2.009   4.654   2.510  0.00  0.00    +0.032 C 
BRANCH  19  20
ATOM     20  C   UNL     1      -2.054   6.124   2.842  0.00  0.00    -0.054 A 
ATOM     21  C   UNL     1      -0.896   6.787   3.203  0.00  0.00    +0.004 A 
ATOM     22  C   UNL     1      -0.936   8.136   3.501  0.00  0.00    +0.020 A 
ATOM     23  C   UNL     1      -2.138   8.820   3.450  0.00  0.00    +0.041 A 
ATOM     24  C   UNL     1      -3.297   8.155   3.095  0.00  0.00    +0.020 A 
ATOM     25  C   UNL     1      -3.255   6.807   2.791  0.00  0.00    +0.004 A 
ATOM     26 CL   UNL     1      -2.190  10.513   3.833  0.00  0.00    -0.084 Cl
ENDBRANCH  19  20
BRANCH  19  32
ATOM     27  C   UNL     1      -0.951   2.554   3.083  0.00  0.00    -0.077 C 
ATOM     28  C   UNL     1       0.113   1.911   3.976  0.00  0.00    -0.019 C 
ATOM     29  C   UNL     1      -0.308   2.048   5.442  0.00  0.00    -0.004 C 
ATOM     30  C   UNL     1      -0.501   3.530   5.773  0.00  0.00    -0.019 C 
ATOM     31  C   UNL     1      -1.547   4.127   4.827  0.00  0.00    -0.077 C 
ATOM     32  N   UNL     1      -1.071   3.985   3.435  0.00  0.00    +0.389 N 
ATOM     33  H   UNL     1      -0.148   4.427   3.352  0.00  0.00    -0.080 HD
ENDBRANCH  19  32
ENDBRANCH   8  19
TORSDOF 5
