REMARK  Name = ZINC40036213
REMARK  13 active torsions:
REMARK  status: ('A' for Active; 'I' for Inactive)
REMARK    1  A    between atoms: C_1  and  C_2
REMARK    2  A    between atoms: C_2  and  C_3
REMARK    3  A    between atoms: C_3  and  C_4
REMARK    4  A    between atoms: C_4  and  C_40
REMARK    5  A    between atoms: N_16  and  C_33
REMARK    6  A    between atoms: N_19  and  N_20
REMARK    7  A    between atoms: C_21  and  C_22
REMARK    8  A    between atoms: C_25  and  N_28
REMARK    9  A    between atoms: N_28  and  C_29
REMARK   10  A    between atoms: N_28  and  C_31
REMARK   11  A    between atoms: C_29  and  C_30
REMARK   12  A    between atoms: C_31  and  C_32
REMARK   13  A    between atoms: C_36  and  C_39
REMARK                            x       y       z     vdW  Elec       q    Type
REMARK                         _______ _______ _______ _____ _____    ______ ____
ROOT
ATOM      1  C   UNL     1      -1.110   0.104   0.705  0.00  0.00    +0.004 C 
ATOM      2  C   UNL     1      -2.344   0.370   1.563  0.00  0.00    +0.047 C 
ATOM      3  C   UNL     1      -2.008   1.299   2.699  0.00  0.00    -0.037 A 
ATOM      4  C   UNL     1      -2.929   2.229   3.137  0.00  0.00    +0.004 A 
ATOM      5  C   UNL     1      -2.614   3.076   4.184  0.00  0.00    +0.000 A 
ATOM      6  C   UNL     1      -1.377   2.999   4.800  0.00  0.00    +0.001 A 
ATOM      7  C   UNL     1      -0.447   2.073   4.371  0.00  0.00    +0.010 A 
ATOM      8  C   UNL     1      -0.759   1.220   3.316  0.00  0.00    +0.004 A 
ATOM      9  C   UNL     1       0.222   0.225   2.827  0.00  0.00    +0.084 A 
ATOM     10  C   UNL     1       0.049  -0.320   1.562  0.00  0.00    +0.050 A 
ATOM     11  C   UNL     1       0.973  -1.268   1.104  0.00  0.00    +0.264 A 
ATOM     12  O   UNL     1       0.853  -1.772  -0.001  0.00  0.00    -0.267 OA
ATOM     13  N   UNL     1       1.999  -1.614   1.911  0.00  0.00    -0.248 N 
ATOM     14  C   UNL     1       2.125  -1.043   3.144  0.00  0.00    +0.223 A 
ATOM     15  N   UNL     1       1.259  -0.152   3.581  0.00  0.00    -0.214 NA
ATOM     16  N   UNL     1       3.176  -1.406   3.946  0.00  0.00    -0.206 N 
ATOM     17  C   UNL     1      -1.425  -1.005  -0.301  0.00  0.00    +0.017 C 
ATOM     18  H   UNL     1       3.823  -2.057   3.632  0.00  0.00    +0.177 HD
ENDROOT
BRANCH  13  19
ATOM     19  C   UNL     1       2.936  -2.562   1.482  0.00  0.00    +0.053 A 
ATOM     20  C   UNL     1       2.743  -3.908   1.762  0.00  0.00    +0.026 A 
ATOM     21  C   UNL     1       3.669  -4.840   1.337  0.00  0.00    +0.005 A 
ATOM     22  C   UNL     1       4.787  -4.434   0.632  0.00  0.00    -0.050 A 
ATOM     23  C   UNL     1       4.982  -3.094   0.350  0.00  0.00    +0.005 A 
ATOM     24  C   UNL     1       4.057  -2.158   0.769  0.00  0.00    +0.026 A 
ATOM     25  C   UNL     1       5.796  -5.454   0.169  0.00  0.00    +0.044 C 
ENDBRANCH  13  19
BRANCH  16  26
ATOM     26  N   UNL     1       3.316  -0.836   5.218  0.00  0.00    -0.188 NA
ATOM     27  C   UNL     1       4.311  -1.179   5.977  0.00  0.00    +0.138 C 
BRANCH  27  28
ATOM     28  C   UNL     1       4.458  -0.579   7.315  0.00  0.00    -0.005 A 
ATOM     29  C   UNL     1       3.524   0.355   7.771  0.00  0.00    +0.011 A 
ATOM     30  C   UNL     1       3.665   0.914   9.022  0.00  0.00    +0.024 A 
ATOM     31  C   UNL     1       4.735   0.550   9.832  0.00  0.00    +0.030 A 
ATOM     32  C   UNL     1       5.667  -0.380   9.382  0.00  0.00    +0.024 A 
ATOM     33  C   UNL     1       5.529  -0.947   8.134  0.00  0.00    +0.011 A 
BRANCH  31  34
ATOM     34  N   UNL     1       4.875   1.118  11.098  0.00  0.00    -0.330 N 
BRANCH  34  35
ATOM     35  C   UNL     1       6.002   0.735  11.953  0.00  0.00    +0.102 C 
ATOM     36  C   UNL     1       7.184   1.668  11.685  0.00  0.00    +0.024 C 
ENDBRANCH  34  35
BRANCH  34  37
ATOM     37  C   UNL     1       3.894   2.097  11.574  0.00  0.00    +0.102 C 
ATOM     38  C   UNL     1       2.763   1.372  12.305  0.00  0.00    +0.024 C 
ENDBRANCH  34  37
ENDBRANCH  31  34
ENDBRANCH  27  28
ENDBRANCH  16  26
BRANCH   1  39
ATOM     39  C   UNL     1      -0.737   1.380  -0.051  0.00  0.00    +0.011 C 
BRANCH  39  41
ATOM     40  C   UNL     1       0.856   2.388  -1.692  0.00  0.00    +0.004 C 
ATOM     41  C   UNL     1       0.483   1.111  -0.935  0.00  0.00    -0.003 C 
ENDBRANCH  39  41
ENDBRANCH   1  39
TORSDOF 8
