REMARK  Name = ZINC57444002
REMARK  8 active torsions:
REMARK  status: ('A' for Active; 'I' for Inactive)
REMARK    1  A    between atoms: C_4  and  C_7
REMARK    2  A    between atoms: C_7  and  N_8
REMARK    3  A    between atoms: N_8  and  C_9
REMARK    4  A    between atoms: C_9  and  C_10
REMARK    5  A    between atoms: C_14  and  C_16
REMARK    6  A    between atoms: C_16  and  C_17
REMARK    7  A    between atoms: C_17  and  C_19
REMARK    8  A    between atoms: C_17  and  N_24
REMARK                            x       y       z     vdW  Elec       q    Type
REMARK                         _______ _______ _______ _____ _____    ______ ____
ROOT
ATOM      1  N   UNL     1       4.152  -0.952   1.338  0.00  0.00    -0.297 N 
ATOM      2  C   UNL     1       4.924  -0.047   1.970  0.00  0.00    +0.218 C 
ATOM      3  O   UNL     1       5.255   0.972   1.400  0.00  0.00    -0.276 OA
ENDROOT
BRANCH   1   4
ATOM      4  C   UNL     1       3.711  -0.707  -0.038  0.00  0.00    +0.142 C 
BRANCH   4   8
ATOM      5  C   UNL     1      -0.017   1.378   0.010  0.00  0.00    +0.000 A 
ATOM      6  C   UNL     1       1.171   2.086   0.002  0.00  0.00    +0.000 A 
ATOM      7  C   UNL     1       2.377   1.411  -0.013  0.00  0.00    +0.005 A 
ATOM      8  C   UNL     1       2.396   0.029  -0.020  0.00  0.00    -0.030 A 
ATOM      9  C   UNL     1       1.208  -0.679  -0.012  0.00  0.00    +0.005 A 
ATOM     10  C   UNL     1       0.002  -0.004   0.002  0.00  0.00    +0.000 A 
ENDBRANCH   4   8
ENDBRANCH   1   4
BRANCH   1  11
ATOM     11  C   UNL     1       3.753  -2.182   2.027  0.00  0.00    +0.111 C 
BRANCH  11  12
ATOM     12  C   UNL     1       4.796  -3.272   1.770  0.00  0.00    +0.006 C 
ATOM     13  C   UNL     1       4.538  -4.082   0.488  0.00  0.00    +0.005 C 
ATOM     14  C   UNL     1       4.968  -5.327   1.282  0.00  0.00    +0.001 C 
ATOM     15  C   UNL     1       4.534  -4.571   2.549  0.00  0.00    +0.005 C 
ENDBRANCH  11  12
ENDBRANCH   1  11
BRANCH   2  16
ATOM     16  C   UNL     1       5.378  -0.299   3.385  0.00  0.00    +0.123 C 
BRANCH  16  17
ATOM     17  C   UNL     1       6.235   0.875   3.862  0.00  0.00    +0.120 C 
BRANCH  17  18
ATOM     18  N   UNL     1       5.413   2.085   3.929  0.00  0.00    -0.292 N 
ATOM     19  C   UNL     1       5.990   3.299   3.825  0.00  0.00    +0.298 C 
ATOM     20  O   UNL     1       7.194   3.389   3.676  0.00  0.00    -0.253 OA
ATOM     21  N   UNL     1       5.234   4.412   3.886  0.00  0.00    -0.313 N 
ATOM     22  H   UNL     1       4.453   2.014   4.048  0.00  0.00    +0.151 HD
ATOM     23  H   UNL     1       4.274   4.341   4.005  0.00  0.00    +0.146 HD
ATOM     24  H   UNL     1       5.649   5.286   3.812  0.00  0.00    +0.146 HD
ENDBRANCH  17  18
BRANCH  17  25
ATOM     25  C   UNL     1       6.789   0.568   5.230  0.00  0.00    +0.010 A 
ATOM     26  C   UNL     1       8.025   0.128   5.571  0.00  0.00    +0.013 A 
ATOM     27  C   UNL     1       8.315  -0.087   6.905  0.00  0.00    +0.008 A 
ATOM     28  C   UNL     1       7.355   0.147   7.833  0.00  0.00    +0.045 A 
ATOM     29  S   UNL     1       5.991   0.697   6.821  0.00  0.00    -0.100 S 
ENDBRANCH  17  25
ENDBRANCH  16  17
ENDBRANCH   2  16
TORSDOF 8
