REMARK  Name = ZINC04955856
REMARK  11 active torsions:
REMARK  status: ('A' for Active; 'I' for Inactive)
REMARK    1  A    between atoms: C_1  and  C_2
REMARK    2  A    between atoms: C_4  and  C_28
REMARK    3  A    between atoms: C_5  and  C_9
REMARK    4  A    between atoms: C_6  and  C_8
REMARK    5  A    between atoms: C_9  and  C_11
REMARK    6  A    between atoms: C_9  and  C_23
REMARK    7  A    between atoms: C_11  and  C_12
REMARK    8  A    between atoms: C_12  and  C_18
REMARK    9  A    between atoms: N_13  and  N_14
REMARK   10  A    between atoms: C_23  and  C_24
REMARK   11  A    between atoms: C_23  and  C_26
REMARK                            x       y       z     vdW  Elec       q    Type
REMARK                         _______ _______ _______ _____ _____    ______ ____
ROOT
ATOM      1  C   UNL     1      -2.474   1.390   0.200  0.00  0.00    +0.056 C 
ENDROOT
BRANCH   1   6
ATOM      2  C   UNL     1       2.427   4.432  -0.137  0.00  0.00    +0.044 C 
ATOM      3  C   UNL     1       1.149   3.638  -0.052  0.00  0.00    -0.050 A 
ATOM      4  C   UNL     1      -0.068   4.264  -0.246  0.00  0.00    +0.007 A 
ATOM      5  C   UNL     1      -1.240   3.536  -0.169  0.00  0.00    -0.046 A 
ATOM      6  C   UNL     1      -1.196   2.182   0.109  0.00  0.00    -0.036 A 
ATOM      7  C   UNL     1       0.021   1.555   0.299  0.00  0.00    -0.046 A 
ATOM      8  C   UNL     1       1.194   2.283   0.221  0.00  0.00    +0.007 A 
ATOM      9  C   UNL     1       0.070   0.079   0.596  0.00  0.00    +0.044 C 
ATOM     10  C   UNL     1      -2.567   4.219  -0.381  0.00  0.00    +0.044 C 
ENDBRANCH   1   6
BRANCH   1  11
ATOM     11  C   UNL     1      -3.269   1.842   1.427  0.00  0.00    +0.068 C 
BRANCH  11  12
ATOM     12  C   UNL     1      -2.519   1.462   2.678  0.00  0.00    +0.074 C 
ATOM     13  N   UNL     1      -2.656   0.272   3.183  0.00  0.00    -0.183 NA
BRANCH  13  14
ATOM     14  N   UNL     1      -3.417  -0.692   2.507  0.00  0.00    -0.191 N 
ATOM     15  C   UNL     1      -3.645  -1.891   3.078  0.00  0.00    +0.317 C 
ATOM     16  O   UNL     1      -4.305  -2.728   2.492  0.00  0.00    -0.251 OA
ATOM     17  N   UNL     1      -3.140  -2.164   4.297  0.00  0.00    -0.312 N 
ATOM     18  H   UNL     1      -3.780  -0.495   1.630  0.00  0.00    +0.179 HD
ATOM     19  H   UNL     1      -2.614  -1.497   4.765  0.00  0.00    +0.147 HD
ATOM     20  H   UNL     1      -3.304  -3.028   4.708  0.00  0.00    +0.147 HD
ENDBRANCH  13  14
BRANCH  12  21
ATOM     21  C   UNL     1      -1.634   2.436   3.327  0.00  0.00    +0.035 A 
ATOM     22  C   UNL     1      -0.785   2.261   4.405  0.00  0.00    +0.017 A 
ATOM     23  C   UNL     1      -0.046   3.338   4.837  0.00  0.00    +0.008 A 
ATOM     24  C   UNL     1      -0.171   4.530   4.198  0.00  0.00    +0.046 A 
ATOM     25  S   UNL     1      -1.365   4.155   2.925  0.00  0.00    -0.095 S 
ENDBRANCH  12  21
ENDBRANCH  11  12
ENDBRANCH   1  11
BRANCH   1  26
ATOM     26  C   UNL     1      -3.309   1.622  -1.062  0.00  0.00    +0.201 C 
BRANCH  26  27
ATOM     27  C   UNL     1      -2.581   1.107  -2.233  0.00  0.00    +0.081 C 
ATOM     28  N   UNL     1      -2.019   0.710  -3.137  0.00  0.00    -0.195 NA
ENDBRANCH  26  27
BRANCH  26  29
ATOM     29  C   UNL     1      -4.596   0.918  -0.935  0.00  0.00    +0.081 C 
ATOM     30  N   UNL     1      -5.588   0.375  -0.837  0.00  0.00    -0.195 NA
ENDBRANCH  26  29
ENDBRANCH   1  26
TORSDOF 8
