REMARK  Name = ZINC08917526
REMARK  8 active torsions:
REMARK  status: ('A' for Active; 'I' for Inactive)
REMARK    1  A    between atoms: C_1  and  C_2
REMARK    2  A    between atoms: C_5  and  C_8
REMARK    3  A    between atoms: N_23  and  C_24
REMARK    4  A    between atoms: C_24  and  C_25
REMARK    5  A    between atoms: C_25  and  C_27
REMARK    6  A    between atoms: C_25  and  N_70
REMARK    7  A    between atoms: C_30  and  O_33
REMARK    8  A    between atoms: O_33  and  C_34
REMARK                            x       y       z     vdW  Elec       q    Type
REMARK                         _______ _______ _______ _____ _____    ______ ____
ROOT
ATOM      1  C   UNL     1       0.562  -5.178   1.063  0.00  0.00    +0.144 C 
ATOM      2  C   UNL     1       1.322  -6.444   0.765  0.00  0.00    +0.072 A 
ATOM      3  C   UNL     1       0.921  -7.853   0.710  0.00  0.00    +0.199 A 
ATOM      4  O   UNL     1      -0.226  -8.201   0.930  0.00  0.00    -0.287 OA
ATOM      5  C   UNL     1       1.977  -8.829   0.376  0.00  0.00    +0.064 A 
ATOM      6  C   UNL     1       1.706 -10.194   0.295  0.00  0.00    +0.015 A 
ATOM      7  C   UNL     1       2.712 -11.066  -0.019  0.00  0.00    +0.001 A 
ATOM      8  C   UNL     1       3.997 -10.597  -0.257  0.00  0.00    +0.004 A 
ATOM      9  C   UNL     1       4.282  -9.251  -0.181  0.00  0.00    +0.047 A 
ATOM     10  C   UNL     1       3.274  -8.345   0.136  0.00  0.00    +0.139 A 
ATOM     11  O   UNL     1       3.536  -7.028   0.213  0.00  0.00    -0.450 OA
ATOM     12  C   UNL     1       2.608  -6.098   0.514  0.00  0.00    +0.199 A 
ATOM     13  C   UNL     1       2.727  -4.623   0.633  0.00  0.00    +0.283 C 
ATOM     14  O   UNL     1       3.751  -3.992   0.464  0.00  0.00    -0.267 OA
ATOM     15  N   UNL     1       1.538  -4.086   0.958  0.00  0.00    -0.285 N 
ENDROOT
BRANCH   1  20
ATOM     16  C   UNL     1      -1.626  -5.383   6.408  0.00  0.00    +0.044 C 
ATOM     17  C   UNL     1      -1.055  -5.330   5.014  0.00  0.00    -0.050 A 
ATOM     18  C   UNL     1      -1.875  -5.549   3.923  0.00  0.00    +0.004 A 
ATOM     19  C   UNL     1      -1.351  -5.500   2.644  0.00  0.00    +0.006 A 
ATOM     20  C   UNL     1      -0.008  -5.231   2.457  0.00  0.00    -0.022 A 
ATOM     21  C   UNL     1       0.812  -5.017   3.549  0.00  0.00    +0.006 A 
ATOM     22  C   UNL     1       0.288  -5.061   4.827  0.00  0.00    +0.004 A 
ENDBRANCH   1  20
BRANCH  15  23
ATOM     23  C   UNL     1       1.264  -2.662   1.164  0.00  0.00    +0.098 C 
BRANCH  23  24
ATOM     24  C   UNL     1       0.686  -2.063  -0.120  0.00  0.00    -0.020 C 
BRANCH  24  30
ATOM     25  C   UNL     1       1.528  -1.209  -2.223  0.00  0.00    -0.078 C 
ATOM     26  C   UNL     1       2.615  -1.396  -3.284  0.00  0.00    -0.019 C 
ATOM     27  C   UNL     1       2.433  -2.758  -3.960  0.00  0.00    -0.004 C 
ATOM     28  C   UNL     1       2.489  -3.858  -2.896  0.00  0.00    -0.019 C 
ATOM     29  C   UNL     1       1.406  -3.600  -1.846  0.00  0.00    -0.078 C 
ATOM     30  N   UNL     1       1.651  -2.285  -1.216  0.00  0.00    +0.385 N 
ATOM     31  H   UNL     1       2.603  -2.273  -0.831  0.00  0.00    -0.081 HD
ENDBRANCH  24  30
BRANCH  24  32
ATOM     32  C   UNL     1       0.473  -0.583   0.068  0.00  0.00    -0.059 A 
ATOM     33  C   UNL     1      -0.806  -0.060   0.032  0.00  0.00    +0.005 A 
ATOM     34  C   UNL     1      -1.004   1.296   0.204  0.00  0.00    +0.046 A 
ATOM     35  C   UNL     1       0.082   2.134   0.414  0.00  0.00    +0.120 A 
ATOM     36  C   UNL     1       1.365   1.606   0.450  0.00  0.00    +0.046 A 
ATOM     37  C   UNL     1       1.557   0.249   0.277  0.00  0.00    +0.005 A 
BRANCH  35  38
ATOM     38  O   UNL     1      -0.110   3.468   0.583  0.00  0.00    -0.495 OA
ATOM     39  C   UNL     1       1.054   4.270   0.795  0.00  0.00    +0.277 C 
ENDBRANCH  35  38
ENDBRANCH  24  32
ENDBRANCH  23  24
ENDBRANCH  15  23
TORSDOF 6
