REMARK  Name = ZINC04394446
REMARK  8 active torsions:
REMARK  status: ('A' for Active; 'I' for Inactive)
REMARK    1  A    between atoms: C_1  and  C_2
REMARK    2  A    between atoms: C_2  and  C_3
REMARK    3  A    between atoms: C_3  and  O_5
REMARK    4  A    between atoms: O_5  and  N_6
REMARK    5  A    between atoms: C_7  and  C_8
REMARK    6  A    between atoms: C_11  and  O_17
REMARK    7  A    between atoms: C_12  and  N_14
REMARK    8  A    between atoms: O_17  and  C_18
REMARK                            x       y       z     vdW  Elec       q    Type
REMARK                         _______ _______ _______ _____ _____    ______ ____
ROOT
ATOM      1  C   UNL     1      -4.815  -3.797  -0.251  0.00  0.00    +0.020 A 
ATOM      2  C   UNL     1      -5.777  -2.812  -0.022  0.00  0.00    +0.015 A 
ATOM      3  C   UNL     1      -7.106  -3.160   0.081  0.00  0.00    +0.049 A 
ATOM      4  C   UNL     1      -7.489  -4.490  -0.042  0.00  0.00    +0.159 A 
ATOM      5  C   UNL     1      -6.534  -5.473  -0.269  0.00  0.00    +0.169 A 
ATOM      6  C   UNL     1      -5.204  -5.131  -0.380  0.00  0.00    +0.048 A 
ENDROOT
BRANCH   1   8
ATOM      7  N   UNL     1      -3.026  -2.182  -0.241  0.00  0.00    -0.059 NA
ATOM      8  C   UNL     1      -3.387  -3.427  -0.362  0.00  0.00    +0.163 C 
ATOM      9  N   UNL     1      -2.436  -4.404  -0.594  0.00  0.00    -0.340 N 
ATOM     10  H   UNL     1      -1.499  -4.161  -0.667  0.00  0.00    +0.144 HD
ATOM     11  H   UNL     1      -2.705  -5.332  -0.684  0.00  0.00    +0.144 HD
BRANCH   7  12
ATOM     12  O   UNL     1      -1.659  -1.828  -0.348  0.00  0.00    -0.316 OA
BRANCH  12  13
ATOM     13  C   UNL     1      -1.422  -0.515  -0.205  0.00  0.00    +0.336 C 
ATOM     14  O   UNL     1      -2.343   0.248  -0.004  0.00  0.00    -0.248 OA
BRANCH  13  16
ATOM     15  C   UNL     1      -0.021   1.528  -0.097  0.00  0.00    +0.015 C 
ATOM     16  C   UNL     1      -0.013   0.011  -0.294  0.00  0.00    +0.120 C 
ENDBRANCH  13  16
ENDBRANCH  12  13
ENDBRANCH   7  12
ENDBRANCH   1   8
BRANCH   5  17
ATOM     17  N   UNL     1      -6.947  -6.889  -0.399  0.00  0.00    +0.060 N 
ATOM     18  O   UNL     1      -6.117  -7.745  -0.597  0.00  0.00    -0.126 OA
ATOM     19  O   UNL     1      -8.114  -7.189  -0.307  0.00  0.00    -0.126 OA
ENDBRANCH   5  17
BRANCH   4  20
ATOM     20  O   UNL     1      -8.799  -4.830   0.062  0.00  0.00    -0.451 OA
BRANCH  20  21
ATOM     21  C   UNL     1      -9.712  -3.828   0.175  0.00  0.00    +0.164 A 
ATOM     22  C   UNL     1     -10.141  -3.418   1.429  0.00  0.00    +0.052 A 
ATOM     23  C   UNL     1     -11.068  -2.400   1.543  0.00  0.00    +0.042 A 
ATOM     24  C   UNL     1     -11.569  -1.788   0.406  0.00  0.00    +0.126 A 
ATOM     25  C   UNL     1     -11.143  -2.194  -0.846  0.00  0.00    +0.080 A 
ATOM     26  C   UNL     1     -10.210  -3.209  -0.964  0.00  0.00    +0.168 A 
ATOM     27  F   UNL     1      -9.790  -3.603  -2.187  0.00  0.00    -0.202 F 
ATOM     28  F   UNL     1     -12.476  -0.792   0.521  0.00  0.00    -0.205 F 
ENDBRANCH  20  21
ENDBRANCH   4  20
TORSDOF 7
