REMARK  Name = ZINC08277376
REMARK  7 active torsions:
REMARK  status: ('A' for Active; 'I' for Inactive)
REMARK    1  A    between atoms: C_1  and  C_2
REMARK    2  A    between atoms: C_8  and  N_10
REMARK    3  A    between atoms: C_11  and  C_13
REMARK    4  A    between atoms: C_13  and  N_14
REMARK    5  A    between atoms: C_15  and  C_17
REMARK    6  A    between atoms: C_17  and  N_18
REMARK    7  A    between atoms: C_19  and  C_21
REMARK                            x       y       z     vdW  Elec       q    Type
REMARK                         _______ _______ _______ _____ _____    ______ ____
ROOT
ATOM      1  N   UNL     1      -0.011   0.966   0.007  0.00  0.00    -0.305 N 
ATOM      2  C   UNL     1       1.147   1.655   0.000  0.00  0.00    +0.231 C 
ATOM      3  O   UNL     1       1.130   2.868   0.007  0.00  0.00    -0.274 OA
ATOM      4  H   UNL     1       0.002  -0.004   0.002  0.00  0.00    +0.149 HD
ENDROOT
BRANCH   1   5
ATOM      5  C   UNL     1      -1.290   1.681   0.017  0.00  0.00    +0.200 C 
BRANCH   5   7
ATOM      6  N   UNL     1      -3.698   1.118   0.026  0.00  0.00    -0.311 N 
ATOM      7  C   UNL     1      -2.422   0.686   0.017  0.00  0.00    +0.230 C 
ATOM      8  O   UNL     1      -2.184  -0.503   0.010  0.00  0.00    -0.274 OA
ATOM      9  H   UNL     1      -3.889   2.069   0.032  0.00  0.00    +0.149 HD
BRANCH   6  16
ATOM     10  C   UNL     1      -5.735   1.216   2.083  0.00  0.00    +0.009 C 
ATOM     11  C   UNL     1      -6.042   0.793   0.645  0.00  0.00    +0.006 C 
ATOM     12  C   UNL     1      -6.443   2.022  -0.174  0.00  0.00    +0.005 C 
ATOM     13  C   UNL     1      -6.750   1.599  -1.612  0.00  0.00    +0.000 C 
ATOM     14  C   UNL     1      -5.506   0.957  -2.231  0.00  0.00    +0.002 C 
ATOM     15  C   UNL     1      -5.106  -0.272  -1.412  0.00  0.00    +0.022 C 
ATOM     16  C   UNL     1      -4.799   0.151   0.026  0.00  0.00    +0.076 C 
ENDBRANCH   6  16
ENDBRANCH   5   7
ENDBRANCH   1   5
BRANCH   2  17
ATOM     17  C   UNL     1       2.462   0.920  -0.017  0.00  0.00    +0.200 C 
BRANCH  17  18
ATOM     18  N   UNL     1       3.562   1.887  -0.022  0.00  0.00    -0.303 N 
ATOM     19  C   UNL     1       4.839   1.455  -0.036  0.00  0.00    +0.246 C 
ATOM     20  O   UNL     1       5.077   0.263  -0.045  0.00  0.00    -0.270 OA
ATOM     21  H   UNL     1       3.372   2.838  -0.015  0.00  0.00    +0.150 HD
BRANCH  19  22
ATOM     22  C   UNL     1       5.949   2.430  -0.042  0.00  0.00    +0.055 A 
ATOM     23  C   UNL     1       5.678   3.800  -0.037  0.00  0.00    +0.016 A 
ATOM     24  C   UNL     1       6.718   4.705  -0.038  0.00  0.00    +0.021 A 
ATOM     25  C   UNL     1       8.030   4.259  -0.052  0.00  0.00    +0.042 A 
ATOM     26  C   UNL     1       8.306   2.903  -0.062  0.00  0.00    +0.040 A 
ATOM     27  C   UNL     1       7.273   1.986  -0.057  0.00  0.00    +0.054 A 
ATOM     28 CL   UNL     1       7.620   0.285  -0.069  0.00  0.00    -0.083 Cl
ATOM     29 CL   UNL     1       9.332   5.406  -0.059  0.00  0.00    -0.083 Cl
ENDBRANCH  19  22
ENDBRANCH  17  18
ENDBRANCH   2  17
TORSDOF 6
