REMARK  Name = ZINC14470546
REMARK  7 active torsions:
REMARK  status: ('A' for Active; 'I' for Inactive)
REMARK    1  A    between atoms: C_4  and  C_7
REMARK    2  A    between atoms: C_7  and  C_8
REMARK    3  A    between atoms: C_8  and  N_9
REMARK    4  A    between atoms: N_9  and  S_10
REMARK    5  A    between atoms: S_10  and  C_13
REMARK    6  A    between atoms: C_26  and  C_29
REMARK    7  A    between atoms: C_33  and  N_35
REMARK                            x       y       z     vdW  Elec       q    Type
REMARK                         _______ _______ _______ _____ _____    ______ ____
ROOT
ATOM      1  C   UNL     1       0.253  -0.184  -3.061  0.00  0.00    +0.106 A 
ATOM      2  C   UNL     1       1.424  -0.820  -2.691  0.00  0.00    +0.030 A 
ATOM      3  C   UNL     1       1.607  -2.152  -3.002  0.00  0.00    +0.025 A 
ATOM      4  C   UNL     1       0.621  -2.846  -3.692  0.00  0.00    +0.031 A 
ATOM      5  C   UNL     1      -0.553  -2.212  -4.069  0.00  0.00    -0.018 A 
ATOM      6  C   UNL     1      -0.727  -0.873  -3.747  0.00  0.00    +0.034 A 
ATOM      7  C   UNL     1      -1.642  -2.919  -4.812  0.00  0.00    +0.049 C 
ATOM      8  C   UNL     1      -2.809  -3.235  -3.907  0.00  0.00    -0.023 C 
ATOM      9  C   UNL     1      -3.333  -4.393  -4.230  0.00  0.00    -0.030 C 
ATOM     10  C   UNL     1      -2.588  -5.005  -5.400  0.00  0.00    +0.033 C 
ATOM     11  C   UNL     1      -1.210  -4.300  -5.343  0.00  0.00    +0.029 C 
ATOM     12  C   UNL     1      -0.365  -5.024  -4.290  0.00  0.00    +0.105 C 
ATOM     13  N   UNL     1       0.809  -4.204  -3.977  0.00  0.00    -0.336 N 
ATOM     14  H   UNL     1       1.699  -4.590  -3.975  0.00  0.00    +0.147 HD
ENDROOT
BRANCH  12  15
ATOM     15  C   UNL     1      -1.184  -5.231  -3.042  0.00  0.00    -0.025 A 
ATOM     16  C   UNL     1      -1.349  -4.193  -2.144  0.00  0.00    +0.007 A 
ATOM     17  C   UNL     1      -2.100  -4.382  -0.999  0.00  0.00    +0.022 A 
ATOM     18  C   UNL     1      -2.686  -5.611  -0.752  0.00  0.00    +0.071 A 
ATOM     19  C   UNL     1      -2.520  -6.650  -1.651  0.00  0.00    +0.145 A 
ATOM     20  C   UNL     1      -1.773  -6.457  -2.798  0.00  0.00    +0.039 A 
ATOM     21 CL   UNL     1      -3.629  -5.850   0.686  0.00  0.00    -0.081 Cl
BRANCH  19  22
ATOM     22  N   UNL     1      -3.146  -7.964  -1.387  0.00  0.00    +0.058 N 
ATOM     23  O   UNL     1      -3.000  -8.878  -2.178  0.00  0.00    -0.126 OA
ATOM     24  O   UNL     1      -3.808  -8.132  -0.378  0.00  0.00    -0.126 OA
ENDBRANCH  19  22
ENDBRANCH  12  15
BRANCH   1  25
ATOM     25  S   UNL     1       0.013   1.515  -2.662  0.00  0.00    +0.058 S 
ATOM     26  O   UNL     1      -0.926   2.024  -3.599  0.00  0.00    -0.153 OA
ATOM     27  O   UNL     1       1.306   2.080  -2.496  0.00  0.00    -0.153 OA
BRANCH  25  28
ATOM     28  N   UNL     1      -0.721   1.571  -1.179  0.00  0.00    -0.190 NA
ATOM     29  H   UNL     1      -1.621   1.925  -1.096  0.00  0.00    +0.148 HD
BRANCH  28  30
ATOM     30  C   UNL     1      -0.013   1.086   0.008  0.00  0.00    +0.110 C 
BRANCH  30  31
ATOM     31  C   UNL     1      -0.729   1.579   1.267  0.00  0.00    +0.052 C 
BRANCH  31  35
ATOM     32  C   UNL     1       1.337   0.165   4.728  0.00  0.00    +0.000 A 
ATOM     33  C   UNL     1       1.681   1.380   4.166  0.00  0.00    +0.000 A 
ATOM     34  C   UNL     1       1.012   1.838   3.046  0.00  0.00    +0.003 A 
ATOM     35  C   UNL     1       0.000   1.080   2.488  0.00  0.00    -0.046 A 
ATOM     36  C   UNL     1      -0.347  -0.133   3.052  0.00  0.00    +0.003 A 
ATOM     37  C   UNL     1       0.324  -0.593   4.170  0.00  0.00    +0.000 A 
ENDBRANCH  31  35
ENDBRANCH  30  31
ENDBRANCH  28  30
ENDBRANCH  25  28
ENDBRANCH   1  25
TORSDOF 7
