REMARK  Name = ZINC19514652
REMARK  2 active torsions:
REMARK  status: ('A' for Active; 'I' for Inactive)
REMARK    1  A    between atoms: C_1  and  C_2
REMARK    2  A    between atoms: C_5  and  N_9
REMARK                            x       y       z     vdW  Elec       q    Type
REMARK                         _______ _______ _______ _____ _____    ______ ____
ROOT
ATOM      1  C   UNL     1       3.094   7.000   2.217  0.00  0.00    +0.044 C 
ATOM      2  C   UNL     1       2.631   5.693   1.628  0.00  0.00    -0.049 A 
ATOM      3  C   UNL     1       2.546   4.567   2.427  0.00  0.00    +0.005 A 
ATOM      4  C   UNL     1       2.122   3.368   1.891  0.00  0.00    +0.026 A 
ATOM      5  C   UNL     1       1.781   3.291   0.546  0.00  0.00    +0.065 A 
ATOM      6  C   UNL     1       1.873   4.423  -0.256  0.00  0.00    +0.041 A 
ATOM      7  C   UNL     1       2.292   5.621   0.289  0.00  0.00    +0.020 A 
ATOM      8 BR   UNL     1       1.417   4.323  -2.088  0.00  0.00    -0.048 Br
ENDROOT
BRANCH   5   9
ATOM      9  N   UNL     1       1.351   2.079   0.000  0.00  0.00    -0.206 N 
ATOM     10  C   UNL     1      -0.019   1.536   0.011  0.00  0.00    +0.133 C 
ATOM     11  C   UNL     1       0.002  -0.004   0.002  0.00  0.00    +0.045 C 
ATOM     12  C   UNL     1       1.052  -0.388  -1.084  0.00  0.00    +0.190 C 
ATOM     13  S   UNL     1       2.289   0.944  -0.801  0.00  0.00    +0.046 S 
ATOM     14  O   UNL     1       3.270   0.529   0.140  0.00  0.00    -0.155 OA
ATOM     15  O   UNL     1       2.660   1.555  -2.029  0.00  0.00    -0.155 OA
ENDBRANCH   5   9
TORSDOF 1
