REMARK  Name = ZINC01362057
REMARK  9 active torsions:
REMARK  status: ('A' for Active; 'I' for Inactive)
REMARK    1  A    between atoms: C_1  and  C_2
REMARK    2  A    between atoms: C_7  and  N_8
REMARK    3  A    between atoms: N_11  and  C_14
REMARK    4  A    between atoms: C_14  and  C_16
REMARK    5  A    between atoms: C_14  and  C_30
REMARK    6  A    between atoms: C_20  and  C_29
REMARK    7  A    between atoms: C_22  and  C_28
REMARK    8  A    between atoms: N_34  and  C_35
REMARK    9  A    between atoms: C_35  and  C_36
REMARK                            x       y       z     vdW  Elec       q    Type
REMARK                         _______ _______ _______ _____ _____    ______ ____
ROOT
ATOM      1  C   UNL     1      -0.009   3.518   4.679  0.00  0.00    +0.162 C 
ENDROOT
BRANCH   1   2
ATOM      2  C   UNL     1       1.252   3.792   5.457  0.00  0.00    +0.042 A 
ATOM      3  C   UNL     1       2.041   4.841   5.117  0.00  0.00    +0.021 A 
ATOM      4  C   UNL     1       3.260   5.080   5.894  0.00  0.00    -0.001 A 
ATOM      5  C   UNL     1       4.113   6.147   5.591  0.00  0.00    +0.013 A 
ATOM      6  C   UNL     1       5.242   6.343   6.335  0.00  0.00    -0.050 A 
ATOM      7  C   UNL     1       5.550   5.494   7.388  0.00  0.00    +0.008 A 
ATOM      8  C   UNL     1       4.724   4.436   7.705  0.00  0.00    -0.026 A 
ATOM      9  C   UNL     1       3.568   4.217   6.962  0.00  0.00    +0.052 A 
ATOM     10  N   UNL     1       2.724   3.168   7.256  0.00  0.00    -0.322 N 
ATOM     11  H   UNL     1       2.938   2.574   7.993  0.00  0.00    +0.169 HD
ATOM     12  C   UNL     1       1.605   2.959   6.541  0.00  0.00    +0.254 A 
ATOM     13  O   UNL     1       0.879   2.025   6.833  0.00  0.00    -0.268 OA
ATOM     14  C   UNL     1       5.072   3.522   8.851  0.00  0.00    +0.046 C 
ATOM     15  C   UNL     1       6.160   7.492   6.008  0.00  0.00    +0.044 C 
ENDBRANCH   1   2
BRANCH   1  19
ATOM     16  N   UNL     1       0.026  -0.016   2.415  0.00  0.00    -0.327 N 
ATOM     17  C   UNL     1      -1.235   0.335   3.087  0.00  0.00    +0.120 C 
ATOM     18  C   UNL     1      -1.207   1.830   3.424  0.00  0.00    +0.104 C 
ATOM     19  N   UNL     1       0.009   2.133   4.189  0.00  0.00    -0.286 NA
ATOM     20  C   UNL     1       1.217   1.872   3.395  0.00  0.00    +0.104 C 
ATOM     21  C   UNL     1       1.289   0.374   3.059  0.00  0.00    +0.120 C 
BRANCH  16  28
ATOM     22  C   UNL     1      -0.018   1.503   0.010  0.00  0.00    +0.045 C 
ATOM     23  C   UNL     1       0.002  -0.004   0.002  0.00  0.00    -0.029 A 
ATOM     24  C   UNL     1       0.006  -0.689  -1.198  0.00  0.00    +0.006 A 
ATOM     25  C   UNL     1       0.024  -2.071  -1.207  0.00  0.00    +0.020 A 
ATOM     26  C   UNL     1       0.040  -2.774  -0.014  0.00  0.00    +0.043 A 
ATOM     27  C   UNL     1       0.035  -2.095   1.189  0.00  0.00    +0.043 A 
ATOM     28  C   UNL     1       0.023  -0.706   1.201  0.00  0.00    +0.034 A 
ATOM     29 CL   UNL     1       0.063  -4.509  -0.031  0.00  0.00    -0.083 Cl
ENDBRANCH  16  28
ENDBRANCH   1  19
BRANCH   1  30
ATOM     30  C   UNL     1      -1.205   3.718   5.574  0.00  0.00    +0.173 A 
ATOM     31  N   UNL     1      -1.615   2.914   6.524  0.00  0.00    -0.111 NA
ATOM     32  N   UNL     1      -2.666   3.432   7.059  0.00  0.00    -0.023 NA
ATOM     33  N   UNL     1      -2.937   4.547   6.475  0.00  0.00    -0.043 NA
ATOM     34  N   UNL     1      -2.056   4.761   5.557  0.00  0.00    -0.220 N 
BRANCH  34  35
ATOM     35  C   UNL     1      -1.995   5.919   4.662  0.00  0.00    +0.221 C 
BRANCH  35  36
ATOM     36  C   UNL     1      -2.792   5.633   3.416  0.00  0.00    +0.126 A 
ATOM     37  C   UNL     1      -4.098   5.903   3.238  0.00  0.00    +0.046 A 
ATOM     38  C   UNL     1      -4.431   5.473   1.933  0.00  0.00    +0.041 A 
ATOM     39  C   UNL     1      -3.308   4.967   1.391  0.00  0.00    +0.195 A 
ATOM     40  O   UNL     1      -2.318   5.072   2.292  0.00  0.00    -0.466 OA
ENDBRANCH  35  36
ENDBRANCH  34  35
ENDBRANCH   1  30
TORSDOF 6
