REMARK  Name = ZINC01339589
REMARK  7 active torsions:
REMARK  status: ('A' for Active; 'I' for Inactive)
REMARK    1  A    between atoms: C_1  and  C_2
REMARK    2  A    between atoms: N_4  and  C_5
REMARK    3  A    between atoms: C_8  and  C_11
REMARK    4  A    between atoms: C_11  and  C_13
REMARK    5  A    between atoms: C_13  and  S_14
REMARK    6  A    between atoms: S_14  and  C_15
REMARK    7  A    between atoms: C_20  and  C_31
REMARK                            x       y       z     vdW  Elec       q    Type
REMARK                         _______ _______ _______ _____ _____    ______ ____
ROOT
ATOM      1  C   UNL     1      -6.834   7.209  -0.502  0.00  0.00    +0.198 A 
ATOM      2  N   UNL     1      -5.752   7.950  -0.577  0.00  0.00    -0.122 NA
ATOM      3  N   UNL     1      -6.069   9.194  -0.687  0.00  0.00    -0.128 NA
ATOM      4  C   UNL     1      -7.373   9.318  -0.688  0.00  0.00    +0.173 A 
ATOM      5  N   UNL     1      -7.908   8.053  -0.575  0.00  0.00    -0.257 N 
ATOM      6  C   UNL     1      -9.260   7.872  -0.542  0.00  0.00    +0.122 A 
ATOM      7  N   UNL     1     -10.082   8.880  -0.626  0.00  0.00    -0.226 NA
ATOM      8  C   UNL     1      -9.659  10.135  -0.744  0.00  0.00    +0.114 A 
ATOM      9  C   UNL     1      -8.297  10.469  -0.786  0.00  0.00    +0.056 A 
ATOM     10  C   UNL     1      -7.981  11.845  -0.915  0.00  0.00    -0.024 A 
ATOM     11  C   UNL     1      -9.008  12.722  -0.986  0.00  0.00    -0.004 A 
ATOM     12  S   UNL     1     -10.463  11.713  -0.881  0.00  0.00    -0.073 S 
ATOM     13  C   UNL     1      -8.929  14.210  -1.122  0.00  0.00    +0.043 C 
ATOM     14  C   UNL     1      -7.493  14.650  -0.803  0.00  0.00    +0.005 C 
ATOM     15  C   UNL     1      -6.522  13.747  -1.570  0.00  0.00    +0.005 C 
ATOM     16  C   UNL     1      -6.537  12.340  -0.974  0.00  0.00    +0.037 C 
ENDROOT
BRANCH   6  17
ATOM     17  C   UNL     1      -9.815   6.478  -0.411  0.00  0.00    +0.056 C 
ATOM     18  C   UNL     1     -11.324   6.298  -0.590  0.00  0.00    +0.012 C 
ATOM     19  C   UNL     1     -10.698   6.179   0.802  0.00  0.00    +0.012 C 
ENDBRANCH   6  17
BRANCH   1  20
ATOM     20  S   UNL     1      -6.892   5.456  -0.343  0.00  0.00    -0.078 S 
BRANCH  20  21
ATOM     21  C   UNL     1      -5.147   4.960  -0.312  0.00  0.00    +0.157 C 
BRANCH  21  22
ATOM     22  C   UNL     1      -5.053   3.462  -0.177  0.00  0.00    +0.173 C 
ATOM     23  O   UNL     1      -6.063   2.794  -0.109  0.00  0.00    -0.291 OA
BRANCH  22  27
ATOM     24  C   UNL     1      -1.259   1.584  -0.038  0.00  0.00    +0.033 A 
ATOM     25  C   UNL     1      -1.344   2.968  -0.157  0.00  0.00    +0.024 A 
ATOM     26  C   UNL     1      -2.570   3.580  -0.207  0.00  0.00    +0.013 A 
ATOM     27  C   UNL     1      -3.737   2.811  -0.129  0.00  0.00    +0.018 A 
ATOM     28  C   UNL     1      -3.647   1.419  -0.004  0.00  0.00    +0.013 A 
ATOM     29  C   UNL     1      -2.417   0.815   0.041  0.00  0.00    +0.024 A 
BRANCH  24  33
ATOM     30  C   UNL     1       2.346   0.870   0.753  0.00  0.00    +0.109 C 
ATOM     31  C   UNL     1       1.022   1.578   0.619  0.00  0.00    +0.214 C 
ATOM     32  O   UNL     1       0.887   2.699   1.061  0.00  0.00    -0.276 OA
ATOM     33  N   UNL     1      -0.011   0.966   0.007  0.00  0.00    -0.286 N 
ATOM     34  H   UNL     1       0.115   0.097  -0.405  0.00  0.00    +0.155 HD
ENDBRANCH  24  33
ENDBRANCH  22  27
ENDBRANCH  21  22
ENDBRANCH  20  21
ENDBRANCH   1  20
TORSDOF 6
