REMARK  Name = ZINC44135421
REMARK  7 active torsions:
REMARK  status: ('A' for Active; 'I' for Inactive)
REMARK    1  A    between atoms: C_1  and  C_2
REMARK    2  A    between atoms: C_2  and  C_3
REMARK    3  A    between atoms: C_2  and  C_4
REMARK    4  A    between atoms: C_2  and  O_5
REMARK    5  A    between atoms: O_5  and  C_6
REMARK    6  A    between atoms: C_13  and  C_15
REMARK    7  A    between atoms: C_20  and  N_21
REMARK                            x       y       z     vdW  Elec       q    Type
REMARK                         _______ _______ _______ _____ _____    ______ ____
ROOT
ATOM      1  C   UNL     1       1.828   0.164  -1.556  0.00  0.00    +0.404 C 
ATOM      2  O   UNL     1       2.345   0.839  -0.688  0.00  0.00    -0.226 OA
ATOM      3  N   UNL     1       2.580  -0.342  -2.554  0.00  0.00    -0.260 N 
ATOM      4  C   UNL     1       1.992  -1.250  -3.548  0.00  0.00    +0.112 C 
ATOM      5  C   UNL     1       2.280  -0.701  -4.949  0.00  0.00    +0.019 C 
ATOM      6  C   UNL     1       3.787  -0.486  -5.108  0.00  0.00    +0.004 C 
ATOM      7  C   UNL     1       4.269   0.539  -4.079  0.00  0.00    +0.027 C 
ATOM      8  C   UNL     1       4.002   0.009  -2.672  0.00  0.00    +0.111 C 
ENDROOT
BRANCH   8   9
ATOM      9  C   UNL     1       4.346   1.072  -1.660  0.00  0.00    -0.006 A 
ATOM     10  C   UNL     1       4.260   2.407  -2.003  0.00  0.00    +0.007 A 
ATOM     11  C   UNL     1       4.576   3.383  -1.076  0.00  0.00    +0.000 A 
ATOM     12  C   UNL     1       4.978   3.026   0.198  0.00  0.00    +0.002 A 
ATOM     13  C   UNL     1       5.065   1.693   0.548  0.00  0.00    +0.023 A 
ATOM     14  C   UNL     1       4.743   0.710  -0.379  0.00  0.00    +0.030 A 
BRANCH  14  15
ATOM     15  N   UNL     1       4.826  -0.639  -0.027  0.00  0.00    -0.358 N 
ATOM     16  H   UNL     1       4.605  -1.324  -0.677  0.00  0.00    +0.142 HD
ATOM     17  H   UNL     1       5.104  -0.890   0.868  0.00  0.00    +0.142 HD
ENDBRANCH  14  15
ENDBRANCH   8   9
BRANCH   1  18
ATOM     18  O   UNL     1       0.504  -0.078  -1.522  0.00  0.00    -0.445 OA
BRANCH  18  20
ATOM     19  C   UNL     1      -0.092   2.013  -0.467  0.00  0.00    +0.055 C 
ATOM     20  C   UNL     1      -0.231   0.489  -0.435  0.00  0.00    +0.107 C 
ATOM     21  C   UNL     1       0.320  -0.045   0.888  0.00  0.00    +0.055 C 
ATOM     22  C   UNL     1      -1.707   0.108  -0.565  0.00  0.00    +0.055 C 
ENDBRANCH  18  20
ENDBRANCH   1  18
TORSDOF 4
