REMARK  Name = ZINC62893331
REMARK  6 active torsions:
REMARK  status: ('A' for Active; 'I' for Inactive)
REMARK    1  A    between atoms: C_1  and  C_2
REMARK    2  A    between atoms: C_2  and  C_3
REMARK    3  A    between atoms: C_3  and  C_8
REMARK    4  A    between atoms: N_10  and  C_11
REMARK    5  A    between atoms: C_13  and  S_18
REMARK    6  A    between atoms: S_18  and  N_21
REMARK                            x       y       z     vdW  Elec       q    Type
REMARK                         _______ _______ _______ _____ _____    ______ ____
ROOT
ATOM      1  C   UNL     1      -0.589   0.203   2.048  0.00  0.00    +0.222 C 
ATOM      2  O   UNL     1      -1.423  -0.530   2.538  0.00  0.00    -0.275 OA
ATOM      3  N   UNL     1      -0.365   1.420   2.582  0.00  0.00    -0.284 N 
ATOM      4  H   UNL     1       0.352   1.975   2.238  0.00  0.00    +0.155 HD
ENDROOT
BRANCH   1   5
ATOM      5  C   UNL     1       0.196  -0.248   0.843  0.00  0.00    +0.030 C 
ATOM      6  C   UNL     1       1.712  -0.194   1.137  0.00  0.00    -0.005 C 
ATOM      7  C   UNL     1       2.042  -1.655   1.531  0.00  0.00    -0.082 C 
ATOM      8  N   UNL     1       1.183  -2.455   0.620  0.00  0.00    +0.380 N 
ATOM      9  C   UNL     1      -0.102  -1.727   0.534  0.00  0.00    -0.067 C 
ATOM     10  H   UNL     1       1.609  -2.518  -0.293  0.00  0.00    -0.086 HD
ATOM     11  H   UNL     1       1.036  -3.377   1.001  0.00  0.00    -0.086 HD
BRANCH   5  13
ATOM     12  C   UNL     1      -1.648   0.564  -0.635  0.00  0.00    +0.005 C 
ATOM     13  C   UNL     1      -0.143   0.625  -0.367  0.00  0.00    +0.011 C 
ENDBRANCH   5  13
ENDBRANCH   1   5
BRANCH   3  14
ATOM     14  C   UNL     1      -1.167   1.882   3.632  0.00  0.00    +0.054 A 
ATOM     15  C   UNL     1      -1.562   1.013   4.640  0.00  0.00    +0.053 A 
ATOM     16  C   UNL     1      -2.352   1.472   5.676  0.00  0.00    +0.107 A 
ATOM     17  C   UNL     1      -2.751   2.796   5.709  0.00  0.00    +0.030 A 
ATOM     18  C   UNL     1      -2.360   3.665   4.707  0.00  0.00    +0.024 A 
ATOM     19  C   UNL     1      -1.564   3.213   3.671  0.00  0.00    +0.062 A 
ATOM     20 CL   UNL     1      -1.067   4.305   2.417  0.00  0.00    -0.082 Cl
BRANCH  16  21
ATOM     21  S   UNL     1      -2.854   0.370   6.955  0.00  0.00    +0.056 S 
ATOM     22  O   UNL     1      -4.040   0.914   7.518  0.00  0.00    -0.153 OA
ATOM     23  O   UNL     1      -2.803  -0.940   6.406  0.00  0.00    -0.153 OA
BRANCH  21  24
ATOM     24  N   UNL     1      -1.696   0.433   8.138  0.00  0.00    -0.204 NA
ATOM     25  H   UNL     1      -0.925   1.012   8.031  0.00  0.00    +0.144 HD
ATOM     26  H   UNL     1      -1.789  -0.108   8.937  0.00  0.00    +0.144 HD
ENDBRANCH  21  24
ENDBRANCH  16  21
ENDBRANCH   3  14
TORSDOF 5
