REMARK  Name = ZINC64816140
REMARK  8 active torsions:
REMARK  status: ('A' for Active; 'I' for Inactive)
REMARK    1  A    between atoms: C_1  and  C_2
REMARK    2  A    between atoms: C_2  and  C_25
REMARK    3  A    between atoms: C_7  and  C_9
REMARK    4  A    between atoms: N_16  and  C_17
REMARK    5  A    between atoms: C_17  and  C_18
REMARK    6  A    between atoms: C_18  and  C_19
REMARK    7  A    between atoms: N_27  and  C_28
REMARK    8  A    between atoms: C_28  and  C_29
REMARK                            x       y       z     vdW  Elec       q    Type
REMARK                         _______ _______ _______ _____ _____    ______ ____
ROOT
ATOM      1  C   UNL     1      -0.103   1.272  -0.015  0.00  0.00    +0.044 C 
ATOM      2  C   UNL     1      -0.282  -0.247   0.026  0.00  0.00    +0.130 C 
ATOM      3  C   UNL     1      -1.775  -0.567   0.078  0.00  0.00    +0.179 C 
ATOM      4  N   UNL     1      -2.293  -0.252   1.415  0.00  0.00    -0.256 N 
ATOM      5  C   UNL     1      -1.489  -0.346   2.531  0.00  0.00    +0.124 A 
ATOM      6  C   UNL     1      -2.256  -0.019   3.611  0.00  0.00    +0.065 A 
ATOM      7  C   UNL     1      -3.530   0.280   3.077  0.00  0.00    +0.128 A 
ATOM      8  N   UNL     1      -3.461   0.121   1.766  0.00  0.00    -0.167 NA
ATOM      9  C   UNL     1      -0.071  -0.727   2.425  0.00  0.00    +0.266 C 
ATOM     10  O   UNL     1       0.599  -0.983   3.407  0.00  0.00    -0.268 OA
ATOM     11  N   UNL     1       0.446  -0.776   1.174  0.00  0.00    -0.280 N 
ENDROOT
BRANCH   7  12
ATOM     12  C   UNL     1      -4.723   0.697   3.845  0.00  0.00    +0.155 A 
ATOM     13  C   UNL     1      -5.947   0.978   3.326  0.00  0.00    +0.051 A 
ATOM     14  C   UNL     1      -6.777   1.329   4.410  0.00  0.00    +0.042 A 
ATOM     15  C   UNL     1      -6.026   1.245   5.525  0.00  0.00    +0.196 A 
ATOM     16  O   UNL     1      -4.787   0.857   5.181  0.00  0.00    -0.461 OA
ENDBRANCH   7  12
BRANCH   2  17
ATOM     17  C   UNL     1       0.297  -0.839  -1.233  0.00  0.00    +0.239 C 
ATOM     18  O   UNL     1       0.575  -0.119  -2.169  0.00  0.00    -0.273 OA
ATOM     19  N   UNL     1       0.507  -2.167  -1.319  0.00  0.00    -0.309 N 
ATOM     20  H   UNL     1       0.217  -2.751  -0.601  0.00  0.00    +0.149 HD
BRANCH  19  21
ATOM     21  C   UNL     1       1.172  -2.730  -2.497  0.00  0.00    +0.139 C 
BRANCH  21  22
ATOM     22  C   UNL     1       1.175  -4.234  -2.402  0.00  0.00    -0.030 A 
ATOM     23  C   UNL     1       2.170  -4.879  -1.692  0.00  0.00    +0.008 A 
ATOM     24  C   UNL     1       2.173  -6.258  -1.604  0.00  0.00    +0.038 A 
ATOM     25  C   UNL     1       1.179  -6.994  -2.228  0.00  0.00    +0.123 A 
ATOM     26  C   UNL     1       0.183  -6.346  -2.939  0.00  0.00    +0.038 A 
ATOM     27  C   UNL     1       0.179  -4.966  -3.021  0.00  0.00    +0.008 A 
ATOM     28  F   UNL     1       1.181  -8.342  -2.143  0.00  0.00    -0.205 F 
ENDBRANCH  21  22
ENDBRANCH  19  21
ENDBRANCH   2  17
BRANCH  11  29
ATOM     29  C   UNL     1       1.767  -1.376   0.969  0.00  0.00    +0.113 C 
BRANCH  29  30
ATOM     30  C   UNL     1       2.850  -0.330   1.240  0.00  0.00    +0.049 C 
BRANCH  30  31
ATOM     31  C   UNL     1       4.202  -0.910   0.916  0.00  0.00    -0.072 C 
ATOM     32  C   UNL     1       4.714  -0.646  -0.243  0.00  0.00    -0.028 C 
ATOM     33  C   UNL     1       6.043  -1.159  -0.712  0.00  0.00    +0.027 C 
ATOM     34  C   UNL     1       6.867  -1.655   0.479  0.00  0.00    +0.004 C 
ATOM     35  C   UNL     1       5.989  -2.589   1.321  0.00  0.00    +0.005 C 
ATOM     36  C   UNL     1       4.874  -1.755   1.959  0.00  0.00    +0.030 C 
ENDBRANCH  30  31
ENDBRANCH  29  30
ENDBRANCH  11  29
TORSDOF 7
