REMARK  Name = ZINC39676521
REMARK  5 active torsions:
REMARK  status: ('A' for Active; 'I' for Inactive)
REMARK    1  A    between atoms: C_9  and  C_11
REMARK    2  A    between atoms: C_15  and  C_24
REMARK    3  A    between atoms: N_26  and  C_27
REMARK    4  A    between atoms: C_27  and  C_28
REMARK    5  A    between atoms: C_28  and  C_29
REMARK                            x       y       z     vdW  Elec       q    Type
REMARK                         _______ _______ _______ _____ _____    ______ ____
ROOT
ATOM      1  C   UNL     1       5.011  -2.557  -0.057  0.00  0.00    +0.265 C 
ATOM      2  O   UNL     1       5.093  -3.765   0.038  0.00  0.00    -0.268 OA
ATOM      3  N   UNL     1       6.129  -1.812  -0.167  0.00  0.00    -0.295 N 
ATOM      4  C   UNL     1       6.239  -0.334  -0.173  0.00  0.00    +0.121 C 
ATOM      5  C   UNL     1       7.510  -0.034   0.652  0.00  0.00    +0.100 C 
ATOM      6  C   UNL     1       8.352  -1.318   0.557  0.00  0.00    -0.004 C 
ATOM      7  C   UNL     1       7.527  -2.286  -0.303  0.00  0.00    +0.115 C 
ATOM      8  C   UNL     1       8.570  -1.910   1.946  0.00  0.00    -0.010 C 
ATOM      9  C   UNL     1       9.457  -3.154   1.832  0.00  0.00    -0.082 C 
ATOM     10  N   UNL     1      10.743  -2.786   1.227  0.00  0.00    +0.379 N 
ATOM     11  C   UNL     1      10.532  -2.303  -0.143  0.00  0.00    -0.082 C 
ATOM     12  C   UNL     1       9.691  -1.024  -0.113  0.00  0.00    -0.010 C 
ATOM     13  H   UNL     1      11.175  -2.058   1.776  0.00  0.00    -0.086 HD
ATOM     14  H   UNL     1      11.348  -3.593   1.209  0.00  0.00    -0.086 HD
ENDROOT
BRANCH   1  23
ATOM     15  C   UNL     1      -0.023   1.336  -0.048  0.00  0.00    +0.001 A 
ATOM     16  C   UNL     1       1.161   2.072  -0.059  0.00  0.00    +0.002 A 
ATOM     17  C   UNL     1       2.372   1.454  -0.063  0.00  0.00    +0.028 A 
ATOM     18  C   UNL     1       2.438   0.047  -0.056  0.00  0.00    +0.072 A 
ATOM     19  C   UNL     1       1.231  -0.700  -0.044  0.00  0.00    +0.000 A 
ATOM     20  C   UNL     1      -0.000  -0.025  -0.041  0.00  0.00    +0.010 A 
ATOM     21  C   UNL     1       1.295  -2.105  -0.037  0.00  0.00    +0.012 A 
ATOM     22  C   UNL     1       2.526  -2.696  -0.042  0.00  0.00    +0.033 A 
ATOM     23  C   UNL     1       3.681  -1.901  -0.053  0.00  0.00    +0.126 A 
ATOM     24  N   UNL     1       3.612  -0.584  -0.059  0.00  0.00    -0.242 NA
ENDBRANCH   1  23
BRANCH   5  25
ATOM     25  C   UNL     1       7.149   0.255   2.086  0.00  0.00    +0.218 C 
ATOM     26  O   UNL     1       6.223  -0.330   2.608  0.00  0.00    -0.275 OA
ATOM     27  N   UNL     1       7.855   1.163   2.789  0.00  0.00    -0.315 N 
ATOM     28  H   UNL     1       8.595   1.630   2.372  0.00  0.00    +0.149 HD
BRANCH  27  29
ATOM     29  C   UNL     1       7.504   1.443   4.184  0.00  0.00    +0.109 C 
BRANCH  29  30
ATOM     30  C   UNL     1       8.453   2.503   4.745  0.00  0.00    +0.056 C 
BRANCH  30  31
ATOM     31  C   UNL     1       8.092   2.792   6.179  0.00  0.00    -0.021 A 
ATOM     32  C   UNL     1       8.540   2.046   7.358  0.00  0.00    +0.004 A 
ATOM     33  C   UNL     1       9.364   0.935   7.547  0.00  0.00    +0.030 A 
ATOM     34  C   UNL     1       9.593   0.466   8.821  0.00  0.00    +0.042 A 
ATOM     35  C   UNL     1       9.010   1.092   9.915  0.00  0.00    +0.022 A 
ATOM     36  C   UNL     1       8.195   2.189   9.745  0.00  0.00    +0.027 A 
ATOM     37  C   UNL     1       7.950   2.680   8.467  0.00  0.00    +0.047 A 
ATOM     38  N   UNL     1       7.202   3.731   7.983  0.00  0.00    -0.360 N 
ATOM     39  C   UNL     1       7.303   3.785   6.620  0.00  0.00    +0.087 A 
ATOM     40 CL   UNL     1      10.617  -0.916   9.061  0.00  0.00    -0.084 Cl
ATOM     41  H   UNL     1       6.683   4.343   8.528  0.00  0.00    +0.165 HD
ENDBRANCH  30  31
ENDBRANCH  29  30
ENDBRANCH  27  29
ENDBRANCH   5  25
TORSDOF 5
