REMARK  Name = ZINC38604036
REMARK  5 active torsions:
REMARK  status: ('A' for Active; 'I' for Inactive)
REMARK    1  A    between atoms: C_1  and  C_2
REMARK    2  A    between atoms: C_5  and  C_8
REMARK    3  A    between atoms: C_12  and  C_14
REMARK    4  A    between atoms: N_15  and  N_16
REMARK    5  A    between atoms: C_17  and  C_28
REMARK                            x       y       z     vdW  Elec       q    Type
REMARK                         _______ _______ _______ _____ _____    ______ ____
ROOT
ATOM      1  C   UNL     1      -1.162  -4.963   2.016  0.00  0.00    +0.119 C 
ATOM      2  N   UNL     1      -1.058  -4.599   3.239  0.00  0.00    -0.187 NA
ENDROOT
BRANCH   2   3
ATOM      3  N   UNL     1      -2.210  -4.317   3.986  0.00  0.00    -0.169 N 
ATOM      4  C   UNL     1      -3.526  -4.563   3.397  0.00  0.00    +0.181 C 
ATOM      5  N   UNL     1      -4.492  -4.923   4.441  0.00  0.00    -0.324 N 
ATOM      6  C   UNL     1      -4.503  -4.185   5.619  0.00  0.00    +0.041 A 
ATOM      7  C   UNL     1      -5.655  -4.010   6.365  0.00  0.00    +0.024 A 
ATOM      8  C   UNL     1      -5.612  -3.261   7.526  0.00  0.00    +0.002 A 
ATOM      9  C   UNL     1      -4.424  -2.685   7.949  0.00  0.00    +0.001 A 
ATOM     10  C   UNL     1      -3.266  -2.851   7.218  0.00  0.00    +0.015 A 
ATOM     11  C   UNL     1      -3.295  -3.606   6.048  0.00  0.00    +0.059 A 
ATOM     12  C   UNL     1      -2.085  -3.829   5.237  0.00  0.00    +0.269 C 
ATOM     13  O   UNL     1      -0.985  -3.572   5.690  0.00  0.00    -0.268 OA
ATOM     14  C   UNL     1      -4.005  -3.297   2.682  0.00  0.00    +0.051 C 
ATOM     15  H   UNL     1      -5.110  -5.659   4.312  0.00  0.00    +0.148 HD
ENDBRANCH   2   3
BRANCH   1  20
ATOM     16  C   UNL     1       0.068  -4.231  -0.016  0.00  0.00    +0.084 C 
ATOM     17  N   UNL     1       0.076  -5.005  -1.066  0.00  0.00    -0.153 NA
ATOM     18  N   UNL     1       0.084  -6.353  -0.725  0.00  0.00    -0.161 NA
ATOM     19  C   UNL     1       0.082  -6.540   0.555  0.00  0.00    +0.123 C 
ATOM     20  C   UNL     1       0.077  -5.160   1.181  0.00  0.00    +0.125 C 
BRANCH  16  25
ATOM     21  C   UNL     1       0.030   1.517   0.054  0.00  0.00    +0.044 C 
ATOM     22  C   UNL     1       0.040   0.011   0.035  0.00  0.00    -0.050 A 
ATOM     23  C   UNL     1       0.042  -0.663  -1.173  0.00  0.00    +0.004 A 
ATOM     24  C   UNL     1       0.051  -2.042  -1.199  0.00  0.00    +0.010 A 
ATOM     25  C   UNL     1       0.059  -2.759   0.002  0.00  0.00    -0.001 A 
ATOM     26  C   UNL     1       0.057  -2.071   1.219  0.00  0.00    +0.010 A 
ATOM     27  C   UNL     1       0.053  -0.692   1.228  0.00  0.00    +0.004 A 
ENDBRANCH  16  25
ENDBRANCH   1  20
TORSDOF 3
