REMARK  Name = ZINC39560871
REMARK  10 active torsions:
REMARK  status: ('A' for Active; 'I' for Inactive)
REMARK    1  A    between atoms: C_1  and  C_2
REMARK    2  A    between atoms: C_5  and  C_8
REMARK    3  A    between atoms: C_11  and  N_33
REMARK    4  A    between atoms: C_17  and  C_29
REMARK    5  A    between atoms: C_29  and  O_31
REMARK    6  A    between atoms: O_31  and  C_32
REMARK    7  A    between atoms: N_33  and  C_34
REMARK    8  A    between atoms: C_34  and  C_35
REMARK    9  A    between atoms: C_35  and  N_36
REMARK   10  A    between atoms: C_37  and  C_39
REMARK                            x       y       z     vdW  Elec       q    Type
REMARK                         _______ _______ _______ _____ _____    ______ ____
ROOT
ATOM      1  C   UNL     1       0.055  -4.875   0.326  0.00  0.00    +0.087 C 
ATOM      2  C   UNL     1      -1.170  -5.630   0.847  0.00  0.00    +0.008 C 
ATOM      3  C   UNL     1      -0.807  -7.100   1.071  0.00  0.00    -0.068 C 
ATOM      4  C   UNL     1       0.372  -7.188   2.044  0.00  0.00    +0.009 C 
ATOM      5  C   UNL     1       1.550  -6.394   1.475  0.00  0.00    +0.106 C 
ATOM      6  N   UNL     1       1.148  -4.990   1.300  0.00  0.00    -0.274 NA
ATOM      7  C   UNL     1       2.282  -4.132   0.944  0.00  0.00    +0.172 C 
ATOM      8  C   UNL     1       3.191  -3.934   2.166  0.00  0.00    +0.067 C 
ATOM      9  C   UNL     1       3.472  -5.293   2.759  0.00  0.00    -0.017 C 
ATOM     10  C   UNL     1       4.415  -5.674   3.633  0.00  0.00    -0.013 C 
ATOM     11  C   UNL     1       5.500  -4.888   4.314  0.00  0.00    +0.064 C 
ATOM     12  C   UNL     1       6.301  -5.795   5.205  0.00  0.00    -0.022 C 
ATOM     13  C   UNL     1       6.076  -7.096   5.365  0.00  0.00    -0.002 C 
ATOM     14  C   UNL     1       5.043  -7.796   4.708  0.00  0.00    +0.028 C 
ATOM     15  C   UNL     1       4.222  -7.072   3.845  0.00  0.00    +0.068 C 
ATOM     16  N   UNL     1       3.181  -7.465   3.097  0.00  0.00    -0.250 NA
ATOM     17  C   UNL     1       2.715  -6.452   2.431  0.00  0.00    +0.063 C 
ENDROOT
BRANCH   1  22
ATOM     18  C   UNL     1      -1.288   0.695  -0.422  0.00  0.00    +0.044 C 
ATOM     19  C   UNL     1      -0.938  -0.758  -0.227  0.00  0.00    -0.050 A 
ATOM     20  C   UNL     1      -0.912  -1.614  -1.312  0.00  0.00    +0.003 A 
ATOM     21  C   UNL     1      -0.590  -2.947  -1.133  0.00  0.00    +0.005 A 
ATOM     22  C   UNL     1      -0.294  -3.422   0.131  0.00  0.00    -0.030 A 
ATOM     23  C   UNL     1      -0.319  -2.566   1.216  0.00  0.00    +0.005 A 
ATOM     24  C   UNL     1      -0.637  -1.232   1.036  0.00  0.00    +0.003 A 
ENDBRANCH   1  22
BRANCH   3  25
ATOM     25  N   UNL     1      -0.433  -7.714  -0.211  0.00  0.00    +0.382 N 
ATOM     26  H   UNL     1       0.307  -7.177  -0.637  0.00  0.00    -0.085 HD
ATOM     27  H   UNL     1      -0.115  -8.658  -0.051  0.00  0.00    -0.085 HD
BRANCH  25  28
ATOM     28  C   UNL     1      -1.600  -7.733  -1.103  0.00  0.00    -0.063 C 
BRANCH  28  29
ATOM     29  C   UNL     1      -1.210  -8.372  -2.438  0.00  0.00    +0.085 C 
BRANCH  29  30
ATOM     30  N   UNL     1      -2.374  -8.392  -3.328  0.00  0.00    -0.317 N 
ATOM     31  C   UNL     1      -2.266  -8.912  -4.566  0.00  0.00    +0.210 C 
ATOM     32  O   UNL     1      -1.206  -9.364  -4.944  0.00  0.00    -0.276 OA
ATOM     33  C   UNL     1      -3.463  -8.932  -5.482  0.00  0.00    +0.109 C 
ATOM     34  H   UNL     1      -3.222  -8.030  -3.026  0.00  0.00    +0.149 HD
ENDBRANCH  29  30
ENDBRANCH  28  29
ENDBRANCH  25  28
ENDBRANCH   3  25
BRANCH   7  35
ATOM     35  C   UNL     1       3.071  -4.779  -0.164  0.00  0.00    +0.325 C 
ATOM     36  O   UNL     1       3.389  -5.942  -0.081  0.00  0.00    -0.249 OA
BRANCH  35  37
ATOM     37  O   UNL     1       3.422  -4.064  -1.245  0.00  0.00    -0.467 OA
ATOM     38  C   UNL     1       4.169  -4.742  -2.257  0.00  0.00    +0.280 C 
ENDBRANCH  35  37
ENDBRANCH   7  35
TORSDOF 7
