REMARK  Name = ZINC17780859
REMARK  13 active torsions:
REMARK  status: ('A' for Active; 'I' for Inactive)
REMARK    1  A    between atoms: C_1  and  C_2
REMARK    2  A    between atoms: C_2  and  C_3
REMARK    3  A    between atoms: C_3  and  C_4
REMARK    4  A    between atoms: C_4  and  O_5
REMARK    5  A    between atoms: O_5  and  C_6
REMARK    6  A    between atoms: C_9  and  N_12
REMARK    7  A    between atoms: C_16  and  S_20
REMARK    8  A    between atoms: S_20  and  C_21
REMARK    9  A    between atoms: N_23  and  N_24
REMARK   10  A    between atoms: C_25  and  C_26
REMARK   11  A    between atoms: C_29  and  N_32
REMARK   12  A    between atoms: N_32  and  C_33
REMARK   13  A    between atoms: N_32  and  C_34
REMARK                            x       y       z     vdW  Elec       q    Type
REMARK                         _______ _______ _______ _____ _____    ______ ____
ROOT
ATOM      1  N   UNL     1       1.992  -8.154   2.904  0.00  0.00    -0.209 N 
ATOM      2  C   UNL     1       1.411  -9.033   2.078  0.00  0.00    +0.228 C 
ATOM      3  O   UNL     1       0.745  -8.749   1.105  0.00  0.00    -0.275 OA
ATOM      4  C   UNL     1       1.718 -10.437   2.550  0.00  0.00    +0.120 C 
ATOM      5  C   UNL     1       2.586 -10.215   3.806  0.00  0.00    +0.149 C 
ATOM      6  C   UNL     1       2.683  -8.708   3.908  0.00  0.00    +0.240 C 
ATOM      7  O   UNL     1       3.288  -8.100   4.764  0.00  0.00    -0.274 OA
ENDROOT
BRANCH   1  11
ATOM      8  C   UNL     1       1.686  -4.026   2.383  0.00  0.00    +0.121 A 
ATOM      9  C   UNL     1       2.935  -4.626   2.445  0.00  0.00    +0.047 A 
ATOM     10  C   UNL     1       3.037  -5.993   2.617  0.00  0.00    +0.027 A 
ATOM     11  C   UNL     1       1.889  -6.765   2.729  0.00  0.00    +0.044 A 
ATOM     12  C   UNL     1       0.639  -6.163   2.668  0.00  0.00    +0.027 A 
ATOM     13  C   UNL     1       0.539  -4.796   2.501  0.00  0.00    +0.047 A 
BRANCH   8  14
ATOM     14  O   UNL     1       1.587  -2.680   2.214  0.00  0.00    -0.492 OA
BRANCH  14  15
ATOM     15  C   UNL     1       2.809  -1.949   2.100  0.00  0.00    +0.229 C 
BRANCH  15  16
ATOM     16  C   UNL     1       2.498  -0.462   1.916  0.00  0.00    +0.041 C 
BRANCH  16  18
ATOM     17  C   UNL     1       3.496   1.808   1.611  0.00  0.00    +0.004 C 
ATOM     18  C   UNL     1       3.807   0.322   1.794  0.00  0.00    -0.000 C 
ENDBRANCH  16  18
ENDBRANCH  15  16
ENDBRANCH  14  15
ENDBRANCH   8  14
ENDBRANCH   1  11
BRANCH   5  19
ATOM     19  S   UNL     1       1.778 -10.913   5.272  0.00  0.00    -0.078 S 
BRANCH  19  20
ATOM     20  C   UNL     1       2.966 -10.699   6.556  0.00  0.00    +0.146 C 
ATOM     21  N   UNL     1       4.114 -10.137   6.295  0.00  0.00    -0.380 N 
ATOM     22  N   UNL     1       2.682 -11.124   7.834  0.00  0.00    -0.217 N 
ATOM     23  H   UNL     1       4.768 -10.018   7.002  0.00  0.00    +0.158 HD
ATOM     24  H   UNL     1       1.828 -11.542   8.028  0.00  0.00    +0.176 HD
ATOM     25  H   UNL     1       4.314  -9.837   5.395  0.00  0.00    +0.158 HD
BRANCH  22  26
ATOM     26  N   UNL     1       3.626 -10.953   8.855  0.00  0.00    -0.188 NA
ATOM     27  C   UNL     1       3.358 -11.354  10.060  0.00  0.00    +0.138 C 
BRANCH  27  28
ATOM     28  C   UNL     1       4.352 -11.175  11.134  0.00  0.00    -0.005 A 
ATOM     29  C   UNL     1       5.580 -10.568  10.858  0.00  0.00    +0.011 A 
ATOM     30  C   UNL     1       6.506 -10.402  11.864  0.00  0.00    +0.024 A 
ATOM     31  C   UNL     1       6.220 -10.837  13.154  0.00  0.00    +0.029 A 
ATOM     32  C   UNL     1       4.999 -11.442  13.432  0.00  0.00    +0.024 A 
ATOM     33  C   UNL     1       4.066 -11.606  12.432  0.00  0.00    +0.011 A 
BRANCH  31  34
ATOM     34  N   UNL     1       7.160 -10.667  14.170  0.00  0.00    -0.336 N 
ATOM     35  C   UNL     1       8.394  -9.922  13.910  0.00  0.00    +0.129 C 
ATOM     36  C   UNL     1       6.914 -11.234  15.499  0.00  0.00    +0.129 C 
ENDBRANCH  31  34
ENDBRANCH  27  28
ENDBRANCH  22  26
ENDBRANCH  19  20
ENDBRANCH   5  19
TORSDOF 10
