REMARK  Name = ZINC40849171
REMARK  8 active torsions:
REMARK  status: ('A' for Active; 'I' for Inactive)
REMARK    1  A    between atoms: C_1  and  C_2
REMARK    2  A    between atoms: C_2  and  C_4
REMARK    3  A    between atoms: C_2  and  N_12
REMARK    4  A    between atoms: C_4  and  C_5
REMARK    5  A    between atoms: C_5  and  C_6
REMARK    6  A    between atoms: C_13  and  C_15
REMARK    7  A    between atoms: C_15  and  N_16
REMARK    8  A    between atoms: C_21  and  C_30
REMARK                            x       y       z     vdW  Elec       q    Type
REMARK                         _______ _______ _______ _____ _____    ______ ____
ROOT
ATOM      1  N   UNL     1      -3.553  -1.880  -2.876  0.00  0.00    -0.318 N 
ATOM      2  C   UNL     1      -4.664  -2.602  -3.269  0.00  0.00    +0.165 A 
ATOM      3  C   UNL     1      -5.539  -2.085  -4.323  0.00  0.00    +0.202 A 
ATOM      4  N   UNL     1      -5.534  -0.996  -5.064  0.00  0.00    -0.125 NA
ATOM      5  N   UNL     1      -6.544  -1.009  -5.863  0.00  0.00    -0.128 NA
ATOM      6  C   UNL     1      -7.253  -2.108  -5.678  0.00  0.00    +0.169 A 
ATOM      7  N   UNL     1      -6.638  -2.822  -4.697  0.00  0.00    -0.271 N 
ATOM      8  C   UNL     1      -6.888  -4.030  -4.070  0.00  0.00    +0.075 A 
ATOM      9  C   UNL     1      -7.990  -4.795  -4.428  0.00  0.00    +0.028 A 
ATOM     10  C   UNL     1      -8.231  -5.997  -3.797  0.00  0.00    +0.002 A 
ATOM     11  C   UNL     1      -7.377  -6.452  -2.803  0.00  0.00    +0.002 A 
ATOM     12  C   UNL     1      -6.280  -5.710  -2.433  0.00  0.00    +0.030 A 
ATOM     13  C   UNL     1      -6.019  -4.486  -3.063  0.00  0.00    +0.090 A 
ATOM     14  N   UNL     1      -4.933  -3.756  -2.702  0.00  0.00    -0.227 NA
ATOM     15  H   UNL     1      -3.355  -1.028  -3.295  0.00  0.00    +0.148 HD
ENDROOT
BRANCH   6  16
ATOM     16  C   UNL     1      -8.484  -2.490  -6.401  0.00  0.00    +0.020 A 
ATOM     17  C   UNL     1      -9.657  -2.759  -5.694  0.00  0.00    +0.011 A 
ATOM     18  C   UNL     1     -10.803  -3.115  -6.375  0.00  0.00    +0.001 A 
ATOM     19  C   UNL     1     -10.791  -3.205  -7.755  0.00  0.00    +0.000 A 
ATOM     20  C   UNL     1      -9.632  -2.940  -8.462  0.00  0.00    +0.001 A 
ATOM     21  C   UNL     1      -8.480  -2.578  -7.794  0.00  0.00    +0.011 A 
ENDBRANCH   6  16
BRANCH   1  22
ATOM     22  C   UNL     1      -2.675  -2.401  -1.826  0.00  0.00    +0.199 C 
BRANCH  22  24
ATOM     23  N   UNL     1      -0.609  -1.702  -0.658  0.00  0.00    -0.311 N 
ATOM     24  C   UNL     1      -1.547  -1.430  -1.587  0.00  0.00    +0.230 C 
ATOM     25  O   UNL     1      -1.483  -0.404  -2.230  0.00  0.00    -0.274 OA
ATOM     26  H   UNL     1      -0.660  -2.523  -0.143  0.00  0.00    +0.149 HD
BRANCH  23  28
ATOM     27  C   UNL     1       0.033   0.319   0.561  0.00  0.00    +0.028 C 
ATOM     28  C   UNL     1       0.487  -0.759  -0.425  0.00  0.00    +0.070 C 
BRANCH  28  29
ATOM     29  C   UNL     1       1.690  -1.506   0.154  0.00  0.00    +0.026 C 
BRANCH  29  30
ATOM     30  C   UNL     1       2.222  -2.498  -0.882  0.00  0.00    +0.037 C 
BRANCH  30  31
ATOM     31  C   UNL     1       3.406  -3.235  -0.311  0.00  0.00    -0.047 A 
ATOM     32  C   UNL     1       4.681  -2.726  -0.475  0.00  0.00    +0.003 A 
ATOM     33  C   UNL     1       5.767  -3.402   0.049  0.00  0.00    +0.000 A 
ATOM     34  C   UNL     1       5.579  -4.586   0.737  0.00  0.00    +0.000 A 
ATOM     35  C   UNL     1       4.303  -5.094   0.902  0.00  0.00    +0.000 A 
ATOM     36  C   UNL     1       3.217  -4.416   0.382  0.00  0.00    +0.003 A 
ENDBRANCH  30  31
ENDBRANCH  29  30
ENDBRANCH  28  29
ENDBRANCH  23  28
ENDBRANCH  22  24
ENDBRANCH   1  22
TORSDOF 7
