REMARK  Name = ZINC64103669
REMARK  6 active torsions:
REMARK  status: ('A' for Active; 'I' for Inactive)
REMARK    1  A    between atoms: C_4  and  O_8
REMARK    2  A    between atoms: O_8  and  C_9
REMARK    3  A    between atoms: C_9  and  C_10
REMARK    4  A    between atoms: C_12  and  C_16
REMARK    5  A    between atoms: N_18  and  C_19
REMARK    6  A    between atoms: C_19  and  C_20
REMARK                            x       y       z     vdW  Elec       q    Type
REMARK                         _______ _______ _______ _____ _____    ______ ____
ROOT
ATOM      1  C   UNL     1       5.472  -1.683   1.014  0.00  0.00    +0.161 C 
ATOM      2  C   UNL     1       6.644  -1.205   1.371  0.00  0.00    +0.051 C 
ATOM      3  C   UNL     1       7.699  -2.229   0.997  0.00  0.00    +0.204 C 
ATOM      4  N   UNL     1       6.893  -3.457   0.767  0.00  0.00    -0.140 NA
ATOM      5  O   UNL     1       5.568  -2.904   0.437  0.00  0.00    -0.407 OA
ATOM      6  H   UNL     1       7.264  -3.995  -0.002  0.00  0.00    +0.168 HD
ENDROOT
BRANCH   3   7
ATOM      7  C   UNL     1       8.423  -1.817  -0.259  0.00  0.00    +0.237 C 
ATOM      8  O   UNL     1       8.119  -2.312  -1.324  0.00  0.00    -0.274 OA
ATOM      9  N   UNL     1       9.408  -0.899  -0.199  0.00  0.00    -0.311 N 
ATOM     10  H   UNL     1       9.650  -0.504   0.653  0.00  0.00    +0.149 HD
BRANCH   9  11
ATOM     11  C   UNL     1      10.111  -0.499  -1.420  0.00  0.00    +0.133 C 
BRANCH  11  12
ATOM     12  C   UNL     1      11.173   0.548  -1.076  0.00  0.00    +0.120 C 
ATOM     13  C   UNL     1      12.030   0.839  -2.288  0.00  0.00    +0.009 C 
ATOM     14  C   UNL     1      13.293   0.500  -1.944  0.00  0.00    -0.003 A 
ATOM     15  C   UNL     1      14.567   0.546  -2.672  0.00  0.00    +0.029 A 
ATOM     16  C   UNL     1      15.694   0.130  -2.048  0.00  0.00    +0.042 A 
ATOM     17  C   UNL     1      15.674  -0.343  -0.727  0.00  0.00    +0.022 A 
ATOM     18  C   UNL     1      14.542  -0.414   0.004  0.00  0.00    +0.027 A 
ATOM     19  C   UNL     1      13.299  -0.002  -0.552  0.00  0.00    +0.043 A 
ATOM     20  N   UNL     1      12.086   0.025  -0.053  0.00  0.00    -0.376 N 
ATOM     21 CL   UNL     1      17.203   0.181  -2.905  0.00  0.00    -0.084 Cl
ATOM     22  H   UNL     1      11.834  -0.253   0.841  0.00  0.00    +0.160 HD
ENDBRANCH  11  12
ENDBRANCH   9  11
ENDBRANCH   3   7
BRANCH   1  23
ATOM     23  C   UNL     1       4.169  -0.956   1.229  0.00  0.00    +0.305 C 
BRANCH  23  24
ATOM     24  O   UNL     1       3.589  -0.633  -0.037  0.00  0.00    -0.479 OA
BRANCH  24  28
ATOM     25  C   UNL     1      -0.017   1.378   0.010  0.00  0.00    +0.006 A 
ATOM     26  C   UNL     1       1.169   2.089   0.002  0.00  0.00    +0.042 A 
ATOM     27  C   UNL     1       2.379   1.418  -0.013  0.00  0.00    +0.168 A 
ATOM     28  C   UNL     1       2.402   0.029  -0.021  0.00  0.00    +0.191 A 
ATOM     29  C   UNL     1       1.209  -0.681  -0.013  0.00  0.00    +0.168 A 
ATOM     30  C   UNL     1       0.002  -0.004   0.002  0.00  0.00    +0.042 A 
ATOM     31  F   UNL     1       1.226  -2.032  -0.021  0.00  0.00    -0.202 F 
ATOM     32  F   UNL     1       3.538   2.112  -0.022  0.00  0.00    -0.202 F 
ENDBRANCH  24  28
ENDBRANCH  23  24
ENDBRANCH   1  23
TORSDOF 6
