REMARK  Name = ZINC13064816
REMARK  11 active torsions:
REMARK  status: ('A' for Active; 'I' for Inactive)
REMARK    1  A    between atoms: C_1  and  C_2
REMARK    2  A    between atoms: C_2  and  C_3
REMARK    3  A    between atoms: C_3  and  C_5
REMARK    4  A    between atoms: C_3  and  N_70
REMARK    5  A    between atoms: N_9  and  C_10
REMARK    6  A    between atoms: C_15  and  C_16
REMARK    7  A    between atoms: C_15  and  N_70
REMARK    8  A    between atoms: C_19  and  C_29
REMARK    9  A    between atoms: C_21  and  C_28
REMARK   10  A    between atoms: C_30  and  C_31
REMARK   11  A    between atoms: C_30  and  N_70
REMARK                            x       y       z     vdW  Elec       q    Type
REMARK                         _______ _______ _______ _____ _____    ______ ____
ROOT
ATOM      1  N   UNL     1      -0.656   1.643  -1.341  0.00  0.00    +0.391 N 
ATOM      2  H   UNL     1      -1.511   1.310  -1.803  0.00  0.00    -0.080 HD
ENDROOT
BRANCH   1   3
ATOM      3  C   UNL     1      -0.594   1.076   0.022  0.00  0.00    +0.003 C 
BRANCH   3   4
ATOM      4  C   UNL     1       0.569   1.657   0.783  0.00  0.00    +0.138 A 
ATOM      5  N   UNL     1       0.857   2.928   0.921  0.00  0.00    -0.115 NA
ATOM      6  N   UNL     1       1.922   3.018   1.641  0.00  0.00    -0.023 NA
ATOM      7  N   UNL     1       2.325   1.838   1.960  0.00  0.00    -0.044 NA
ATOM      8  N   UNL     1       1.517   0.971   1.449  0.00  0.00    -0.228 N 
BRANCH   8   9
ATOM      9  C   UNL     1       1.613  -0.486   1.571  0.00  0.00    +0.111 C 
ATOM     10  C   UNL     1       1.617  -0.892   3.060  0.00  0.00    +0.027 C 
ATOM     11  C   UNL     1       2.604  -2.084   3.125  0.00  0.00    +0.002 C 
ATOM     12  C   UNL     1       3.711  -1.666   2.126  0.00  0.00    +0.002 C 
ATOM     13  C   UNL     1       2.944  -0.978   0.978  0.00  0.00    +0.027 C 
ENDBRANCH   8   9
ENDBRANCH   3   4
BRANCH   3  15
ATOM     14  C   UNL     1      -3.064   0.703   0.053  0.00  0.00    +0.002 C 
ATOM     15  C   UNL     1      -1.897   1.403   0.753  0.00  0.00    -0.011 C 
ENDBRANCH   3  15
ENDBRANCH   1   3
BRANCH   1  16
ATOM     16  C   UNL     1      -0.693   3.119  -1.273  0.00  0.00    -0.036 C 
BRANCH  16  17
ATOM     17  C   UNL     1      -1.128   3.656  -2.612  0.00  0.00    +0.001 A 
ATOM     18  C   UNL     1      -2.438   3.921  -2.840  0.00  0.00    +0.017 A 
ATOM     19  C   UNL     1      -2.829   4.441  -4.152  0.00  0.00    +0.002 A 
ATOM     20  C   UNL     1      -4.165   4.733  -4.446  0.00  0.00    -0.041 A 
ATOM     21  C   UNL     1      -4.496   5.218  -5.679  0.00  0.00    +0.007 A 
ATOM     22  C   UNL     1      -3.518   5.423  -6.644  0.00  0.00    -0.048 A 
ATOM     23  C   UNL     1      -2.196   5.142  -6.376  0.00  0.00    +0.029 A 
ATOM     24  C   UNL     1      -1.835   4.647  -5.127  0.00  0.00    +0.050 A 
ATOM     25  N   UNL     1      -0.520   4.359  -4.832  0.00  0.00    -0.322 N 
ATOM     26  H   UNL     1       0.164   4.501  -5.505  0.00  0.00    +0.169 HD
ATOM     27  C   UNL     1      -0.170   3.886  -3.622  0.00  0.00    +0.251 A 
ATOM     28  O   UNL     1       1.003   3.646  -3.394  0.00  0.00    -0.268 OA
ATOM     29  C   UNL     1      -3.908   5.958  -7.998  0.00  0.00    +0.044 C 
ATOM     30  C   UNL     1      -5.234   4.514  -3.407  0.00  0.00    +0.044 C 
ENDBRANCH  16  17
ENDBRANCH   1  16
BRANCH   1  31
ATOM     31  C   UNL     1       0.516   1.203  -2.126  0.00  0.00    -0.045 C 
BRANCH  31  32
ATOM     32  C   UNL     1       0.361  -0.284  -2.451  0.00  0.00    +0.102 C 
ATOM     33  C   UNL     1       1.623  -0.812  -3.167  0.00  0.00    +0.032 C 
ATOM     34  C   UNL     1       1.073  -1.814  -4.208  0.00  0.00    +0.030 C 
ATOM     35  C   UNL     1      -0.456  -1.772  -3.997  0.00  0.00    +0.160 C 
ATOM     36  O   UNL     1      -0.711  -0.482  -3.399  0.00  0.00    -0.378 OA
ENDBRANCH  31  32
ENDBRANCH   1  31
TORSDOF 8
