REMARK  Name = ZINC20219793
REMARK  16 active torsions:
REMARK  status: ('A' for Active; 'I' for Inactive)
REMARK    1  A    between atoms: C_1  and  C_2
REMARK    2  A    between atoms: C_2  and  N_3
REMARK    3  A    between atoms: N_3  and  C_4
REMARK    4  A    between atoms: N_3  and  C_6
REMARK    5  A    between atoms: C_4  and  C_5
REMARK    6  A    between atoms: C_6  and  C_7
REMARK    7  A    between atoms: C_7  and  C_8
REMARK    8  A    between atoms: C_8  and  N_9
REMARK    9  A    between atoms: C_10  and  C_29
REMARK   10  A    between atoms: C_12  and  C_17
REMARK   11  A    between atoms: C_17  and  C_19
REMARK   12  A    between atoms: C_20  and  C_28
REMARK   13  A    between atoms: C_33  and  O_37
REMARK   14  A    between atoms: C_34  and  O_35
REMARK   15  A    between atoms: O_35  and  C_36
REMARK   16  A    between atoms: O_37  and  C_38
REMARK                            x       y       z     vdW  Elec       q    Type
REMARK                         _______ _______ _______ _____ _____    ______ ____
ROOT
ATOM      1  N   UNL     1      -2.922   0.898  -1.140  0.00  0.00    -0.283 N 
ATOM      2  C   UNL     1      -2.192  -0.225  -0.539  0.00  0.00    +0.148 C 
ATOM      3  C   UNL     1      -2.275  -0.027   0.956  0.00  0.00    +0.078 C 
ATOM      4  C   UNL     1      -2.987   1.104   1.162  0.00  0.00    +0.249 C 
ATOM      5  C   UNL     1      -3.384   1.671  -0.141  0.00  0.00    +0.288 C 
ATOM      6  O   UNL     1      -4.033   2.688  -0.290  0.00  0.00    -0.266 OA
ATOM      7  O   UNL     1      -3.288   1.632   2.372  0.00  0.00    -0.282 OA
ENDROOT
BRANCH   2   8
ATOM      8  C   UNL     1      -0.753  -0.207  -0.986  0.00  0.00    +0.023 A 
ATOM      9  C   UNL     1       0.224   0.302  -0.150  0.00  0.00    +0.009 A 
ATOM     10  C   UNL     1       1.544   0.325  -0.559  0.00  0.00    +0.004 A 
ATOM     11  C   UNL     1       1.894  -0.165  -1.804  0.00  0.00    +0.049 A 
ATOM     12  C   UNL     1       0.921  -0.681  -2.644  0.00  0.00    +0.162 A 
ATOM     13  C   UNL     1      -0.409  -0.705  -2.232  0.00  0.00    +0.167 A 
BRANCH  13  14
ATOM     14  O   UNL     1      -1.368  -1.210  -3.053  0.00  0.00    -0.491 OA
ATOM     15  C   UNL     1      -1.569  -2.624  -3.023  0.00  0.00    +0.277 C 
ENDBRANCH  13  14
BRANCH  12  16
ATOM     16  O   UNL     1       1.264  -1.165  -3.868  0.00  0.00    -0.491 OA
ATOM     17  C   UNL     1       2.646  -1.109  -4.224  0.00  0.00    +0.277 C 
ENDBRANCH  12  16
ENDBRANCH   2   8
BRANCH   3  18
ATOM     18  C   UNL     1      -1.694  -0.895   1.988  0.00  0.00    +0.213 C 
ATOM     19  O   UNL     1      -0.541  -0.727   2.349  0.00  0.00    -0.285 OA
BRANCH  18  20
ATOM     20  C   UNL     1      -2.472  -1.930   2.565  0.00  0.00    +0.116 A 
ATOM     21  C   UNL     1      -3.757  -2.308   2.197  0.00  0.00    +0.068 A 
ATOM     22  N   UNL     1      -4.131  -3.309   2.975  0.00  0.00    -0.232 NA
ATOM     23  C   UNL     1      -3.155  -3.604   3.833  0.00  0.00    +0.138 A 
ATOM     24  N   UNL     1      -2.101  -2.767   3.601  0.00  0.00    -0.296 N 
ATOM     25  C   UNL     1      -0.969  -2.853   4.349  0.00  0.00    +0.093 A 
ATOM     26  C   UNL     1      -0.860  -3.778   5.330  0.00  0.00    +0.018 A 
ATOM     27  C   UNL     1      -1.920  -4.656   5.590  0.00  0.00    +0.005 A 
ATOM     28  C   UNL     1      -3.061  -4.572   4.848  0.00  0.00    +0.047 A 
ATOM     29  C   UNL     1      -4.582  -1.684   1.101  0.00  0.00    +0.068 C 
ENDBRANCH  18  20
ENDBRANCH   3  18
BRANCH   1  30
ATOM     30  C   UNL     1      -3.113   1.134  -2.573  0.00  0.00    +0.107 C 
BRANCH  30  31
ATOM     31  C   UNL     1      -4.397   0.444  -3.037  0.00  0.00    +0.000 C 
BRANCH  31  32
ATOM     32  C   UNL     1      -4.597   0.691  -4.534  0.00  0.00    -0.077 C 
BRANCH  32  33
ATOM     33  N   UNL     1      -5.830   0.028  -4.980  0.00  0.00    +0.379 N 
ATOM     34  H   UNL     1      -5.787  -1.021  -4.652  0.00  0.00    -0.082 HD
BRANCH  33  36
ATOM     35  C   UNL     1      -7.160   2.081  -4.869  0.00  0.00    -0.017 C 
ATOM     36  C   UNL     1      -7.012   0.645  -4.363  0.00  0.00    -0.082 C 
ENDBRANCH  33  36
BRANCH  33  37
ATOM     37  C   UNL     1      -5.934   0.040  -6.445  0.00  0.00    -0.082 C 
ATOM     38  C   UNL     1      -7.053  -0.906  -6.884  0.00  0.00    -0.017 C 
ENDBRANCH  33  37
ENDBRANCH  32  33
ENDBRANCH  31  32
ENDBRANCH  30  31
ENDBRANCH   1  30
TORSDOF 11
