REMARK  Name = ZINC09263795
REMARK  9 active torsions:
REMARK  status: ('A' for Active; 'I' for Inactive)
REMARK    1  A    between atoms: C_1  and  C_2
REMARK    2  A    between atoms: C_2  and  N_3
REMARK    3  A    between atoms: C_4  and  C_20
REMARK    4  A    between atoms: C_7  and  S_8
REMARK    5  A    between atoms: S_8  and  C_9
REMARK    6  A    between atoms: C_9  and  C_11
REMARK    7  A    between atoms: C_9  and  C_12
REMARK    8  A    between atoms: C_20  and  O_21
REMARK    9  A    between atoms: O_21  and  C_22
REMARK                            x       y       z     vdW  Elec       q    Type
REMARK                         _______ _______ _______ _____ _____    ______ ____
ROOT
ATOM      1  N   UNL     1      -0.020   1.094   2.454  0.00  0.00    -0.303 N 
ATOM      2  C   UNL     1       0.996   1.719   3.122  0.00  0.00    +0.172 A 
ATOM      3  N   UNL     1       1.339   0.949   4.115  0.00  0.00    -0.130 NA
ATOM      4  N   UNL     1       0.613  -0.112   4.122  0.00  0.00    -0.122 NA
ATOM      5  C   UNL     1      -0.242  -0.073   3.126  0.00  0.00    +0.192 A 
ENDROOT
BRANCH   1   7
ATOM      6  C   UNL     1      -0.013   1.086   0.008  0.00  0.00    +0.027 C 
ATOM      7  C   UNL     1      -0.729   1.579   1.267  0.00  0.00    +0.122 C 
ENDBRANCH   1   7
BRANCH   5   8
ATOM      8  S   UNL     1      -1.445  -1.298   2.731  0.00  0.00    -0.074 S 
BRANCH   8   9
ATOM      9  C   UNL     1      -1.119  -2.496   4.048  0.00  0.00    +0.137 C 
ATOM     10  C   UNL     1      -1.454  -1.868   5.402  0.00  0.00    +0.029 C 
BRANCH   9  11
ATOM     11  C   UNL     1      -1.973  -3.720   3.837  0.00  0.00    +0.232 C 
ATOM     12  O   UNL     1      -2.963  -3.655   3.140  0.00  0.00    -0.274 OA
ATOM     13  N   UNL     1      -1.636  -4.886   4.423  0.00  0.00    -0.264 N 
ATOM     14  C   UNL     1      -2.424  -6.015   4.228  0.00  0.00    +0.164 A 
ATOM     15  N   UNL     1      -3.528  -6.142   3.518  0.00  0.00    -0.233 NA
ATOM     16  C   UNL     1      -4.156  -7.298   3.434  0.00  0.00    +0.120 A 
ATOM     17  C   UNL     1      -3.648  -8.360   4.105  0.00  0.00    +0.068 A 
ATOM     18  S   UNL     1      -2.210  -7.617   4.862  0.00  0.00    -0.061 S 
ATOM     19  H   UNL     1      -0.844  -4.937   4.980  0.00  0.00    +0.157 HD
ENDBRANCH   9  11
ENDBRANCH   8   9
ENDBRANCH   5   8
BRANCH   2  20
ATOM     20  C   UNL     1       1.607   3.052   2.773  0.00  0.00    +0.305 C 
BRANCH  20  21
ATOM     21  O   UNL     1       0.901   4.092   3.452  0.00  0.00    -0.484 OA
BRANCH  21  22
ATOM     22  C   UNL     1       1.329   5.365   3.245  0.00  0.00    +0.121 A 
ATOM     23  C   UNL     1       2.409   5.611   2.410  0.00  0.00    +0.046 A 
ATOM     24  C   UNL     1       2.833   6.906   2.203  0.00  0.00    +0.007 A 
ATOM     25  C   UNL     1       2.195   7.968   2.833  0.00  0.00    -0.044 A 
ATOM     26  C   UNL     1       1.124   7.726   3.665  0.00  0.00    -0.041 A 
ATOM     27  C   UNL     1       0.692   6.423   3.870  0.00  0.00    +0.049 A 
ATOM     28  C   UNL     1       0.382   8.830   4.372  0.00  0.00    +0.035 C 
ATOM     29  C   UNL     1       1.215  10.110   4.395  0.00  0.00    +0.005 C 
ATOM     30  C   UNL     1       1.686  10.406   2.966  0.00  0.00    +0.005 C 
ATOM     31  C   UNL     1       2.722   9.355   2.573  0.00  0.00    +0.035 C 
ENDBRANCH  21  22
ENDBRANCH  20  21
ENDBRANCH   2  20
TORSDOF 7
