REMARK  Name = ZINC00739198
REMARK  11 active torsions:
REMARK  status: ('A' for Active; 'I' for Inactive)
REMARK    1  A    between atoms: C_1  and  C_2
REMARK    2  A    between atoms: C_7  and  N_8
REMARK    3  A    between atoms: C_9  and  N_17
REMARK    4  A    between atoms: C_11  and  C_13
REMARK    5  A    between atoms: C_13  and  C_14
REMARK    6  A    between atoms: C_13  and  C_15
REMARK    7  A    between atoms: C_13  and  C_16
REMARK    8  A    between atoms: C_18  and  C_20
REMARK    9  A    between atoms: C_20  and  N_21
REMARK   10  A    between atoms: N_21  and  C_22
REMARK   11  A    between atoms: N_25  and  C_26
REMARK                            x       y       z     vdW  Elec       q    Type
REMARK                         _______ _______ _______ _____ _____    ______ ____
ROOT
ATOM      1  N   UNL     1       3.895   1.944   0.124  0.00  0.00    -0.269 N 
ATOM      2  C   UNL     1       5.175   1.556   0.286  0.00  0.00    +0.236 C 
ATOM      3  O   UNL     1       6.059   2.385   0.331  0.00  0.00    -0.274 OA
ATOM      4  H   UNL     1       3.188   1.281   0.088  0.00  0.00    +0.156 HD
ENDROOT
BRANCH   1   6
ATOM      5  N   UNL     1       2.338   3.838  -0.060  0.00  0.00    -0.218 N 
ATOM      6  C   UNL     1       3.586   3.299   0.008  0.00  0.00    +0.129 A 
ATOM      7  C   UNL     1       4.478   4.325  -0.058  0.00  0.00    +0.069 A 
ATOM      8  C   UNL     1       3.754   5.516  -0.169  0.00  0.00    +0.071 A 
ATOM      9  N   UNL     1       2.478   5.227  -0.176  0.00  0.00    -0.169 NA
BRANCH   5  16
ATOM     10  C   UNL     1       0.322   4.700   1.754  0.00  0.00    +0.046 C 
ATOM     11  C   UNL     1       0.120   3.517   0.844  0.00  0.00    -0.025 A 
ATOM     12  C   UNL     1      -1.071   2.817   0.874  0.00  0.00    +0.005 A 
ATOM     13  C   UNL     1      -1.259   1.734   0.035  0.00  0.00    +0.000 A 
ATOM     14  C   UNL     1      -0.253   1.342  -0.829  0.00  0.00    +0.002 A 
ATOM     15  C   UNL     1       0.940   2.038  -0.864  0.00  0.00    +0.028 A 
ATOM     16  C   UNL     1       1.130   3.129  -0.027  0.00  0.00    +0.070 A 
ENDBRANCH   5  16
BRANCH   8  17
ATOM     17  C   UNL     1       4.344   6.899  -0.270  0.00  0.00    +0.006 C 
ATOM     18  C   UNL     1       4.914   7.109  -1.674  0.00  0.00    +0.017 C 
ATOM     19  C   UNL     1       3.255   7.939  -0.001  0.00  0.00    +0.017 C 
ATOM     20  C   UNL     1       5.463   7.053   0.763  0.00  0.00    +0.017 C 
ENDBRANCH   8  17
ENDBRANCH   1   6
BRANCH   2  21
ATOM     21  C   UNL     1       5.509   0.092   0.411  0.00  0.00    +0.205 C 
BRANCH  21  22
ATOM     22  N   UNL     1       6.956  -0.067   0.578  0.00  0.00    -0.280 N 
ATOM     23  C   UNL     1       7.815  -0.223  -0.598  0.00  0.00    +0.134 C 
ATOM     24  C   UNL     1       7.496  -0.069   1.812  0.00  0.00    +0.307 C 
ATOM     25  O   UNL     1       6.783   0.060   2.788  0.00  0.00    -0.252 OA
ATOM     26  N   UNL     1       8.827  -0.215   1.965  0.00  0.00    -0.268 N 
ATOM     27  H   UNL     1       9.405  -0.236   1.187  0.00  0.00    +0.156 HD
BRANCH  26  28
ATOM     28  C   UNL     1       9.375  -0.338   3.247  0.00  0.00    +0.049 A 
ATOM     29  C   UNL     1       8.598  -0.818   4.293  0.00  0.00    +0.024 A 
ATOM     30  C   UNL     1       9.143  -0.942   5.556  0.00  0.00    +0.002 A 
ATOM     31  C   UNL     1      10.458  -0.579   5.783  0.00  0.00    +0.001 A 
ATOM     32  C   UNL     1      11.234  -0.096   4.745  0.00  0.00    +0.017 A 
ATOM     33  C   UNL     1      10.696   0.026   3.478  0.00  0.00    +0.039 A 
ATOM     34 BR   UNL     1      11.757   0.688   2.059  0.00  0.00    -0.048 Br
ENDBRANCH  26  28
ENDBRANCH  21  22
ENDBRANCH   2  21
TORSDOF 6
