REMARK  Name = ZINC13495911
REMARK  14 active torsions:
REMARK  status: ('A' for Active; 'I' for Inactive)
REMARK    1  A    between atoms: C_1  and  C_2
REMARK    2  A    between atoms: C_2  and  C_3
REMARK    3  A    between atoms: C_3  and  C_5
REMARK    4  A    between atoms: C_3  and  N_76
REMARK    5  A    between atoms: N_9  and  C_10
REMARK    6  A    between atoms: C_10  and  C_11
REMARK    7  A    between atoms: C_17  and  C_18
REMARK    8  A    between atoms: C_17  and  N_76
REMARK    9  A    between atoms: C_18  and  C_19
REMARK   10  A    between atoms: C_24  and  C_25
REMARK   11  A    between atoms: C_26  and  C_27
REMARK   12  A    between atoms: C_26  and  N_76
REMARK   13  A    between atoms: C_31  and  C_40
REMARK   14  A    between atoms: C_33  and  C_39
REMARK                            x       y       z     vdW  Elec       q    Type
REMARK                         _______ _______ _______ _____ _____    ______ ____
ROOT
ATOM      1  N   UNL     1      -1.065   2.829   2.575  0.00  0.00    +0.389 N 
ATOM      2  H   UNL     1      -0.238   3.055   3.140  0.00  0.00    -0.080 HD
ENDROOT
BRANCH   1   3
ATOM      3  C   UNL     1      -0.925   1.455   2.049  0.00  0.00    +0.003 C 
BRANCH   3   4
ATOM      4  C   UNL     1       0.531   1.198   1.756  0.00  0.00    +0.138 A 
ATOM      5  N   UNL     1       1.369   2.021   1.175  0.00  0.00    -0.115 NA
ATOM      6  N   UNL     1       2.516   1.438   1.107  0.00  0.00    -0.023 NA
ATOM      7  N   UNL     1       2.431   0.264   1.629  0.00  0.00    -0.044 NA
ATOM      8  N   UNL     1       1.224   0.081   2.046  0.00  0.00    -0.228 N 
BRANCH   8   9
ATOM      9  C   UNL     1       0.704  -1.119   2.707  0.00  0.00    +0.178 C 
BRANCH   9  10
ATOM     10  C   UNL     1       0.168  -2.090   1.653  0.00  0.00    +0.140 C 
ATOM     11  C   UNL     1      -0.486  -3.305   2.345  0.00  0.00    +0.035 C 
ATOM     12  C   UNL     1      -0.042  -4.481   1.433  0.00  0.00    +0.031 C 
ATOM     13  C   UNL     1       1.365  -4.002   0.998  0.00  0.00    +0.160 C 
ATOM     14  O   UNL     1       1.247  -2.579   0.848  0.00  0.00    -0.375 OA
ENDBRANCH   9  10
ENDBRANCH   8   9
ENDBRANCH   3   4
BRANCH   3  16
ATOM     15  C   UNL     1      -3.232   1.393   1.091  0.00  0.00    +0.002 C 
ATOM     16  C   UNL     1      -1.741   1.289   0.765  0.00  0.00    -0.011 C 
ENDBRANCH   3  16
ENDBRANCH   1   3
BRANCH   1  17
ATOM     17  C   UNL     1      -2.269   2.924   3.427  0.00  0.00    -0.073 C 
BRANCH  17  18
ATOM     18  C   UNL     1      -1.956   2.300   4.789  0.00  0.00    +0.017 C 
BRANCH  18  19
ATOM     19  C   UNL     1      -3.187   2.349   5.658  0.00  0.00    -0.046 A 
ATOM     20  C   UNL     1      -3.362   3.390   6.550  0.00  0.00    +0.004 A 
ATOM     21  C   UNL     1      -4.492   3.437   7.344  0.00  0.00    +0.000 A 
ATOM     22  C   UNL     1      -5.443   2.437   7.253  0.00  0.00    +0.000 A 
ATOM     23  C   UNL     1      -5.265   1.393   6.364  0.00  0.00    +0.003 A 
ATOM     24  C   UNL     1      -4.137   1.349   5.567  0.00  0.00    -0.047 A 
ATOM     25  C   UNL     1      -3.942   0.211   4.598  0.00  0.00    +0.044 C 
ENDBRANCH  18  19
ENDBRANCH  17  18
ENDBRANCH   1  17
BRANCH   1  26
ATOM     26  C   UNL     1      -1.160   3.791   1.457  0.00  0.00    -0.037 C 
BRANCH  26  27
ATOM     27  C   UNL     1      -0.899   5.177   1.988  0.00  0.00    +0.001 A 
ATOM     28  C   UNL     1       0.352   5.697   1.933  0.00  0.00    +0.017 A 
ATOM     29  C   UNL     1       0.572   7.046   2.457  0.00  0.00    -0.001 A 
ATOM     30  C   UNL     1       1.840   7.635   2.429  0.00  0.00    +0.013 A 
ATOM     31  C   UNL     1       2.012   8.896   2.925  0.00  0.00    -0.050 A 
ATOM     32  C   UNL     1       0.939   9.598   3.457  0.00  0.00    +0.008 A 
ATOM     33  C   UNL     1      -0.319   9.037   3.496  0.00  0.00    -0.026 A 
ATOM     34  C   UNL     1      -0.518   7.755   2.996  0.00  0.00    +0.052 A 
ATOM     35  N   UNL     1      -1.766   7.169   3.022  0.00  0.00    -0.322 N 
ATOM     36  H   UNL     1      -2.516   7.659   3.394  0.00  0.00    +0.169 HD
ATOM     37  C   UNL     1      -1.960   5.931   2.534  0.00  0.00    +0.251 A 
ATOM     38  O   UNL     1      -3.078   5.447   2.568  0.00  0.00    -0.268 OA
ATOM     39  C   UNL     1      -1.474   9.811   4.077  0.00  0.00    +0.046 C 
ATOM     40  C   UNL     1       3.379   9.531   2.893  0.00  0.00    +0.044 C 
ENDBRANCH  26  27
ENDBRANCH   1  26
TORSDOF 10
