REMARK  Name = ZINC59447193
REMARK  9 active torsions:
REMARK  status: ('A' for Active; 'I' for Inactive)
REMARK    1  A    between atoms: C_4  and  N_7
REMARK    2  A    between atoms: N_7  and  C_8
REMARK    3  A    between atoms: C_14  and  C_16
REMARK    4  A    between atoms: C_16  and  N_17
REMARK    5  A    between atoms: N_17  and  C_18
REMARK    6  A    between atoms: C_18  and  C_19
REMARK    7  A    between atoms: C_19  and  N_20
REMARK    8  A    between atoms: N_20  and  C_21
REMARK    9  A    between atoms: C_24  and  N_28
REMARK                            x       y       z     vdW  Elec       q    Type
REMARK                         _______ _______ _______ _____ _____    ______ ____
ROOT
ATOM      1  N   UNL     1       6.108   2.054  -0.263  0.00  0.00    +0.386 N 
ATOM      2  H   UNL     1       6.632   1.723   0.533  0.00  0.00    -0.085 HD
ATOM      3  H   UNL     1       6.543   1.727  -1.113  0.00  0.00    -0.085 HD
ENDROOT
BRANCH   1   4
ATOM      4  C   UNL     1       4.731   1.546  -0.190  0.00  0.00    +0.016 C 
BRANCH   4   6
ATOM      5  N   UNL     1       3.608  -0.651  -0.021  0.00  0.00    -0.242 N 
ATOM      6  C   UNL     1       4.752   0.039  -0.195  0.00  0.00    +0.207 C 
ATOM      7  O   UNL     1       5.799  -0.553  -0.355  0.00  0.00    -0.277 OA
BRANCH   5  11
ATOM      8  C   UNL     1      -0.024   1.373   0.257  0.00  0.00    +0.000 A 
ATOM      9  C   UNL     1       0.487   0.717   1.362  0.00  0.00    +0.002 A 
ATOM     10  C   UNL     1       1.690   0.045   1.273  0.00  0.00    +0.024 A 
ATOM     11  C   UNL     1       2.387   0.029   0.072  0.00  0.00    +0.041 A 
ATOM     12  C   UNL     1       1.872   0.688  -1.036  0.00  0.00    +0.024 A 
ATOM     13  C   UNL     1       0.668   1.359  -0.941  0.00  0.00    +0.002 A 
ENDBRANCH   5  11
BRANCH   5  14
ATOM     14  C   UNL     1       3.639  -2.049   0.066  0.00  0.00    +0.041 A 
ATOM     15  C   UNL     1       4.230  -2.665   1.161  0.00  0.00    +0.024 A 
ATOM     16  C   UNL     1       4.259  -4.043   1.244  0.00  0.00    +0.002 A 
ATOM     17  C   UNL     1       3.700  -4.810   0.237  0.00  0.00    +0.000 A 
ATOM     18  C   UNL     1       3.112  -4.199  -0.855  0.00  0.00    +0.002 A 
ATOM     19  C   UNL     1       3.074  -2.821  -0.941  0.00  0.00    +0.024 A 
ENDBRANCH   5  14
ENDBRANCH   4   6
ENDBRANCH   1   4
BRANCH   1  20
ATOM     20  C   UNL     1       6.088   3.523  -0.258  0.00  0.00    -0.063 C 
BRANCH  20  21
ATOM     21  C   UNL     1       7.521   4.053  -0.334  0.00  0.00    +0.082 C 
BRANCH  21  22
ATOM     22  N   UNL     1       7.501   5.518  -0.330  0.00  0.00    -0.345 N 
ATOM     23  H   UNL     1       6.655   5.991  -0.283  0.00  0.00    +0.146 HD
BRANCH  22  24
ATOM     24  C   UNL     1       8.700   6.234  -0.393  0.00  0.00    +0.046 A 
ATOM     25  C   UNL     1       9.911   5.558  -0.466  0.00  0.00    +0.026 A 
ATOM     26  C   UNL     1      11.094   6.268  -0.528  0.00  0.00    +0.034 A 
ATOM     27  C   UNL     1      11.074   7.650  -0.518  0.00  0.00    +0.128 A 
ATOM     28  C   UNL     1       9.870   8.327  -0.445  0.00  0.00    +0.054 A 
ATOM     29  C   UNL     1       8.682   7.623  -0.388  0.00  0.00    +0.064 A 
ATOM     30 CL   UNL     1       7.171   8.474  -0.304  0.00  0.00    -0.082 Cl
BRANCH  27  31
ATOM     31  N   UNL     1      12.344   8.407  -0.584  0.00  0.00    +0.056 N 
ATOM     32  O   UNL     1      13.397   7.817  -0.647  0.00  0.00    -0.126 OA
ATOM     33  O   UNL     1      12.328   9.616  -0.575  0.00  0.00    -0.126 OA
ENDBRANCH  27  31
ENDBRANCH  22  24
ENDBRANCH  21  22
ENDBRANCH  20  21
ENDBRANCH   1  20
TORSDOF 9
