REMARK  Name = ZINC19927809
REMARK  4 active torsions:
REMARK  status: ('A' for Active; 'I' for Inactive)
REMARK    1  A    between atoms: C_4  and  O_27
REMARK    2  A    between atoms: C_5  and  C_7
REMARK    3  A    between atoms: C_10  and  C_22
REMARK    4  A    between atoms: C_12  and  C_15
REMARK                            x       y       z     vdW  Elec       q    Type
REMARK                         _______ _______ _______ _____ _____    ______ ____
ROOT
ATOM      1  C   UNL     1       1.227  -2.187  -0.022  0.00  0.00    +0.095 C 
ATOM      2  C   UNL     1       1.455  -2.692  -1.450  0.00  0.00    +0.079 C 
ATOM      3  C   UNL     1       1.163  -4.166  -1.512  0.00  0.00    +0.054 C 
ATOM      4  N   UNL     1       0.514  -4.791  -0.596  0.00  0.00    -0.264 NA
ATOM      5  C   UNL     1      -0.007  -4.160   0.610  0.00  0.00    +0.204 C 
ATOM      6  N   UNL     1      -0.070  -2.703   0.449  0.00  0.00    -0.284 NA
ATOM      7  H   UNL     1      -0.346  -2.255   1.310  0.00  0.00    +0.125 HD
ENDROOT
BRANCH   5   8
ATOM      8  C   UNL     1      -1.391  -4.688   0.889  0.00  0.00    -0.009 A 
ATOM      9  C   UNL     1      -2.322  -3.887   1.522  0.00  0.00    +0.008 A 
ATOM     10  C   UNL     1      -3.591  -4.370   1.778  0.00  0.00    +0.020 A 
ATOM     11  C   UNL     1      -3.930  -5.657   1.399  0.00  0.00    +0.041 A 
ATOM     12  C   UNL     1      -2.998  -6.459   0.765  0.00  0.00    +0.020 A 
ATOM     13  C   UNL     1      -1.731  -5.972   0.505  0.00  0.00    +0.008 A 
ATOM     14 CL   UNL     1      -5.524  -6.265   1.720  0.00  0.00    -0.084 Cl
ENDBRANCH   5   8
BRANCH   1  19
ATOM     15  C   UNL     1      -0.017   1.378   0.010  0.00  0.00    +0.001 A 
ATOM     16  C   UNL     1       1.170   2.088   0.002  0.00  0.00    +0.004 A 
ATOM     17  C   UNL     1       2.377   1.417  -0.013  0.00  0.00    +0.046 A 
ATOM     18  C   UNL     1       2.399   0.030  -0.021  0.00  0.00    +0.122 A 
ATOM     19  C   UNL     1       1.207  -0.680  -0.013  0.00  0.00    +0.011 A 
ATOM     20  C   UNL     1       0.002  -0.004   0.002  0.00  0.00    +0.009 A 
BRANCH  18  21
ATOM     21  O   UNL     1       3.586  -0.632  -0.037  0.00  0.00    -0.506 OA
ATOM     22  H   UNL     1       3.938  -0.829   0.842  0.00  0.00    +0.292 HD
ENDBRANCH  18  21
ENDBRANCH   1  19
BRANCH   3  23
ATOM     23  C   UNL     1       1.640  -4.924  -2.671  0.00  0.00    +0.033 A 
ATOM     24  C   UNL     1       1.492  -6.273  -2.954  0.00  0.00    +0.017 A 
ATOM     25  C   UNL     1       2.056  -6.700  -4.134  0.00  0.00    +0.008 A 
ATOM     26  C   UNL     1       2.700  -5.803  -4.920  0.00  0.00    +0.046 A 
ATOM     27  S   UNL     1       2.557  -4.350  -4.089  0.00  0.00    -0.095 S 
ENDBRANCH   3  23
TORSDOF 4
