REMARK  Name = ZINC06701826
REMARK  6 active torsions:
REMARK  status: ('A' for Active; 'I' for Inactive)
REMARK    1  A    between atoms: C_1  and  C_2
REMARK    2  A    between atoms: C_4  and  C_24
REMARK    3  A    between atoms: N_19  and  C_20
REMARK    4  A    between atoms: C_20  and  C_21
REMARK    5  A    between atoms: C_20  and  C_22
REMARK    6  A    between atoms: C_20  and  C_23
REMARK                            x       y       z     vdW  Elec       q    Type
REMARK                         _______ _______ _______ _____ _____    ______ ____
ROOT
ATOM      1  C   UNL     1       5.808  -0.734  -1.704  0.00  0.00    +0.067 C 
ATOM      2  C   UNL     1       4.474  -1.390  -1.452  0.00  0.00    +0.061 A 
ATOM      3  C   UNL     1       4.279  -2.681  -0.945  0.00  0.00    +0.048 A 
ATOM      4  C   UNL     1       2.947  -2.898  -0.860  0.00  0.00    +0.045 A 
ATOM      5  N   UNL     1       2.318  -1.779  -1.308  0.00  0.00    -0.202 N 
ATOM      6  N   UNL     1       3.304  -0.850  -1.669  0.00  0.00    -0.169 NA
ATOM      7  C   UNL     1       0.941  -1.587  -1.389  0.00  0.00    +0.257 A 
ATOM      8  N   UNL     1       0.115  -2.585  -1.101  0.00  0.00    -0.177 NA
ATOM      9  C   UNL     1      -1.200  -2.404  -1.178  0.00  0.00    +0.222 A 
ATOM     10  N   UNL     1      -1.687  -1.222  -1.542  0.00  0.00    -0.181 NA
ATOM     11  C   UNL     1      -0.859  -0.223  -1.830  0.00  0.00    +0.224 A 
ATOM     12  N   UNL     1       0.456  -0.407  -1.753  0.00  0.00    -0.177 NA
ATOM     13  N   UNL     1      -1.363   1.005  -2.209  0.00  0.00    -0.295 N 
ATOM     14  C   UNL     1      -2.245   0.874  -3.378  0.00  0.00    +0.136 C 
ATOM     15  C   UNL     1      -2.828   2.246  -3.727  0.00  0.00    +0.179 C 
ATOM     16  O   UNL     1      -1.759   3.168  -3.955  0.00  0.00    -0.377 OA
ATOM     17  C   UNL     1      -0.881   3.321  -2.836  0.00  0.00    +0.179 C 
ATOM     18  C   UNL     1      -0.278   1.960  -2.478  0.00  0.00    +0.136 C 
ATOM     19  N   UNL     1      -2.059  -3.442  -0.880  0.00  0.00    -0.309 N 
ATOM     20  C   UNL     1       2.280  -4.154  -0.361  0.00  0.00    +0.066 C 
ATOM     21  H   UNL     1      -1.705  -4.323  -0.682  0.00  0.00    +0.149 HD
ENDROOT
BRANCH  19  22
ATOM     22  C   UNL     1      -3.506  -3.213  -0.862  0.00  0.00    +0.026 C 
ATOM     23  C   UNL     1      -3.966  -2.752  -2.247  0.00  0.00    +0.031 C 
ATOM     24  C   UNL     1      -4.223  -4.513  -0.493  0.00  0.00    +0.031 C 
ATOM     25  C   UNL     1      -3.840  -2.136   0.171  0.00  0.00    +0.031 C 
ENDBRANCH  19  22
TORSDOF 1
