REMARK  Name = ZINC38681145
REMARK  16 active torsions:
REMARK  status: ('A' for Active; 'I' for Inactive)
REMARK    1  A    between atoms: C_1  and  C_2
REMARK    2  A    between atoms: C_2  and  C_3
REMARK    3  A    between atoms: C_3  and  C_4
REMARK    4  A    between atoms: C_4  and  O_5
REMARK    5  A    between atoms: O_5  and  C_6
REMARK    6  A    between atoms: C_10  and  C_12
REMARK    7  A    between atoms: C_12  and  O_14
REMARK    8  A    between atoms: O_14  and  C_15
REMARK    9  A    between atoms: C_22  and  N_40
REMARK   10  A    between atoms: C_23  and  C_38
REMARK   11  A    between atoms: C_24  and  C_26
REMARK   12  A    between atoms: C_29  and  O_34
REMARK   13  A    between atoms: C_30  and  O_32
REMARK   14  A    between atoms: O_32  and  C_33
REMARK   15  A    between atoms: O_34  and  C_35
REMARK   16  A    between atoms: C_35  and  C_36
REMARK                            x       y       z     vdW  Elec       q    Type
REMARK                         _______ _______ _______ _____ _____    ______ ____
ROOT
ATOM      1  C   UNL     1      -7.073  -8.360   0.041  0.00  0.00    +0.135 A 
ATOM      2  C   UNL     1      -8.222  -7.582   0.008  0.00  0.00    +0.047 A 
ATOM      3  C   UNL     1      -9.464  -8.183   0.045  0.00  0.00    +0.012 A 
ATOM      4  C   UNL     1      -9.570  -9.561   0.116  0.00  0.00    +0.008 A 
ATOM      5  C   UNL     1      -8.426 -10.343   0.149  0.00  0.00    +0.138 A 
ATOM      6  C   UNL     1      -7.176  -9.740   0.106  0.00  0.00    +0.093 A 
ATOM      7  O   UNL     1      -8.510 -11.695   0.219  0.00  0.00    -0.441 OA
ATOM      8  C   UNL     1      -9.647 -12.275   0.637  0.00  0.00    +0.199 C 
ATOM      9  C   UNL     1     -10.831 -11.619   0.633  0.00  0.00    +0.098 C 
ATOM     10  C   UNL     1     -10.934 -10.197   0.156  0.00  0.00    +0.098 C 
ENDROOT
BRANCH  10  11
ATOM     11  C   UNL     1     -11.535 -10.178  -1.226  0.00  0.00    -0.031 A 
ATOM     12  C   UNL     1     -10.895 -10.828  -2.265  0.00  0.00    +0.008 A 
ATOM     13  C   UNL     1     -11.442 -10.812  -3.535  0.00  0.00    +0.050 A 
ATOM     14  C   UNL     1     -12.634 -10.145  -3.768  0.00  0.00    +0.162 A 
ATOM     15  C   UNL     1     -13.278  -9.491  -2.722  0.00  0.00    +0.162 A 
ATOM     16  C   UNL     1     -12.727  -9.515  -1.450  0.00  0.00    +0.054 A 
BRANCH  15  17
ATOM     17  O   UNL     1     -14.448  -8.835  -2.945  0.00  0.00    -0.491 OA
ATOM     18  C   UNL     1     -15.053  -8.187  -1.825  0.00  0.00    +0.277 C 
ENDBRANCH  15  17
BRANCH  14  19
ATOM     19  O   UNL     1     -13.173 -10.129  -5.016  0.00  0.00    -0.484 OA
BRANCH  19  20
ATOM     20  C   UNL     1     -12.457 -10.821  -6.041  0.00  0.00    +0.256 C 
BRANCH  20  21
ATOM     21  C   UNL     1     -13.201 -10.694  -7.346  0.00  0.00    +0.006 C 
ATOM     22  C   UNL     1     -12.550 -10.405  -8.445  0.00  0.00    +0.007 C 
ENDBRANCH  20  21
ENDBRANCH  19  20
ENDBRANCH  14  19
ENDBRANCH  10  11
BRANCH   8  23
ATOM     23  N   UNL     1      -9.607 -13.573   1.082  0.00  0.00    -0.328 N 
ATOM     24  H   UNL     1      -8.766 -14.057   1.091  0.00  0.00    +0.145 HD
ATOM     25  H   UNL     1     -10.419 -14.007   1.388  0.00  0.00    +0.145 HD
ENDBRANCH   8  23
BRANCH   9  26
ATOM     26  C   UNL     1     -12.008 -12.292   1.093  0.00  0.00    +0.101 C 
ATOM     27  N   UNL     1     -12.942 -12.826   1.458  0.00  0.00    -0.191 NA
ENDBRANCH   9  26
BRANCH   1  28
ATOM     28  O   UNL     1      -5.849  -7.770   0.004  0.00  0.00    -0.422 OA
BRANCH  28  29
ATOM     29  C   UNL     1      -5.388  -7.199   1.134  0.00  0.00    +0.345 C 
ATOM     30  O   UNL     1      -6.097  -7.143   2.119  0.00  0.00    -0.245 OA
BRANCH  29  35
ATOM     31  C   UNL     1      -2.259  -5.528   2.375  0.00  0.00    +0.121 A 
ATOM     32  C   UNL     1      -1.454  -5.596   1.245  0.00  0.00    +0.046 A 
ATOM     33  C   UNL     1      -1.928  -6.182   0.086  0.00  0.00    +0.004 A 
ATOM     34  C   UNL     1      -3.204  -6.704   0.044  0.00  0.00    +0.015 A 
ATOM     35  C   UNL     1      -4.021  -6.641   1.175  0.00  0.00    +0.063 A 
ATOM     36  C   UNL     1      -3.539  -6.054   2.346  0.00  0.00    +0.060 A 
BRANCH  31  37
ATOM     37  O   UNL     1      -1.787  -4.950   3.511  0.00  0.00    -0.492 OA
BRANCH  37  38
ATOM     38  C   UNL     1      -0.457  -4.429   3.470  0.00  0.00    +0.229 C 
BRANCH  38  39
ATOM     39  C   UNL     1      -0.105  -3.823   4.830  0.00  0.00    +0.041 C 
BRANCH  39  41
ATOM     40  C   UNL     1       1.671  -2.658   6.146  0.00  0.00    +0.004 C 
ATOM     41  C   UNL     1       1.319  -3.264   4.786  0.00  0.00    -0.000 C 
ENDBRANCH  39  41
ENDBRANCH  38  39
ENDBRANCH  37  38
ENDBRANCH  31  37
ENDBRANCH  29  35
ENDBRANCH  28  29
ENDBRANCH   1  28
TORSDOF 14
