REMARK  Name = ZINC02656649
REMARK  5 active torsions:
REMARK  status: ('A' for Active; 'I' for Inactive)
REMARK    1  A    between atoms: C_1  and  C_2
REMARK    2  A    between atoms: C_2  and  C_4
REMARK    3  A    between atoms: C_2  and  S_10
REMARK    4  A    between atoms: S_10  and  C_11
REMARK    5  A    between atoms: C_14  and  C_16
REMARK                            x       y       z     vdW  Elec       q    Type
REMARK                         _______ _______ _______ _____ _____    ______ ____
ROOT
ATOM      1  C   UNL     1      -3.087   9.033   0.082  0.00  0.00    +0.278 A 
ATOM      2  N   UNL     1      -1.814   9.354   0.072  0.00  0.00    -0.101 NA
ATOM      3  N   UNL     1      -1.102   8.283   0.065  0.00  0.00    -0.106 NA
ATOM      4  C   UNL     1      -1.892   7.234   0.060  0.00  0.00    +0.257 A 
ATOM      5  O   UNL     1      -3.166   7.689   0.075  0.00  0.00    -0.410 OA
ENDROOT
BRANCH   4   6
ATOM      6  C   UNL     1      -1.470   5.826   0.048  0.00  0.00    +0.095 A 
ATOM      7  C   UNL     1      -0.207   5.325   0.033  0.00  0.00    +0.068 A 
ATOM      8  C   UNL     1      -0.021   3.885   0.023  0.00  0.00    +0.008 A 
ATOM      9  C   UNL     1       1.190   3.150   0.007  0.00  0.00    +0.010 A 
ATOM     10  C   UNL     1       1.178   1.791   0.000  0.00  0.00    +0.001 A 
ATOM     11  C   UNL     1      -0.013   1.076   0.008  0.00  0.00    +0.001 A 
ATOM     12  C   UNL     1      -1.215   1.755   0.017  0.00  0.00    +0.016 A 
ATOM     13  C   UNL     1      -1.218   3.133   0.030  0.00  0.00    +0.021 A 
ATOM     14  S   UNL     1      -2.493   4.366   0.049  0.00  0.00    -0.082 S 
ATOM     15 CL   UNL     1       1.163   6.391   0.025  0.00  0.00    -0.082 Cl
ENDBRANCH   4   6
BRANCH   1  16
ATOM     16  S   UNL     1      -4.445  10.156   0.102  0.00  0.00    -0.053 S 
BRANCH  16  18
ATOM     17  C   UNL     1      -2.757  11.865   1.403  0.00  0.00    +0.029 C 
ATOM     18  C   UNL     1      -3.551  11.730   0.103  0.00  0.00    +0.139 C 
BRANCH  18  19
ATOM     19  C   UNL     1      -4.535  12.867  -0.005  0.00  0.00    +0.234 C 
ATOM     20  O   UNL     1      -5.678  12.716   0.370  0.00  0.00    -0.274 OA
ATOM     21  N   UNL     1      -4.144  14.050  -0.517  0.00  0.00    -0.239 N 
ATOM     22  C   UNL     1      -5.024  15.067  -0.614  0.00  0.00    +0.303 C 
ATOM     23  O   UNL     1      -6.170  14.916  -0.238  0.00  0.00    -0.253 OA
ATOM     24  N   UNL     1      -4.633  16.250  -1.127  0.00  0.00    -0.313 N 
ATOM     25  H   UNL     1      -3.229  14.171  -0.817  0.00  0.00    +0.159 HD
ATOM     26  H   UNL     1      -3.718  16.370  -1.426  0.00  0.00    +0.146 HD
ATOM     27  H   UNL     1      -5.266  16.982  -1.196  0.00  0.00    +0.146 HD
ENDBRANCH  18  19
ENDBRANCH  16  18
ENDBRANCH   1  16
TORSDOF 4
