REMARK  Name = ZINC08553728
REMARK  4 active torsions:
REMARK  status: ('A' for Active; 'I' for Inactive)
REMARK    1  A    between atoms: C_4  and  N_7
REMARK    2  A    between atoms: C_8  and  C_10
REMARK    3  A    between atoms: N_20  and  C_21
REMARK    4  A    between atoms: C_25  and  C_27
REMARK                            x       y       z     vdW  Elec       q    Type
REMARK                         _______ _______ _______ _____ _____    ______ ____
ROOT
ATOM      1  C   UNL     1       1.014   7.363   0.386  0.00  0.00    +0.099 A 
ATOM      2  C   UNL     1       2.033   7.937   1.139  0.00  0.00    +0.030 A 
ATOM      3  C   UNL     1       3.100   7.106   1.562  0.00  0.00    +0.019 A 
ATOM      4  C   UNL     1       4.056   7.576   2.469  0.00  0.00    +0.017 A 
ATOM      5  C   UNL     1       5.035   6.741   2.940  0.00  0.00    -0.025 A 
ATOM      6  C   UNL     1       5.089   5.408   2.522  0.00  0.00    +0.040 A 
ATOM      7  C   UNL     1       4.186   4.942   1.572  0.00  0.00    +0.017 A 
ATOM      8  C   UNL     1       3.198   5.788   1.083  0.00  0.00    +0.142 A 
ATOM      9  O   UNL     1       2.332   5.341   0.140  0.00  0.00    -0.436 OA
ATOM     10  C   UNL     1       1.101   5.914   0.121  0.00  0.00    +0.233 A 
ATOM     11  N   UNL     1       0.023   5.203  -0.130  0.00  0.00    -0.213 NA
ATOM     12  C   UNL     1       4.229   3.550   1.008  0.00  0.00    +0.042 C 
ATOM     13  C   UNL     1       5.364   2.723   1.594  0.00  0.00    +0.024 C 
ATOM     14  C   UNL     1       5.608   3.153   3.040  0.00  0.00    +0.105 C 
ATOM     15  N   UNL     1       6.050   4.553   3.045  0.00  0.00    -0.329 N 
ATOM     16  C   UNL     1       6.460   4.944   4.399  0.00  0.00    +0.105 C 
ATOM     17  C   UNL     1       7.082   6.339   4.339  0.00  0.00    +0.024 C 
ATOM     18  C   UNL     1       6.029   7.342   3.897  0.00  0.00    +0.038 C 
ENDROOT
BRANCH  11  19
ATOM     19  C   UNL     1       0.116   3.845  -0.267  0.00  0.00    +0.068 A 
ATOM     20  C   UNL     1       0.264   3.277  -1.536  0.00  0.00    +0.028 A 
ATOM     21  C   UNL     1       0.359   1.908  -1.676  0.00  0.00    +0.003 A 
ATOM     22  C   UNL     1       0.308   1.089  -0.565  0.00  0.00    +0.013 A 
ATOM     23  C   UNL     1       0.155   1.641   0.709  0.00  0.00    +0.038 A 
ATOM     24  C   UNL     1       0.064   3.023   0.858  0.00  0.00    +0.041 A 
BRANCH  23  25
ATOM     25  C   UNL     1       0.095   0.762   1.896  0.00  0.00    +0.242 C 
ATOM     26  O   UNL     1      -0.038   1.244   3.003  0.00  0.00    -0.270 OA
ATOM     27  N   UNL     1       0.189  -0.575   1.750  0.00  0.00    -0.325 N 
ATOM     28  H   UNL     1       0.296  -0.960   0.866  0.00  0.00    +0.145 HD
ATOM     29  H   UNL     1       0.150  -1.152   2.528  0.00  0.00    +0.145 HD
ENDBRANCH  23  25
ENDBRANCH  11  19
BRANCH   1  31
ATOM     30  N   UNL     1      -1.083   7.580  -0.847  0.00  0.00    -0.281 N 
ATOM     31  C   UNL     1      -0.108   8.166  -0.124  0.00  0.00    +0.253 C 
ATOM     32  O   UNL     1      -0.157   9.360   0.108  0.00  0.00    -0.270 OA
ATOM     33  H   UNL     1      -1.084   6.618  -0.969  0.00  0.00    +0.155 HD
BRANCH  30  37
ATOM     34  C   UNL     1      -4.089   9.902  -2.557  0.00  0.00    +0.000 A 
ATOM     35  C   UNL     1      -2.810  10.412  -2.432  0.00  0.00    +0.002 A 
ATOM     36  C   UNL     1      -1.811   9.645  -1.865  0.00  0.00    +0.023 A 
ATOM     37  C   UNL     1      -2.092   8.360  -1.421  0.00  0.00    +0.034 A 
ATOM     38  C   UNL     1      -3.377   7.848  -1.554  0.00  0.00    +0.023 A 
ATOM     39  C   UNL     1      -4.372   8.622  -2.116  0.00  0.00    +0.002 A 
ENDBRANCH  30  37
ENDBRANCH   1  31
TORSDOF 4
