REMARK  Name = ZINC08713869
REMARK  12 active torsions:
REMARK  status: ('A' for Active; 'I' for Inactive)
REMARK    1  A    between atoms: C_1  and  C_2
REMARK    2  A    between atoms: C_2  and  C_3
REMARK    3  A    between atoms: C_3  and  C_4
REMARK    4  A    between atoms: C_4  and  C_5
REMARK    5  A    between atoms: C_5  and  O_6
REMARK    6  A    between atoms: O_6  and  C_7
REMARK    7  A    between atoms: C_8  and  O_26
REMARK    8  A    between atoms: C_10  and  C_14
REMARK    9  A    between atoms: N_18  and  C_22
REMARK   10  A    between atoms: C_22  and  C_23
REMARK   11  A    between atoms: C_23  and  C_24
REMARK   12  A    between atoms: O_26  and  C_27
REMARK                            x       y       z     vdW  Elec       q    Type
REMARK                         _______ _______ _______ _____ _____    ______ ____
ROOT
ATOM      1  C   UNL     1       1.132   2.537  -0.148  0.00  0.00    +0.176 A 
ATOM      2  C   UNL     1       1.110   3.902  -0.432  0.00  0.00    +0.163 A 
ATOM      3  C   UNL     1      -0.079   4.602  -0.368  0.00  0.00    +0.057 A 
ATOM      4  C   UNL     1      -1.261   3.938  -0.018  0.00  0.00    -0.019 A 
ATOM      5  C   UNL     1      -1.232   2.566   0.260  0.00  0.00    +0.027 A 
ATOM      6  C   UNL     1      -0.039   1.876   0.199  0.00  0.00    +0.064 A 
ATOM      7 BR   UNL     1       0.001   0.025   0.582  0.00  0.00    -0.046 Br
ENDROOT
BRANCH   4   8
ATOM      8  C   UNL     1      -2.528   4.676   0.052  0.00  0.00    +0.028 C 
ATOM      9  C   UNL     1      -3.637   4.076   0.556  0.00  0.00    +0.077 C 
ATOM     10  C   UNL     1      -5.034   4.553   0.587  0.00  0.00    +0.258 C 
ATOM     11  O   UNL     1      -5.352   5.631   0.120  0.00  0.00    -0.269 OA
ATOM     12  N   UNL     1      -5.922   3.750   1.148  0.00  0.00    -0.255 N 
ATOM     13  C   UNL     1      -5.565   2.556   1.665  0.00  0.00    +0.121 C 
ATOM     14  S   UNL     1      -6.559   1.387   2.425  0.00  0.00    -0.027 S 
ATOM     15  S   UNL     1      -3.808   2.487   1.358  0.00  0.00    -0.061 S 
BRANCH  12  16
ATOM     16  C   UNL     1      -7.325   4.166   1.210  0.00  0.00    +0.126 C 
BRANCH  16  17
ATOM     17  C   UNL     1      -8.055   3.686  -0.046  0.00  0.00    +0.144 C 
BRANCH  17  18
ATOM     18  C   UNL     1      -9.499   4.114   0.017  0.00  0.00    +0.358 C 
ATOM     19  O   UNL     1      -9.902   4.739   0.969  0.00  0.00    -0.246 OA
ATOM     20  O   UNL     1     -10.336   3.800  -0.984  0.00  0.00    -0.246 OA
ENDBRANCH  17  18
ENDBRANCH  16  17
ENDBRANCH  12  16
ENDBRANCH   4   8
BRANCH   2  21
ATOM     21  O   UNL     1       2.259   4.545  -0.771  0.00  0.00    -0.491 OA
ATOM     22  C   UNL     1       2.163   5.943  -1.049  0.00  0.00    +0.277 C 
ENDBRANCH   2  21
BRANCH   1  23
ATOM     23  O   UNL     1       2.303   1.852  -0.212  0.00  0.00    -0.487 OA
BRANCH  23  24
ATOM     24  C   UNL     1       2.645   1.265  -1.469  0.00  0.00    +0.229 C 
BRANCH  24  25
ATOM     25  C   UNL     1       3.987   0.541  -1.347  0.00  0.00    +0.041 C 
BRANCH  25  26
ATOM     26  C   UNL     1       4.352  -0.087  -2.693  0.00  0.00    +0.003 C 
BRANCH  26  28
ATOM     27  C   UNL     1       6.060  -1.440  -3.917  0.00  0.00    +0.004 C 
ATOM     28  C   UNL     1       5.694  -0.812  -2.570  0.00  0.00    -0.003 C 
ENDBRANCH  26  28
ENDBRANCH  25  26
ENDBRANCH  24  25
ENDBRANCH  23  24
ENDBRANCH   1  23
TORSDOF 10
