REMARK  Name = ZINC00664069
REMARK  5 active torsions:
REMARK  status: ('A' for Active; 'I' for Inactive)
REMARK    1  A    between atoms: C_6  and  C_7
REMARK    2  A    between atoms: C_7  and  N_8
REMARK    3  A    between atoms: C_9  and  C_11
REMARK    4  A    between atoms: C_12  and  N_27
REMARK    5  A    between atoms: C_14  and  C_23
REMARK                            x       y       z     vdW  Elec       q    Type
REMARK                         _______ _______ _______ _____ _____    ______ ____
ROOT
ATOM      1  C   UNL     1      -3.474  -1.814  -3.044  0.00  0.00    +0.097 A 
ATOM      2  C   UNL     1      -4.364  -2.785  -3.447  0.00  0.00    +0.054 A 
ATOM      3  C   UNL     1      -4.338  -3.210  -4.838  0.00  0.00    +0.041 A 
ATOM      4  C   UNL     1      -5.143  -4.180  -5.484  0.00  0.00    +0.071 A 
ATOM      5  C   UNL     1      -4.950  -4.433  -6.824  0.00  0.00    -0.014 A 
ATOM      6  C   UNL     1      -3.976  -3.742  -7.531  0.00  0.00    +0.046 A 
ATOM      7  N   UNL     1      -3.228  -2.838  -6.923  0.00  0.00    -0.244 NA
ATOM      8  C   UNL     1      -3.375  -2.563  -5.646  0.00  0.00    +0.112 A 
ATOM      9  S   UNL     1      -2.573  -1.435  -4.534  0.00  0.00    -0.062 S 
ATOM     10  C   UNL     1      -3.969  -4.204  -8.973  0.00  0.00    +0.056 C 
ATOM     11  C   UNL     1      -4.730  -5.547  -8.971  0.00  0.00    +0.011 C 
ATOM     12  C   UNL     1      -5.658  -5.402  -7.747  0.00  0.00    +0.038 C 
ENDROOT
BRANCH   1  14
ATOM     13  N   UNL     1      -2.387  -0.295  -1.545  0.00  0.00    -0.307 N 
ATOM     14  C   UNL     1      -3.317  -1.248  -1.754  0.00  0.00    +0.253 C 
ATOM     15  O   UNL     1      -4.021  -1.624  -0.834  0.00  0.00    -0.270 OA
ATOM     16  H   UNL     1      -1.826   0.004  -2.277  0.00  0.00    +0.149 HD
BRANCH  13  17
ATOM     17  C   UNL     1      -2.225   0.290  -0.211  0.00  0.00    +0.139 C 
BRANCH  17  23
ATOM     18  C   UNL     1      -1.431   2.642  -0.535  0.00  0.00    +0.006 A 
ATOM     19  C   UNL     1      -0.426   3.590  -0.567  0.00  0.00    +0.020 A 
ATOM     20  C   UNL     1       0.882   3.221  -0.310  0.00  0.00    +0.041 A 
ATOM     21  C   UNL     1       1.184   1.902  -0.022  0.00  0.00    +0.020 A 
ATOM     22  C   UNL     1       0.178   0.954   0.010  0.00  0.00    +0.006 A 
ATOM     23  C   UNL     1      -1.129   1.324  -0.247  0.00  0.00    -0.030 A 
ATOM     24 CL   UNL     1       2.144   4.412  -0.351  0.00  0.00    -0.084 Cl
ENDBRANCH  17  23
ENDBRANCH  13  17
ENDBRANCH   1  14
BRANCH   4  25
ATOM     25  C   UNL     1      -6.199  -4.928  -4.712  0.00  0.00    +0.418 C 
ATOM     26  F   UNL     1      -7.247  -4.058  -4.393  0.00  0.00    -0.166 F 
ATOM     27  F   UNL     1      -6.689  -5.981  -5.492  0.00  0.00    -0.166 F 
ATOM     28  F   UNL     1      -5.643  -5.439  -3.534  0.00  0.00    -0.166 F 
ENDBRANCH   4  25
BRANCH   2  29
ATOM     29  N   UNL     1      -5.263  -3.344  -2.549  0.00  0.00    -0.356 N 
ATOM     30  H   UNL     1      -5.036  -3.401  -1.608  0.00  0.00    +0.142 HD
ATOM     31  H   UNL     1      -6.118  -3.677  -2.863  0.00  0.00    +0.142 HD
ENDBRANCH   2  29
TORSDOF 5
