REMARK  Name = ZINC51364305
REMARK  10 active torsions:
REMARK  status: ('A' for Active; 'I' for Inactive)
REMARK    1  A    between atoms: C_1  and  C_2
REMARK    2  A    between atoms: C_2  and  N_3
REMARK    3  A    between atoms: N_6  and  C_9
REMARK    4  A    between atoms: C_18  and  C_24
REMARK    5  A    between atoms: N_20  and  C_21
REMARK    6  A    between atoms: C_24  and  O_26
REMARK    7  A    between atoms: O_26  and  C_27
REMARK    8  A    between atoms: C_27  and  C_28
REMARK    9  A    between atoms: N_30  and  C_31
REMARK   10  A    between atoms: C_31  and  C_32
REMARK                            x       y       z     vdW  Elec       q    Type
REMARK                         _______ _______ _______ _____ _____    ______ ____
ROOT
ATOM      1  C   UNL     1       0.525  -2.351   4.979  0.00  0.00    +0.067 A 
ATOM      2  C   UNL     1      -0.611  -3.142   4.926  0.00  0.00    +0.052 A 
ATOM      3  C   UNL     1      -0.792  -4.154   5.861  0.00  0.00    +0.055 A 
ATOM      4  C   UNL     1       0.187  -4.358   6.851  0.00  0.00    +0.049 A 
ATOM      5  C   UNL     1       1.327  -3.551   6.892  0.00  0.00    +0.054 A 
ATOM      6  C   UNL     1       1.494  -2.565   5.962  0.00  0.00    +0.145 A 
ATOM      7  F   UNL     1       2.600  -1.789   5.997  0.00  0.00    -0.204 F 
ATOM      8  C   UNL     1      -0.019  -5.433   7.836  0.00  0.00    +0.203 A 
ATOM      9  O   UNL     1       0.796  -5.653   8.715  0.00  0.00    -0.286 OA
ATOM     10  C   UNL     1      -1.251  -6.231   7.714  0.00  0.00    +0.122 A 
ATOM     11  C   UNL     1      -2.139  -5.937   6.700  0.00  0.00    +0.105 A 
ATOM     12  N   UNL     1      -1.918  -4.949   5.822  0.00  0.00    -0.343 N 
ENDROOT
BRANCH   1  16
ATOM     13  N   UNL     1       0.212   0.345   1.864  0.00  0.00    +0.382 N 
ATOM     14  C   UNL     1      -0.605   0.477   3.076  0.00  0.00    -0.060 C 
ATOM     15  C   UNL     1       0.209   0.024   4.293  0.00  0.00    +0.086 C 
ATOM     16  N   UNL     1       0.706  -1.338   4.040  0.00  0.00    -0.331 N 
ATOM     17  C   UNL     1       1.397  -1.599   2.768  0.00  0.00    +0.086 C 
ATOM     18  C   UNL     1       0.526  -1.069   1.624  0.00  0.00    -0.060 C 
ATOM     19  H   UNL     1       1.070   0.864   1.981  0.00  0.00    -0.082 HD
BRANCH  13  21
ATOM     20  C   UNL     1      -0.749   2.384   0.906  0.00  0.00    -0.017 C 
ATOM     21  C   UNL     1      -0.529   0.882   0.715  0.00  0.00    -0.082 C 
ENDBRANCH  13  21
ENDBRANCH   1  16
BRANCH  12  22
ATOM     22  C   UNL     1      -2.914  -4.705   4.776  0.00  0.00    +0.087 C 
ATOM     23  C   UNL     1      -4.286  -5.362   4.939  0.00  0.00    +0.027 C 
ATOM     24  C   UNL     1      -3.308  -5.885   3.885  0.00  0.00    +0.027 C 
ENDBRANCH  12  22
BRANCH  10  25
ATOM     25  C   UNL     1      -1.530  -7.322   8.658  0.00  0.00    +0.345 C 
ATOM     26  O   UNL     1      -2.550  -7.974   8.549  0.00  0.00    -0.245 OA
BRANCH  25  27
ATOM     27  O   UNL     1      -0.654  -7.600   9.645  0.00  0.00    -0.452 OA
BRANCH  27  28
ATOM     28  C   UNL     1      -0.989  -8.674  10.525  0.00  0.00    +0.328 C 
BRANCH  28  29
ATOM     29  C   UNL     1       0.099  -8.836  11.556  0.00  0.00    +0.251 C 
ATOM     30  O   UNL     1       1.065  -8.104  11.538  0.00  0.00    -0.272 OA
ATOM     31  N   UNL     1      -0.003  -9.795  12.498  0.00  0.00    -0.305 N 
ATOM     32  H   UNL     1      -0.776 -10.381  12.512  0.00  0.00    +0.149 HD
BRANCH  31  33
ATOM     33  C   UNL     1       1.054  -9.953  13.499  0.00  0.00    +0.178 C 
BRANCH  33  34
ATOM     34  C   UNL     1       0.701 -11.086  14.428  0.00  0.00    +0.122 A 
ATOM     35  C   UNL     1       1.040 -12.377  14.259  0.00  0.00    +0.046 A 
ATOM     36  C   UNL     1       0.506 -13.088  15.358  0.00  0.00    +0.041 A 
ATOM     37  C   UNL     1      -0.126 -12.189  16.134  0.00  0.00    +0.195 A 
ATOM     38  O   UNL     1       0.000 -10.977  15.569  0.00  0.00    -0.466 OA
ENDBRANCH  33  34
ENDBRANCH  31  33
ENDBRANCH  28  29
ENDBRANCH  27  28
ENDBRANCH  25  27
ENDBRANCH  10  25
TORSDOF 9
