REMARK  Name = ZINC39552266
REMARK  9 active torsions:
REMARK  status: ('A' for Active; 'I' for Inactive)
REMARK    1  A    between atoms: C_1  and  C_2
REMARK    2  A    between atoms: C_4  and  C_22
REMARK    3  A    between atoms: C_6  and  C_9
REMARK    4  A    between atoms: C_14  and  N_15
REMARK    5  A    between atoms: C_16  and  C_18
REMARK    6  A    between atoms: C_22  and  N_23
REMARK    7  A    between atoms: C_24  and  C_26
REMARK    8  A    between atoms: C_26  and  C_27
REMARK    9  A    between atoms: C_27  and  N_28
REMARK                            x       y       z     vdW  Elec       q    Type
REMARK                         _______ _______ _______ _____ _____    ______ ____
ROOT
ATOM      1  C   UNL     1      -0.013   1.535   0.019  0.00  0.00    +0.044 C 
ATOM      2  C   UNL     1       0.013   0.005   0.004  0.00  0.00    +0.164 C 
ATOM      3  C   UNL     1       0.759  -0.497  -1.212  0.00  0.00    +0.062 C 
ATOM      4  N   UNL     1       1.540  -1.443  -0.848  0.00  0.00    -0.253 NA
ATOM      5  C   UNL     1       1.405  -1.669   0.596  0.00  0.00    +0.268 C 
ATOM      6  O   UNL     1       0.761  -0.496   1.131  0.00  0.00    -0.342 OA
ENDROOT
BRANCH   5   7
ATOM      7  C   UNL     1       2.765  -1.847   1.221  0.00  0.00    +0.024 A 
ATOM      8  C   UNL     1       3.901  -1.507   0.514  0.00  0.00    +0.010 A 
ATOM      9  C   UNL     1       5.149  -1.670   1.087  0.00  0.00    +0.001 A 
ATOM     10  C   UNL     1       5.263  -2.174   2.370  0.00  0.00    +0.002 A 
ATOM     11  C   UNL     1       4.131  -2.516   3.083  0.00  0.00    +0.024 A 
ATOM     12  C   UNL     1       2.876  -2.349   2.511  0.00  0.00    +0.041 A 
BRANCH  12  13
ATOM     13  N   UNL     1       1.726  -2.689   3.233  0.00  0.00    -0.285 N 
ATOM     14  C   UNL     1       1.747  -3.739   4.078  0.00  0.00    +0.220 C 
ATOM     15  O   UNL     1       2.783  -4.338   4.275  0.00  0.00    -0.275 OA
ATOM     16  H   UNL     1       0.914  -2.170   3.124  0.00  0.00    +0.155 HD
BRANCH  14  17
ATOM     17  C   UNL     1       0.483  -4.168   4.778  0.00  0.00    +0.075 C 
ATOM     18  C   UNL     1       0.170  -3.348   6.041  0.00  0.00    +0.013 C 
ATOM     19  C   UNL     1      -0.267  -4.670   6.694  0.00  0.00    +0.001 C 
ATOM     20  C   UNL     1       0.674  -5.379   5.706  0.00  0.00    +0.013 C 
ENDBRANCH  14  17
ENDBRANCH  12  13
ENDBRANCH   5   7
BRANCH   3  21
ATOM     21  C   UNL     1       0.607   0.028  -2.616  0.00  0.00    +0.157 C 
BRANCH  21  22
ATOM     22  N   UNL     1       1.497  -0.713  -3.514  0.00  0.00    -0.310 N 
ATOM     23  C   UNL     1       1.531  -0.414  -4.827  0.00  0.00    +0.215 C 
ATOM     24  O   UNL     1       0.824   0.468  -5.267  0.00  0.00    -0.276 OA
ATOM     25  H   UNL     1       2.062  -1.419  -3.162  0.00  0.00    +0.149 HD
BRANCH  23  26
ATOM     26  C   UNL     1       2.446  -1.177  -5.750  0.00  0.00    +0.117 C 
BRANCH  26  27
ATOM     27  C   UNL     1       2.292  -0.644  -7.176  0.00  0.00    +0.136 C 
BRANCH  27  28
ATOM     28  N   UNL     1       3.182  -1.385  -8.073  0.00  0.00    -0.292 N 
ATOM     29  C   UNL     1       4.499  -1.048  -8.376  0.00  0.00    +0.070 A 
ATOM     30  C   UNL     1       5.332  -0.012  -7.979  0.00  0.00    +0.028 A 
ATOM     31  C   UNL     1       6.623   0.055  -8.463  0.00  0.00    +0.002 A 
ATOM     32  C   UNL     1       7.090  -0.906  -9.344  0.00  0.00    +0.002 A 
ATOM     33  C   UNL     1       6.268  -1.940  -9.745  0.00  0.00    +0.028 A 
ATOM     34  C   UNL     1       4.970  -2.017  -9.264  0.00  0.00    +0.067 A 
ATOM     35  N   UNL     1       3.924  -2.913  -9.473  0.00  0.00    -0.306 N 
ATOM     36  H   UNL     1       3.954  -3.696 -10.045  0.00  0.00    +0.170 HD
ATOM     37  C   UNL     1       2.868  -2.511  -8.741  0.00  0.00    +0.328 A 
ATOM     38  O   UNL     1       1.792  -3.077  -8.694  0.00  0.00    -0.247 OA
ENDBRANCH  27  28
ENDBRANCH  26  27
ENDBRANCH  23  26
ENDBRANCH  21  22
ENDBRANCH   3  21
TORSDOF 8
