REMARK  Name = ZINC33792727
REMARK  10 active torsions:
REMARK  status: ('A' for Active; 'I' for Inactive)
REMARK    1  A    between atoms: C_1  and  C_2
REMARK    2  A    between atoms: C_2  and  C_3
REMARK    3  A    between atoms: C_3  and  C_5
REMARK    4  A    between atoms: C_3  and  N_6
REMARK    5  A    between atoms: C_7  and  C_31
REMARK    6  A    between atoms: C_15  and  C_21
REMARK    7  A    between atoms: N_23  and  C_24
REMARK    8  A    between atoms: N_33  and  C_34
REMARK    9  A    between atoms: C_39  and  C_44
REMARK   10  A    between atoms: C_41  and  C_43
REMARK                            x       y       z     vdW  Elec       q    Type
REMARK                         _______ _______ _______ _____ _____    ______ ____
ROOT
ATOM      1  N   UNL     1      -3.629   1.956  -0.168  0.00  0.00    -0.284 N 
ATOM      2  C   UNL     1      -2.511   0.992   0.079  0.00  0.00    +0.199 C 
ATOM      3  C   UNL     1      -2.934   0.351   1.365  0.00  0.00    +0.127 C 
ATOM      4  C   UNL     1      -4.118  -0.583   1.196  0.00  0.00    +0.009 C 
ATOM      5  C   UNL     1      -4.364  -1.073   2.403  0.00  0.00    +0.004 C 
ATOM      6  C   UNL     1      -3.355  -0.379   3.326  0.00  0.00    +0.155 C 
ATOM      7  O   UNL     1      -2.189  -0.219   2.415  0.00  0.00    -0.358 OA
ATOM      8  C   UNL     1      -3.924   1.091   3.396  0.00  0.00    +0.123 C 
ATOM      9  C   UNL     1      -3.426   1.665   2.094  0.00  0.00    +0.128 C 
ATOM     10  C   UNL     1      -4.237   2.272   1.023  0.00  0.00    +0.224 C 
ATOM     11  O   UNL     1      -5.249   2.925   1.166  0.00  0.00    -0.275 OA
ENDROOT
BRANCH   8  12
ATOM     12  C   UNL     1      -5.430   1.086   3.446  0.00  0.00    +0.224 C 
ATOM     13  O   UNL     1      -6.070   0.959   2.424  0.00  0.00    -0.275 OA
ATOM     14  N   UNL     1      -6.065   1.223   4.627  0.00  0.00    -0.285 N 
ATOM     15  H   UNL     1      -5.488   1.417   5.543  0.00  0.00    +0.155 HD
BRANCH  14  16
ATOM     16  C   UNL     1      -7.460   1.119   4.687  0.00  0.00    +0.033 A 
ATOM     17  C   UNL     1      -8.239   1.602   3.644  0.00  0.00    +0.025 A 
ATOM     18  C   UNL     1      -9.615   1.494   3.704  0.00  0.00    +0.022 A 
ATOM     19  C   UNL     1     -10.217   0.914   4.807  0.00  0.00    +0.041 A 
ATOM     20  C   UNL     1      -9.443   0.436   5.850  0.00  0.00    +0.022 A 
ATOM     21  C   UNL     1      -8.067   0.537   5.792  0.00  0.00    +0.025 A 
ATOM     22 CL   UNL     1     -11.947   0.785   4.882  0.00  0.00    -0.084 Cl
ENDBRANCH  14  16
ENDBRANCH   8  12
BRANCH   2  23
ATOM     23  C   UNL     1      -1.201   1.717   0.244  0.00  0.00    +0.237 C 
ATOM     24  O   UNL     1      -1.186   2.924   0.364  0.00  0.00    -0.274 OA
ATOM     25  N   UNL     1      -0.044   1.024   0.258  0.00  0.00    -0.311 N 
ATOM     26  H   UNL     1      -0.058  -0.070   0.154  0.00  0.00    +0.149 HD
BRANCH  25  27
ATOM     27  C   UNL     1       1.230   1.730   0.413  0.00  0.00    +0.076 C 
ATOM     28  C   UNL     1       1.707   2.226  -0.954  0.00  0.00    +0.022 C 
ATOM     29  C   UNL     1       3.038   2.963  -0.793  0.00  0.00    +0.002 C 
ATOM     30  C   UNL     1       4.081   2.011  -0.203  0.00  0.00    +0.003 C 
ATOM     31  C   UNL     1       3.603   1.515   1.163  0.00  0.00    -0.009 C 
ATOM     32  C   UNL     1       2.272   0.778   1.002  0.00  0.00    +0.009 C 
ATOM     33  C   UNL     1       2.461  -0.416   0.064  0.00  0.00    +0.009 C 
ATOM     34  C   UNL     1       4.646   0.562   1.753  0.00  0.00    +0.008 C 
ENDBRANCH  25  27
ENDBRANCH   2  23
BRANCH   1  35
ATOM     35  C   UNL     1      -4.016   2.482  -1.479  0.00  0.00    +0.074 C 
ATOM     36  C   UNL     1      -2.794   3.103  -2.160  0.00  0.00    +0.028 C 
BRANCH  35  38
ATOM     37  C   UNL     1      -5.861   0.818  -1.739  0.00  0.00    +0.005 C 
ATOM     38  C   UNL     1      -4.559   1.344  -2.346  0.00  0.00    +0.019 C 
ENDBRANCH  35  38
ENDBRANCH   1  35
TORSDOF 6
