REMARK  Name = ZINC36058455
REMARK  15 active torsions:
REMARK  status: ('A' for Active; 'I' for Inactive)
REMARK    1  A    between atoms: C_1  and  C_2
REMARK    2  A    between atoms: C_2  and  C_3
REMARK    3  A    between atoms: C_4  and  C_30
REMARK    4  A    between atoms: C_5  and  C_22
REMARK    5  A    between atoms: C_8  and  C_13
REMARK    6  A    between atoms: C_14  and  N_16
REMARK    7  A    between atoms: N_16  and  C_17
REMARK    8  A    between atoms: C_17  and  C_18
REMARK    9  A    between atoms: C_18  and  N_19
REMARK   10  A    between atoms: N_19  and  C_20
REMARK   11  A    between atoms: N_19  and  C_21
REMARK   12  A    between atoms: C_25  and  O_28
REMARK   13  A    between atoms: O_28  and  C_29
REMARK   14  A    between atoms: C_30  and  O_32
REMARK   15  A    between atoms: O_32  and  C_33
REMARK                            x       y       z     vdW  Elec       q    Type
REMARK                         _______ _______ _______ _____ _____    ______ ____
ROOT
ATOM      1  C   UNL     1       0.888  -0.132  -1.058  0.00  0.00    +0.056 C 
ATOM      2  C   UNL     1       2.240  -0.405  -1.155  0.00  0.00    +0.083 C 
ATOM      3  C   UNL     1       2.800  -0.716  -2.524  0.00  0.00    +0.150 C 
ATOM      4  N   UNL     1       1.846  -0.704  -3.665  0.00  0.00    -0.267 N 
ATOM      5  C   UNL     1       2.132  -0.957  -4.992  0.00  0.00    +0.048 C 
ATOM      6  C   UNL     1       1.113  -0.894  -5.876  0.00  0.00    +0.072 C 
ATOM      7  S   UNL     1      -0.263  -0.474  -4.825  0.00  0.00    -0.060 S 
ATOM      8  C   UNL     1       0.547  -0.410  -3.356  0.00  0.00    +0.166 C 
ATOM      9  N   UNL     1       0.122  -0.152  -2.136  0.00  0.00    -0.229 NA
ENDROOT
BRANCH   3  10
ATOM     10  C   UNL     1       3.887   0.285  -2.819  0.00  0.00    -0.022 A 
ATOM     11  C   UNL     1       3.557   1.592  -3.124  0.00  0.00    +0.009 A 
ATOM     12  C   UNL     1       4.552   2.512  -3.396  0.00  0.00    +0.046 A 
ATOM     13  C   UNL     1       5.883   2.122  -3.361  0.00  0.00    +0.120 A 
ATOM     14  C   UNL     1       6.212   0.810  -3.054  0.00  0.00    +0.046 A 
ATOM     15  C   UNL     1       5.213  -0.105  -2.779  0.00  0.00    +0.009 A 
BRANCH  13  16
ATOM     16  O   UNL     1       6.863   3.025  -3.628  0.00  0.00    -0.495 OA
ATOM     17  C   UNL     1       8.211   2.553  -3.574  0.00  0.00    +0.277 C 
ENDBRANCH  13  16
ENDBRANCH   3  10
BRANCH   5  18
ATOM     18  C   UNL     1       3.499  -1.282  -5.426  0.00  0.00    +0.091 C 
ATOM     19  C   UNL     1       3.728  -1.661  -6.698  0.00  0.00    +0.239 C 
ATOM     20  O   UNL     1       2.724  -1.629  -7.607  0.00  0.00    -0.271 OA
BRANCH  19  21
ATOM     21  N   UNL     1       4.992  -2.083  -7.077  0.00  0.00    -0.314 N 
ATOM     22  H   UNL     1       5.692  -2.176  -6.412  0.00  0.00    +0.149 HD
BRANCH  21  23
ATOM     23  C   UNL     1       5.271  -2.388  -8.483  0.00  0.00    +0.086 C 
BRANCH  23  24
ATOM     24  C   UNL     1       6.690  -2.944  -8.612  0.00  0.00    -0.061 C 
BRANCH  24  25
ATOM     25  N   UNL     1       7.015  -3.133 -10.032  0.00  0.00    +0.377 N 
ATOM     26  C   UNL     1       8.430  -3.506 -10.165  0.00  0.00    -0.097 C 
ATOM     27  C   UNL     1       6.172  -4.199 -10.590  0.00  0.00    -0.097 C 
ATOM     28  H   UNL     1       6.846  -2.273 -10.532  0.00  0.00    -0.083 HD
ENDBRANCH  24  25
ENDBRANCH  23  24
ENDBRANCH  21  23
ENDBRANCH  19  21
ENDBRANCH   5  18
BRANCH   1  30
ATOM     29  C   UNL     1       0.453   1.674   0.584  0.00  0.00    +0.010 C 
ATOM     30  C   UNL     1       0.283   0.183   0.285  0.00  0.00    +0.053 C 
ENDBRANCH   1  30
BRANCH   2  31
ATOM     31  C   UNL     1       3.063  -0.393  -0.022  0.00  0.00    +0.339 C 
ATOM     32  O   UNL     1       2.590  -0.140   1.072  0.00  0.00    -0.245 OA
BRANCH  31  33
ATOM     33  O   UNL     1       4.381  -0.662  -0.142  0.00  0.00    -0.465 OA
ATOM     34  C   UNL     1       5.161  -0.633   1.055  0.00  0.00    +0.280 C 
ENDBRANCH  31  33
ENDBRANCH   2  31
TORSDOF 10
