REMARK  Name = ZINC01510703
REMARK  4 active torsions:
REMARK  status: ('A' for Active; 'I' for Inactive)
REMARK    1  A    between atoms: C_4  and  C_7
REMARK    2  A    between atoms: C_9  and  C_21
REMARK    3  A    between atoms: C_10  and  C_15
REMARK    4  A    between atoms: C_21  and  C_22
REMARK                            x       y       z     vdW  Elec       q    Type
REMARK                         _______ _______ _______ _____ _____    ______ ____
ROOT
ATOM      1  C   UNL     1      -0.735   3.065   1.640  0.00  0.00    +0.133 C 
ATOM      2  C   UNL     1      -0.945   1.659   1.119  0.00  0.00    -0.019 C 
ATOM      3  C   UNL     1      -1.579   0.788   1.907  0.00  0.00    +0.044 C 
ATOM      4  N   UNL     1      -2.023   1.158   3.173  0.00  0.00    -0.269 N 
ATOM      5  C   UNL     1      -1.861   2.389   3.678  0.00  0.00    +0.305 C 
ATOM      6  O   UNL     1      -2.284   2.630   4.792  0.00  0.00    -0.252 OA
ATOM      7  N   UNL     1      -1.243   3.367   2.988  0.00  0.00    -0.289 N 
ATOM      8  H   UNL     1      -2.476   0.494   3.716  0.00  0.00    +0.156 HD
ATOM      9  H   UNL     1      -1.135   4.252   3.371  0.00  0.00    +0.151 HD
ENDROOT
BRANCH   1  13
ATOM     10  C   UNL     1       3.462   3.861   1.614  0.00  0.00    +0.000 A 
ATOM     11  C   UNL     1       2.661   4.342   0.596  0.00  0.00    +0.000 A 
ATOM     12  C   UNL     1       1.303   4.085   0.604  0.00  0.00    +0.006 A 
ATOM     13  C   UNL     1       0.746   3.346   1.631  0.00  0.00    -0.023 A 
ATOM     14  C   UNL     1       1.546   2.869   2.652  0.00  0.00    +0.006 A 
ATOM     15  C   UNL     1       2.905   3.123   2.642  0.00  0.00    +0.000 A 
ENDBRANCH   1  13
BRANCH   3  16
ATOM     16  C   UNL     1      -1.809  -0.595   1.429  0.00  0.00    -0.004 A 
ATOM     17  C   UNL     1      -3.105  -1.107   1.365  0.00  0.00    +0.010 A 
ATOM     18  C   UNL     1      -3.313  -2.395   0.914  0.00  0.00    +0.001 A 
ATOM     19  C   UNL     1      -2.238  -3.181   0.537  0.00  0.00    +0.000 A 
ATOM     20  C   UNL     1      -0.951  -2.680   0.604  0.00  0.00    +0.001 A 
ATOM     21  C   UNL     1      -0.730  -1.392   1.048  0.00  0.00    +0.010 A 
ENDBRANCH   3  16
BRANCH   2  22
ATOM     22  C   UNL     1      -0.459   1.257  -0.250  0.00  0.00    +0.070 C 
BRANCH  22  23
ATOM     23  C   UNL     1      -1.494   1.627  -1.280  0.00  0.00    -0.043 A 
ATOM     24  C   UNL     1      -2.418   0.688  -1.700  0.00  0.00    +0.007 A 
ATOM     25  C   UNL     1      -3.371   1.029  -2.640  0.00  0.00    +0.038 A 
ATOM     26  C   UNL     1      -3.395   2.308  -3.171  0.00  0.00    +0.123 A 
ATOM     27  C   UNL     1      -2.466   3.246  -2.753  0.00  0.00    +0.038 A 
ATOM     28  C   UNL     1      -1.517   2.905  -1.808  0.00  0.00    +0.007 A 
ATOM     29  F   UNL     1      -4.323   2.639  -4.095  0.00  0.00    -0.205 F 
ENDBRANCH  22  23
ENDBRANCH   2  22
TORSDOF 4
