REMARK  Name = ZINC27528353
REMARK  8 active torsions:
REMARK  status: ('A' for Active; 'I' for Inactive)
REMARK    1  A    between atoms: C_1  and  O_2
REMARK    2  A    between atoms: O_2  and  C_3
REMARK    3  A    between atoms: C_3  and  C_5
REMARK    4  A    between atoms: C_8  and  N_11
REMARK    5  A    between atoms: C_12  and  C_14
REMARK    6  A    between atoms: C_14  and  N_25
REMARK    7  A    between atoms: C_15  and  C_16
REMARK    8  A    between atoms: C_26  and  C_28
REMARK                            x       y       z     vdW  Elec       q    Type
REMARK                         _______ _______ _______ _____ _____    ______ ____
ROOT
ATOM      1  C   UNL     1      -0.504   1.049  -0.115  0.00  0.00    +0.097 C 
ATOM      2  C   UNL     1      -0.687  -0.231  -0.518  0.00  0.00    +0.036 C 
ENDROOT
BRANCH   2   3
ATOM      3  C   UNL     1       0.388  -0.938  -1.229  0.00  0.00    -0.019 A 
ATOM      4  C   UNL     1       1.079  -0.303  -2.267  0.00  0.00    +0.012 A 
ATOM      5  C   UNL     1       2.089  -0.967  -2.929  0.00  0.00    +0.050 A 
ATOM      6  C   UNL     1       2.418  -2.269  -2.577  0.00  0.00    +0.166 A 
ATOM      7  C   UNL     1       1.729  -2.911  -1.546  0.00  0.00    +0.167 A 
ATOM      8  C   UNL     1       0.719  -2.251  -0.875  0.00  0.00    +0.057 A 
ATOM      9  O   UNL     1       2.239  -4.169  -1.399  0.00  0.00    -0.453 OA
ATOM     10  C   UNL     1       3.513  -4.148  -2.069  0.00  0.00    +0.466 C 
ATOM     11  O   UNL     1       3.356  -3.127  -3.072  0.00  0.00    -0.453 OA
ENDBRANCH   2   3
BRANCH   1  13
ATOM     12  N   UNL     1       1.005   2.948   0.141  0.00  0.00    -0.280 N 
ATOM     13  C   UNL     1       0.841   1.638  -0.129  0.00  0.00    +0.262 C 
ATOM     14  O   UNL     1       1.807   0.943  -0.383  0.00  0.00    -0.268 OA
ATOM     15  H   UNL     1       0.143   3.559   0.448  0.00  0.00    +0.155 HD
BRANCH  12  19
ATOM     16  C   UNL     1       4.776   4.684  -0.188  0.00  0.00    +0.059 A 
ATOM     17  C   UNL     1       4.650   3.357   0.235  0.00  0.00    +0.017 A 
ATOM     18  C   UNL     1       3.402   2.786   0.343  0.00  0.00    +0.024 A 
ATOM     19  C   UNL     1       2.266   3.529   0.031  0.00  0.00    +0.034 A 
ATOM     20  C   UNL     1       2.389   4.848  -0.396  0.00  0.00    +0.024 A 
ATOM     21  C   UNL     1       3.633   5.426  -0.501  0.00  0.00    +0.017 A 
BRANCH  16  22
ATOM     22  C   UNL     1       6.111   5.298  -0.304  0.00  0.00    +0.339 C 
ATOM     23  O   UNL     1       7.103   4.652  -0.032  0.00  0.00    -0.245 OA
BRANCH  22  25
ATOM     24  C   UNL     1       7.576   7.116  -0.803  0.00  0.00    +0.280 C 
ATOM     25  O   UNL     1       6.231   6.577  -0.713  0.00  0.00    -0.464 OA
ENDBRANCH  22  25
ENDBRANCH  16  22
ENDBRANCH  12  19
ENDBRANCH   1  13
BRANCH   1  26
ATOM     26  N   UNL     1      -1.598   1.812   0.308  0.00  0.00    -0.275 N 
ATOM     27  C   UNL     1      -1.634   2.297   1.565  0.00  0.00    +0.284 C 
ATOM     28  O   UNL     1      -0.676   2.152   2.302  0.00  0.00    -0.266 OA
ATOM     29  H   UNL     1      -2.428   2.015  -0.384  0.00  0.00    +0.155 HD
BRANCH  27  30
ATOM     30  C   UNL     1      -2.827   3.000   2.045  0.00  0.00    +0.191 A 
ATOM     31  C   UNL     1      -2.997   3.534   3.291  0.00  0.00    +0.056 A 
ATOM     32  C   UNL     1      -4.276   4.110   3.311  0.00  0.00    +0.058 A 
ATOM     33  C   UNL     1      -4.829   3.897   2.095  0.00  0.00    +0.171 A 
ATOM     34  O   UNL     1      -3.952   3.228   1.335  0.00  0.00    -0.444 OA
ATOM     35 BR   UNL     1      -6.554   4.454   1.556  0.00  0.00    -0.008 Br
ENDBRANCH  27  30
ENDBRANCH   1  26
TORSDOF 7
