REMARK  Name = ZINC43423920
REMARK  5 active torsions:
REMARK  status: ('A' for Active; 'I' for Inactive)
REMARK    1  A    between atoms: C_1  and  C_2
REMARK    2  A    between atoms: C_2  and  C_4
REMARK    3  A    between atoms: C_2  and  N_25
REMARK    4  A    between atoms: C_4  and  C_6
REMARK    5  A    between atoms: C_4  and  N_13
REMARK                            x       y       z     vdW  Elec       q    Type
REMARK                         _______ _______ _______ _____ _____    ______ ____
ROOT
ATOM      1  C   UNL     1      -1.433  -0.534   0.013  0.00  0.00    +0.074 C 
ENDROOT
BRANCH   1   2
ATOM      2  N   UNL     1      -2.438  -0.068  -0.952  0.00  0.00    -0.289 NA
ATOM      3  C   UNL     1      -2.286  -0.754  -2.244  0.00  0.00    +0.113 C 
ATOM      4  C   UNL     1      -3.317  -0.209  -3.236  0.00  0.00    +0.175 C 
ATOM      5  O   UNL     1      -4.631  -0.360  -2.689  0.00  0.00    -0.374 OA
ATOM      6  C   UNL     1      -4.805   0.304  -1.437  0.00  0.00    +0.135 C 
ATOM      7  C   UNL     1      -3.797  -0.254  -0.428  0.00  0.00    +0.086 C 
ATOM      8  C   UNL     1      -3.954   0.482   0.902  0.00  0.00    +0.021 C 
ATOM      9  C   UNL     1      -5.373   0.266   1.434  0.00  0.00    +0.002 C 
ATOM     10  C   UNL     1      -6.389   0.804   0.425  0.00  0.00    +0.003 C 
ATOM     11  C   UNL     1      -6.222   0.075  -0.911  0.00  0.00    +0.033 C 
ENDBRANCH   1   2
BRANCH   1  12
ATOM     12  C   UNL     1      -1.405  -2.040   0.020  0.00  0.00    -0.018 A 
ATOM     13  C   UNL     1      -0.897  -2.728  -1.066  0.00  0.00    +0.006 A 
ATOM     14  C   UNL     1      -0.870  -4.109  -1.059  0.00  0.00    +0.000 A 
ATOM     15  C   UNL     1      -1.351  -4.805   0.035  0.00  0.00    +0.001 A 
ATOM     16  C   UNL     1      -1.859  -4.119   1.121  0.00  0.00    +0.015 A 
ATOM     17  C   UNL     1      -1.882  -2.736   1.117  0.00  0.00    +0.022 A 
ATOM     18 BR   UNL     1      -2.570  -1.796   2.606  0.00  0.00    -0.050 Br
ENDBRANCH   1  12
BRANCH   1  20
ATOM     19  C   UNL     1      -0.085   1.530  -0.394  0.00  0.00    -0.012 C 
ATOM     20  C   UNL     1      -0.056   0.001  -0.387  0.00  0.00    -0.056 C 
BRANCH  20  21
ATOM     21  N   UNL     1       0.948  -0.465   0.579  0.00  0.00    +0.381 N 
ATOM     22  H   UNL     1       0.711  -0.129   1.500  0.00  0.00    -0.090 HD
ATOM     23  H   UNL     1       0.968  -1.474   0.584  0.00  0.00    -0.090 HD
ATOM     24  H   UNL     1       1.857  -0.113   0.315  0.00  0.00    -0.090 HD
ENDBRANCH  20  21
ENDBRANCH   1  20
TORSDOF 4
