REMARK  Name = ZINC05560249
REMARK  5 active torsions:
REMARK  status: ('A' for Active; 'I' for Inactive)
REMARK    1  A    between atoms: C_1  and  C_2
REMARK    2  A    between atoms: C_3  and  C_17
REMARK    3  A    between atoms: C_4  and  C_10
REMARK    4  A    between atoms: N_19  and  C_20
REMARK    5  A    between atoms: C_25  and  C_26
REMARK                            x       y       z     vdW  Elec       q    Type
REMARK                         _______ _______ _______ _____ _____    ______ ____
ROOT
ATOM      1  C   UNL     1      -2.138   0.939   1.610  0.00  0.00    +0.061 C 
ATOM      2  C   UNL     1      -0.999   1.629   0.904  0.00  0.00    +0.019 C 
ATOM      3  C   UNL     1      -1.230   2.778   0.237  0.00  0.00    +0.056 C 
ATOM      4  C   UNL     1      -0.058   3.436  -0.463  0.00  0.00    +0.142 C 
ATOM      5  N   UNL     1       1.248   2.764  -0.352  0.00  0.00    -0.288 N 
ATOM      6  C   UNL     1       1.322   1.620   0.355  0.00  0.00    +0.304 C 
ATOM      7  O   UNL     1       2.396   1.058   0.453  0.00  0.00    -0.252 OA
ATOM      8  N   UNL     1       0.253   1.082   0.955  0.00  0.00    -0.273 N 
ATOM      9  H   UNL     1       2.035   3.136  -0.779  0.00  0.00    +0.151 HD
ATOM     10  H   UNL     1       0.372   0.257   1.450  0.00  0.00    +0.156 HD
ENDROOT
BRANCH   4  11
ATOM     11  C   UNL     1       0.089   4.831   0.088  0.00  0.00    -0.022 A 
ATOM     12  C   UNL     1       0.741   5.034   1.290  0.00  0.00    +0.007 A 
ATOM     13  C   UNL     1       0.881   6.314   1.792  0.00  0.00    +0.020 A 
ATOM     14  C   UNL     1       0.358   7.390   1.099  0.00  0.00    +0.041 A 
ATOM     15  C   UNL     1      -0.300   7.186  -0.101  0.00  0.00    +0.020 A 
ATOM     16  C   UNL     1      -0.434   5.906  -0.606  0.00  0.00    +0.007 A 
ATOM     17 CL   UNL     1       0.527   8.997   1.733  0.00  0.00    -0.084 Cl
ENDBRANCH   4  11
BRANCH   3  18
ATOM     18  C   UNL     1      -2.526   3.349   0.188  0.00  0.00    +0.248 C 
ATOM     19  O   UNL     1      -3.171   3.307  -0.844  0.00  0.00    -0.270 OA
ATOM     20  N   UNL     1      -3.045   3.937   1.284  0.00  0.00    -0.281 N 
ATOM     21  H   UNL     1      -2.498   4.055   2.076  0.00  0.00    +0.155 HD
BRANCH  20  22
ATOM     22  C   UNL     1      -4.372   4.379   1.278  0.00  0.00    +0.045 A 
ATOM     23  C   UNL     1      -4.973   4.763   0.087  0.00  0.00    +0.024 A 
ATOM     24  C   UNL     1      -6.283   5.199   0.085  0.00  0.00    +0.002 A 
ATOM     25  C   UNL     1      -6.998   5.252   1.268  0.00  0.00    +0.001 A 
ATOM     26  C   UNL     1      -6.403   4.870   2.456  0.00  0.00    +0.014 A 
ATOM     27  C   UNL     1      -5.094   4.428   2.464  0.00  0.00    +0.076 A 
BRANCH  27  28
ATOM     28  C   UNL     1      -4.448   4.005   3.758  0.00  0.00    +0.419 C 
ATOM     29  F   UNL     1      -5.371   4.129   4.802  0.00  0.00    -0.166 F 
ATOM     30  F   UNL     1      -4.032   2.673   3.659  0.00  0.00    -0.166 F 
ATOM     31  F   UNL     1      -3.341   4.821   4.016  0.00  0.00    -0.166 F 
ENDBRANCH  27  28
ENDBRANCH  20  22
ENDBRANCH   3  18
TORSDOF 4
