REMARK  Name = ZINC56268652
REMARK  4 active torsions:
REMARK  status: ('A' for Active; 'I' for Inactive)
REMARK    1  A    between atoms: C_1  and  C_2
REMARK    2  A    between atoms: C_5  and  C_8
REMARK    3  A    between atoms: C_8  and  N_9
REMARK    4  A    between atoms: C_10  and  C_12
REMARK                            x       y       z     vdW  Elec       q    Type
REMARK                         _______ _______ _______ _____ _____    ______ ____
ROOT
ATOM      1  C   UNL     1      -1.387  -1.009   7.366  0.00  0.00    +0.102 A 
ATOM      2  C   UNL     1      -1.921  -0.797   8.629  0.00  0.00    +0.031 A 
ATOM      3  C   UNL     1      -1.345  -1.462   9.733  0.00  0.00    +0.037 A 
ATOM      4  C   UNL     1      -0.269  -2.316   9.560  0.00  0.00    +0.030 A 
ATOM      5  N   UNL     1       0.253  -2.519   8.334  0.00  0.00    -0.325 N 
ATOM      6  H   UNL     1       1.011  -3.117   8.238  0.00  0.00    +0.169 HD
ATOM      7  C   UNL     1      -0.248  -1.921   7.240  0.00  0.00    +0.261 A 
ATOM      8  O   UNL     1       0.246  -2.135   6.147  0.00  0.00    -0.267 OA
ATOM      9  C   UNL     1       0.345  -3.051  10.724  0.00  0.00    +0.054 C 
ATOM     10  C   UNL     1       0.064  -2.337  12.042  0.00  0.00    +0.014 C 
ATOM     11  C   UNL     1      -1.450  -2.140  12.198  0.00  0.00    +0.080 C 
ATOM     12  C   UNL     1      -1.902  -1.228  11.077  0.00  0.00    +0.165 C 
ATOM     13  O   UNL     1      -2.697  -0.335  11.278  0.00  0.00    -0.292 OA
ENDROOT
BRANCH   1  15
ATOM     14  N   UNL     1      -1.498  -0.646   4.953  0.00  0.00    -0.311 N 
ATOM     15  C   UNL     1      -1.955  -0.340   6.184  0.00  0.00    +0.249 C 
ATOM     16  O   UNL     1      -2.835   0.488   6.317  0.00  0.00    -0.270 OA
ATOM     17  H   UNL     1      -0.746  -1.250   4.851  0.00  0.00    +0.149 HD
BRANCH  14  18
ATOM     18  C   UNL     1      -2.137  -0.065   3.770  0.00  0.00    +0.108 C 
BRANCH  18  23
ATOM     19  C   UNL     1      -0.041   1.479  -0.010  0.00  0.00    +0.007 C 
ATOM     20  C   UNL     1      -0.031  -0.051  -0.011  0.00  0.00    -0.014 C 
ATOM     21  C   UNL     1      -1.470  -0.570   0.011  0.00  0.00    +0.003 C 
ATOM     22  C   UNL     1      -2.176  -0.064   1.271  0.00  0.00    +0.005 C 
ATOM     23  C   UNL     1      -1.432  -0.570   2.509  0.00  0.00    +0.006 C 
ATOM     24  C   UNL     1       0.007  -0.051   2.487  0.00  0.00    +0.005 C 
ATOM     25  C   UNL     1       0.712  -0.557   1.227  0.00  0.00    +0.003 C 
ENDBRANCH  18  23
ENDBRANCH  14  18
ENDBRANCH   1  15
TORSDOF 3
