REMARK  Name = ZINC16012559
REMARK  5 active torsions:
REMARK  status: ('A' for Active; 'I' for Inactive)
REMARK    1  A    between atoms: C_1  and  C_2
REMARK    2  A    between atoms: C_2  and  C_3
REMARK    3  A    between atoms: C_2  and  C_4
REMARK    4  A    between atoms: N_12  and  C_15
REMARK    5  A    between atoms: C_19  and  N_21
REMARK                            x       y       z     vdW  Elec       q    Type
REMARK                         _______ _______ _______ _____ _____    ______ ____
ROOT
ATOM      1  C   UNL     1       0.686  -0.506  -1.171  0.00  0.00    +0.070 C 
ATOM      2  C   UNL     1       0.612  -2.040  -1.327  0.00  0.00    +0.107 C 
ATOM      3  C   UNL     1       0.423  -2.278  -2.851  0.00  0.00    +0.123 C 
ATOM      4  C   UNL     1      -0.954  -2.896  -2.939  0.00  0.00    +0.233 C 
ATOM      5  O   UNL     1      -1.500  -3.248  -3.963  0.00  0.00    -0.274 OA
ATOM      6  N   UNL     1      -1.477  -2.994  -1.711  0.00  0.00    -0.210 N 
ATOM      7  C   UNL     1      -0.677  -2.542  -0.718  0.00  0.00    +0.232 C 
ATOM      8  O   UNL     1      -0.943  -2.535   0.465  0.00  0.00    -0.274 OA
ATOM      9  C   UNL     1       0.412  -0.871  -3.462  0.00  0.00    +0.136 C 
ATOM     10  N   UNL     1      -0.009   0.036  -2.369  0.00  0.00    -0.295 NA
ATOM     11  C   UNL     1       1.757  -0.504  -4.023  0.00  0.00    +0.003 A 
ATOM     12  C   UNL     1       3.015  -0.395  -3.474  0.00  0.00    +0.008 A 
ATOM     13  C   UNL     1       4.087  -0.027  -4.267  0.00  0.00    +0.000 A 
ATOM     14  C   UNL     1       3.891   0.232  -5.612  0.00  0.00    +0.002 A 
ATOM     15  C   UNL     1       2.632   0.124  -6.166  0.00  0.00    +0.023 A 
ATOM     16  C   UNL     1       1.548  -0.245  -5.374  0.00  0.00    +0.039 A 
ATOM     17  N   UNL     1       0.200  -0.418  -5.696  0.00  0.00    -0.283 N 
ATOM     18  C   UNL     1      -0.535  -0.785  -4.628  0.00  0.00    +0.243 C 
ATOM     19  O   UNL     1      -1.728  -1.003  -4.610  0.00  0.00    -0.273 OA
ATOM     20  H   UNL     1      -1.010   0.025  -2.243  0.00  0.00    +0.124 HD
ATOM     21  H   UNL     1      -0.165  -0.289  -6.585  0.00  0.00    +0.155 HD
ENDROOT
BRANCH   6  22
ATOM     22  C   UNL     1      -2.751  -3.528  -1.470  0.00  0.00    +0.046 A 
ATOM     23  C   UNL     1      -3.770  -2.710  -1.000  0.00  0.00    +0.025 A 
ATOM     24  C   UNL     1      -5.024  -3.239  -0.764  0.00  0.00    +0.024 A 
ATOM     25  C   UNL     1      -5.264  -4.582  -0.994  0.00  0.00    +0.071 A 
ATOM     26  C   UNL     1      -4.250  -5.399  -1.462  0.00  0.00    +0.146 A 
ATOM     27  C   UNL     1      -2.996  -4.873  -1.706  0.00  0.00    +0.058 A 
ATOM     28 CL   UNL     1      -6.842  -5.243  -0.695  0.00  0.00    -0.081 Cl
BRANCH  26  29
ATOM     29  N   UNL     1      -4.511  -6.835  -1.707  0.00  0.00    +0.058 N 
ATOM     30  O   UNL     1      -3.625  -7.549  -2.115  0.00  0.00    -0.126 OA
ATOM     31  O   UNL     1      -5.610  -7.294  -1.498  0.00  0.00    -0.126 OA
ENDBRANCH  26  29
ENDBRANCH   6  22
BRANCH   1  33
ATOM     32  C   UNL     1       0.772  -0.519   1.326  0.00  0.00    +0.009 C 
ATOM     33  C   UNL     1      -0.033  -0.065   0.106  0.00  0.00    +0.001 C 
ATOM     34  C   UNL     1      -0.162   1.459   0.118  0.00  0.00    +0.009 C 
ENDBRANCH   1  33
TORSDOF 3
