REMARK  Name = ZINC38688357
REMARK  7 active torsions:
REMARK  status: ('A' for Active; 'I' for Inactive)
REMARK    1  A    between atoms: C_1  and  C_2
REMARK    2  A    between atoms: C_9  and  C_12
REMARK    3  A    between atoms: C_12  and  O_14
REMARK    4  A    between atoms: O_14  and  C_15
REMARK    5  A    between atoms: C_22  and  N_33
REMARK    6  A    between atoms: C_23  and  C_31
REMARK    7  A    between atoms: C_24  and  C_26
REMARK                            x       y       z     vdW  Elec       q    Type
REMARK                         _______ _______ _______ _____ _____    ______ ____
ROOT
ATOM      1  C   UNL     1       0.157  -7.897   3.200  0.00  0.00    +0.135 A 
ATOM      2  C   UNL     1       0.241  -8.755   2.112  0.00  0.00    +0.047 A 
ATOM      3  C   UNL     1       0.295 -10.120   2.313  0.00  0.00    +0.012 A 
ATOM      4  C   UNL     1       0.265 -10.638   3.595  0.00  0.00    +0.008 A 
ATOM      5  C   UNL     1       0.181  -9.786   4.685  0.00  0.00    +0.138 A 
ATOM      6  C   UNL     1       0.133  -8.412   4.486  0.00  0.00    +0.093 A 
ATOM      7  O   UNL     1       0.151 -10.275   5.950  0.00  0.00    -0.441 OA
ATOM      8  C   UNL     1      -0.183 -11.558   6.164  0.00  0.00    +0.199 C 
ATOM      9  C   UNL     1      -0.122 -12.488   5.182  0.00  0.00    +0.098 C 
ATOM     10  C   UNL     1       0.325 -12.130   3.792  0.00  0.00    +0.105 C 
ENDROOT
BRANCH  10  11
ATOM     11  C   UNL     1       1.740 -12.604   3.586  0.00  0.00    +0.002 A 
ATOM     12  C   UNL     1       2.220 -13.487   2.677  0.00  0.00    +0.012 A 
ATOM     13  C   UNL     1       3.572 -13.775   2.670  0.00  0.00    +0.008 A 
ATOM     14  C   UNL     1       4.378 -13.165   3.574  0.00  0.00    +0.045 A 
ATOM     15  S   UNL     1       3.221 -12.143   4.470  0.00  0.00    -0.101 S 
ENDBRANCH  10  11
BRANCH   8  16
ATOM     16  N   UNL     1      -0.597 -11.939   7.416  0.00  0.00    -0.328 N 
ATOM     17  H   UNL     1      -0.645 -11.284   8.131  0.00  0.00    +0.145 HD
ATOM     18  H   UNL     1      -0.841 -12.862   7.587  0.00  0.00    +0.145 HD
ENDBRANCH   8  16
BRANCH   9  19
ATOM     19  C   UNL     1      -0.492 -13.841   5.472  0.00  0.00    +0.101 C 
ATOM     20  N   UNL     1      -0.785 -14.914   5.703  0.00  0.00    -0.191 NA
ENDBRANCH   9  19
BRANCH   1  21
ATOM     21  O   UNL     1       0.104  -6.553   3.005  0.00  0.00    -0.422 OA
BRANCH  21  22
ATOM     22  C   UNL     1       1.226  -5.836   3.223  0.00  0.00    +0.353 C 
ATOM     23  O   UNL     1       2.218  -6.381   3.668  0.00  0.00    -0.244 OA
BRANCH  22  32
ATOM     24  C   UNL     1       1.085   1.857   1.526  0.00  0.00    +0.044 C 
ATOM     25  C   UNL     1       1.427   0.450   1.942  0.00  0.00    -0.049 A 
ATOM     26  C   UNL     1       2.695   0.151   2.426  0.00  0.00    +0.004 A 
ATOM     27  C   UNL     1       3.034  -1.107   2.808  0.00  0.00    +0.011 A 
ATOM     28  C   UNL     1       2.096  -2.168   2.724  0.00  0.00    +0.008 A 
ATOM     29  C   UNL     1       0.813  -1.835   2.228  0.00  0.00    +0.022 A 
ATOM     30  C   UNL     1       0.482  -0.552   1.850  0.00  0.00    +0.019 A 
ATOM     31  S   UNL     1      -0.060  -3.380   2.270  0.00  0.00    -0.080 S 
ATOM     32  C   UNL     1       1.249  -4.401   2.922  0.00  0.00    +0.116 A 
ATOM     33  C   UNL     1       2.276  -3.519   3.074  0.00  0.00    +0.070 A 
ATOM     34 CL   UNL     1       3.804  -4.061   3.695  0.00  0.00    -0.082 Cl
ENDBRANCH  22  32
ENDBRANCH  21  22
ENDBRANCH   1  21
TORSDOF 6
