REMARK  Name = ZINC07455643
REMARK  7 active torsions:
REMARK  status: ('A' for Active; 'I' for Inactive)
REMARK    1  A    between atoms: C_4  and  C_7
REMARK    2  A    between atoms: C_7  and  C_9
REMARK    3  A    between atoms: C_14  and  N_15
REMARK    4  A    between atoms: C_16  and  C_18
REMARK    5  A    between atoms: C_18  and  S_19
REMARK    6  A    between atoms: S_19  and  C_20
REMARK    7  A    between atoms: C_25  and  N_26
REMARK                            x       y       z     vdW  Elec       q    Type
REMARK                         _______ _______ _______ _____ _____    ______ ____
ROOT
ATOM      1  C   UNL     1       8.887  -1.337  -0.283  0.00  0.00    +0.045 A 
ATOM      2  C   UNL     1      10.122  -0.686  -0.360  0.00  0.00    +0.033 A 
ATOM      3  C   UNL     1      10.174   0.692  -0.345  0.00  0.00    +0.042 A 
ATOM      4  C   UNL     1       9.007   1.436  -0.253  0.00  0.00    +0.022 A 
ATOM      5  C   UNL     1       7.780   0.806  -0.181  0.00  0.00    +0.025 A 
ATOM      6  C   UNL     1       7.708  -0.581  -0.190  0.00  0.00    +0.044 A 
ATOM      7 CL   UNL     1      11.707   1.499  -0.441  0.00  0.00    -0.084 Cl
ENDROOT
BRANCH   6   8
ATOM      8  N   UNL     1       6.472  -1.217  -0.112  0.00  0.00    -0.284 N 
ATOM      9  C   UNL     1       5.424  -0.588   0.456  0.00  0.00    +0.227 C 
ATOM     10  O   UNL     1       5.582   0.488   0.993  0.00  0.00    -0.275 OA
ATOM     11  H   UNL     1       6.366  -2.114  -0.466  0.00  0.00    +0.155 HD
BRANCH   9  12
ATOM     12  C   UNL     1       4.057  -1.220   0.422  0.00  0.00    +0.170 C 
BRANCH  12  13
ATOM     13  S   UNL     1       2.869  -0.137   1.262  0.00  0.00    -0.114 S 
BRANCH  13  14
ATOM     14  C   UNL     1       1.340  -1.005   1.139  0.00  0.00    +0.029 A 
ATOM     15  C   UNL     1       1.287  -2.234   0.497  0.00  0.00    +0.016 A 
ATOM     16  C   UNL     1       0.087  -2.913   0.403  0.00  0.00    +0.001 A 
ATOM     17  C   UNL     1      -1.063  -2.371   0.946  0.00  0.00    +0.002 A 
ATOM     18  C   UNL     1      -1.019  -1.149   1.592  0.00  0.00    +0.024 A 
ATOM     19  C   UNL     1       0.179  -0.458   1.687  0.00  0.00    +0.038 A 
BRANCH  19  20
ATOM     20  N   UNL     1       0.226   0.781   2.336  0.00  0.00    -0.357 N 
ATOM     21  H   UNL     1       1.065   1.262   2.405  0.00  0.00    +0.142 HD
ATOM     22  H   UNL     1      -0.583   1.162   2.713  0.00  0.00    +0.142 HD
ENDBRANCH  19  20
ENDBRANCH  13  14
ENDBRANCH  12  13
ENDBRANCH   9  12
ENDBRANCH   6   8
BRANCH   1  23
ATOM     23  C   UNL     1       8.824  -2.810  -0.298  0.00  0.00    +0.195 C 
ATOM     24  O   UNL     1       9.069  -3.418  -1.322  0.00  0.00    -0.287 OA
BRANCH  23  28
ATOM     25  C   UNL     1       7.783  -4.928   3.233  0.00  0.00    +0.000 A 
ATOM     26  C   UNL     1       7.958  -5.615   2.044  0.00  0.00    +0.001 A 
ATOM     27  C   UNL     1       8.296  -4.933   0.894  0.00  0.00    +0.012 A 
ATOM     28  C   UNL     1       8.461  -3.547   0.930  0.00  0.00    +0.022 A 
ATOM     29  C   UNL     1       8.289  -2.861   2.135  0.00  0.00    +0.012 A 
ATOM     30  C   UNL     1       7.946  -3.555   3.276  0.00  0.00    +0.001 A 
ENDBRANCH  23  28
ENDBRANCH   1  23
TORSDOF 7
