REMARK  Name = ZINC36207599
REMARK  13 active torsions:
REMARK  status: ('A' for Active; 'I' for Inactive)
REMARK    1  A    between atoms: C_1  and  C_2
REMARK    2  A    between atoms: C_2  and  C_3
REMARK    3  A    between atoms: C_2  and  C_4
REMARK    4  A    between atoms: C_4  and  N_5
REMARK    5  A    between atoms: N_5  and  C_6
REMARK    6  A    between atoms: N_5  and  C_24
REMARK    7  A    between atoms: C_6  and  C_7
REMARK    8  A    between atoms: C_13  and  C_18
REMARK    9  A    between atoms: C_24  and  C_25
REMARK   10  A    between atoms: C_25  and  C_27
REMARK   11  A    between atoms: C_25  and  O_36
REMARK   12  A    between atoms: C_27  and  O_28
REMARK   13  A    between atoms: O_28  and  C_29
REMARK                            x       y       z     vdW  Elec       q    Type
REMARK                         _______ _______ _______ _____ _____    ______ ____
ROOT
ATOM      1  N   UNL     1      -2.732  -1.705  -0.808  0.00  0.00    +0.386 N 
ATOM      2  H   UNL     1      -2.886  -1.887  -1.788  0.00  0.00    -0.081 HD
ENDROOT
BRANCH   1   3
ATOM      3  C   UNL     1      -2.303  -0.311  -0.630  0.00  0.00    -0.075 C 
BRANCH   3   5
ATOM      4  C   UNL     1      -0.981   1.242   0.812  0.00  0.00    +0.005 C 
ATOM      5  C   UNL     1      -1.542  -0.176   0.690  0.00  0.00    -0.034 C 
ATOM      6  C   UNL     1      -2.492  -0.451   1.857  0.00  0.00    +0.005 C 
ENDBRANCH   3   5
ENDBRANCH   1   3
BRANCH   1   7
ATOM      7  C   UNL     1      -1.689  -2.607  -0.300  0.00  0.00    -0.003 C 
BRANCH   7   8
ATOM      8  C   UNL     1      -0.450  -2.468  -1.146  0.00  0.00    +0.094 A 
ATOM      9  N   UNL     1       0.624  -3.259  -0.892  0.00  0.00    -0.312 N 
ATOM     10  H   UNL     1       0.579  -3.903  -0.168  0.00  0.00    +0.170 HD
ATOM     11  C   UNL     1       1.750  -3.166  -1.624  0.00  0.00    +0.260 A 
ATOM     12  O   UNL     1       2.705  -3.884  -1.383  0.00  0.00    -0.267 OA
ATOM     13  C   UNL     1       1.808  -2.213  -2.690  0.00  0.00    +0.080 A 
ATOM     14  C   UNL     1       2.899  -1.927  -3.614  0.00  0.00    +0.004 A 
ATOM     15  C   UNL     1       2.721  -0.968  -4.555  0.00  0.00    +0.056 A 
ATOM     16  S   UNL     1       1.063  -0.391  -4.248  0.00  0.00    -0.076 S 
ATOM     17  C   UNL     1       0.650  -1.440  -2.878  0.00  0.00    +0.116 A 
ATOM     18  N   UNL     1      -0.429  -1.592  -2.115  0.00  0.00    -0.229 NA
BRANCH  14  19
ATOM     19  C   UNL     1       4.178  -2.671  -3.526  0.00  0.00    -0.017 A 
ATOM     20  C   UNL     1       4.829  -2.800  -2.300  0.00  0.00    +0.008 A 
ATOM     21  C   UNL     1       6.019  -3.494  -2.223  0.00  0.00    +0.001 A 
ATOM     22  C   UNL     1       6.566  -4.062  -3.360  0.00  0.00    +0.000 A 
ATOM     23  C   UNL     1       5.924  -3.938  -4.579  0.00  0.00    +0.001 A 
ATOM     24  C   UNL     1       4.731  -3.251  -4.667  0.00  0.00    +0.008 A 
ENDBRANCH  14  19
ENDBRANCH   7   8
ENDBRANCH   1   7
BRANCH   1  25
ATOM     25  C   UNL     1      -3.979  -1.932  -0.065  0.00  0.00    -0.043 C 
BRANCH  25  26
ATOM     26  C   UNL     1      -5.146  -1.294  -0.821  0.00  0.00    +0.135 C 
BRANCH  26  27
ATOM     27  O   UNL     1      -5.011   0.129  -0.792  0.00  0.00    -0.390 OA
ATOM     28  H   UNL     1      -4.982   0.503   0.099  0.00  0.00    +0.210 HD
ENDBRANCH  26  27
BRANCH  26  29
ATOM     29  C   UNL     1      -6.465  -1.695  -0.157  0.00  0.00    +0.258 C 
BRANCH  29  30
ATOM     30  O   UNL     1      -7.558  -1.196  -0.929  0.00  0.00    -0.489 OA
BRANCH  30  31
ATOM     31  C   UNL     1      -8.810  -1.467  -0.473  0.00  0.00    +0.121 A 
ATOM     32  C   UNL     1      -8.981  -2.192   0.697  0.00  0.00    +0.047 A 
ATOM     33  C   UNL     1     -10.254  -2.467   1.158  0.00  0.00    +0.023 A 
ATOM     34  C   UNL     1     -11.357  -2.018   0.455  0.00  0.00    +0.041 A 
ATOM     35  C   UNL     1     -11.189  -1.294  -0.712  0.00  0.00    +0.023 A 
ATOM     36  C   UNL     1      -9.918  -1.013  -1.174  0.00  0.00    +0.047 A 
ATOM     37 CL   UNL     1     -12.956  -2.365   1.037  0.00  0.00    -0.084 Cl
ENDBRANCH  30  31
ENDBRANCH  29  30
ENDBRANCH  26  29
ENDBRANCH  25  26
ENDBRANCH   1  25
TORSDOF 11
