REMARK  Name = ZINC15829682
REMARK  7 active torsions:
REMARK  status: ('A' for Active; 'I' for Inactive)
REMARK    1  A    between atoms: C_1  and  C_2
REMARK    2  A    between atoms: C_2  and  C_3
REMARK    3  A    between atoms: C_7  and  C_30
REMARK    4  A    between atoms: C_8  and  N_9
REMARK    5  A    between atoms: C_10  and  C_12
REMARK    6  A    between atoms: C_12  and  S_13
REMARK    7  A    between atoms: S_13  and  C_14
REMARK                            x       y       z     vdW  Elec       q    Type
REMARK                         _______ _______ _______ _____ _____    ______ ____
ROOT
ATOM      1  C   UNL     1      -7.301   1.474  -2.813  0.00  0.00    +0.198 A 
ATOM      2  N   UNL     1      -6.311   0.754  -3.291  0.00  0.00    -0.122 NA
ATOM      3  N   UNL     1      -5.186   1.183  -2.836  0.00  0.00    -0.128 NA
ATOM      4  C   UNL     1      -5.393   2.204  -2.041  0.00  0.00    +0.173 A 
ATOM      5  N   UNL     1      -6.752   2.426  -1.999  0.00  0.00    -0.260 N 
ATOM      6  C   UNL     1      -7.267   3.438  -1.242  0.00  0.00    +0.208 A 
ATOM      7  N   UNL     1      -6.497   4.219  -0.540  0.00  0.00    -0.230 NA
ATOM      8  C   UNL     1      -5.174   4.082  -0.517  0.00  0.00    +0.114 A 
ATOM      9  C   UNL     1      -4.509   3.086  -1.247  0.00  0.00    +0.056 A 
ATOM     10  C   UNL     1      -3.096   3.048  -1.135  0.00  0.00    -0.024 A 
ATOM     11  C   UNL     1      -2.505   3.968  -0.337  0.00  0.00    -0.004 A 
ATOM     12  S   UNL     1      -3.848   4.935   0.300  0.00  0.00    -0.073 S 
ATOM     13  C   UNL     1      -1.039   4.129  -0.056  0.00  0.00    +0.043 C 
ATOM     14  C   UNL     1      -0.320   2.855  -0.525  0.00  0.00    +0.005 C 
ATOM     15  C   UNL     1      -0.806   2.504  -1.934  0.00  0.00    +0.005 C 
ATOM     16  C   UNL     1      -2.254   2.015  -1.879  0.00  0.00    +0.037 C 
ENDROOT
BRANCH   1  17
ATOM     17  S   UNL     1      -9.015   1.255  -3.158  0.00  0.00    -0.076 S 
BRANCH  17  18
ATOM     18  C   UNL     1      -9.057  -0.160  -4.292  0.00  0.00    +0.173 C 
BRANCH  18  20
ATOM     19  N   UNL     1     -10.761  -1.474  -5.511  0.00  0.00    -0.284 N 
ATOM     20  C   UNL     1     -10.485  -0.457  -4.671  0.00  0.00    +0.228 C 
ATOM     21  O   UNL     1     -11.385   0.218  -4.220  0.00  0.00    -0.275 OA
ATOM     22  H   UNL     1     -10.038  -1.982  -5.913  0.00  0.00    +0.155 HD
BRANCH  19  28
ATOM     23  C   UNL     1     -12.507  -1.903  -7.124  0.00  0.00    -0.026 A 
ATOM     24  C   UNL     1     -13.820  -2.224  -7.409  0.00  0.00    +0.005 A 
ATOM     25  C   UNL     1     -14.719  -2.440  -6.381  0.00  0.00    +0.001 A 
ATOM     26  C   UNL     1     -14.307  -2.337  -5.065  0.00  0.00    +0.005 A 
ATOM     27  C   UNL     1     -12.995  -2.023  -4.773  0.00  0.00    -0.029 A 
ATOM     28  C   UNL     1     -12.090  -1.799  -5.803  0.00  0.00    +0.040 A 
ATOM     29  C   UNL     1     -12.545  -1.917  -3.339  0.00  0.00    +0.045 C 
BRANCH  23  31
ATOM     30  C   UNL     1     -10.765  -2.960  -8.537  0.00  0.00    +0.009 C 
ATOM     31  C   UNL     1     -11.528  -1.666  -8.245  0.00  0.00    +0.033 C 
ENDBRANCH  23  31
ENDBRANCH  19  28
ENDBRANCH  18  20
ENDBRANCH  17  18
ENDBRANCH   1  17
TORSDOF 5
