REMARK  Name = ZINC39450592
REMARK  4 active torsions:
REMARK  status: ('A' for Active; 'I' for Inactive)
REMARK    1  A    between atoms: C_4  and  C_7
REMARK    2  A    between atoms: C_7  and  N_8
REMARK    3  A    between atoms: C_16  and  S_19
REMARK    4  A    between atoms: S_19  and  C_22
REMARK                            x       y       z     vdW  Elec       q    Type
REMARK                         _______ _______ _______ _____ _____    ______ ____
ROOT
ATOM      1  N   UNL     1       4.210  -0.847   1.333  0.00  0.00    -0.299 N 
ATOM      2  C   UNL     1       4.937   0.196   1.892  0.00  0.00    +0.111 A 
ATOM      3  C   UNL     1       5.432   0.106   3.179  0.00  0.00    +0.083 A 
ATOM      4  C   UNL     1       5.181  -1.104   3.975  0.00  0.00    +0.099 A 
ATOM      5  C   UNL     1       4.438  -2.149   3.383  0.00  0.00    +0.069 A 
ATOM      6  C   UNL     1       3.945  -1.980   2.009  0.00  0.00    +0.261 A 
ATOM      7  O   UNL     1       3.300  -2.867   1.481  0.00  0.00    -0.267 OA
ATOM      8  C   UNL     1       4.188  -3.308   4.118  0.00  0.00    +0.044 A 
ATOM      9  C   UNL     1       4.685  -3.379   5.407  0.00  0.00    +0.112 A 
ATOM     10  C   UNL     1       5.407  -2.313   5.924  0.00  0.00    +0.138 A 
ATOM     11  N   UNL     1       5.634  -1.227   5.215  0.00  0.00    -0.251 NA
ATOM     12  N   UNL     1       6.165   1.150   3.710  0.00  0.00    -0.311 N 
ATOM     13  C   UNL     1       6.894   2.032   2.785  0.00  0.00    +0.259 C 
ATOM     14  C   UNL     1       5.907   2.535   1.726  0.00  0.00    +0.138 C 
ATOM     15  C   UNL     1       5.174   1.362   1.129  0.00  0.00    +0.186 C 
ATOM     16  O   UNL     1       4.782   1.419  -0.020  0.00  0.00    -0.290 OA
ATOM     17  F   UNL     1       7.426   3.117   3.489  0.00  0.00    -0.224 F 
ATOM     18  H   UNL     1       6.198   1.298   4.668  0.00  0.00    +0.149 HD
ENDROOT
BRANCH   9  19
ATOM     19  S   UNL     1       4.402  -4.816   6.388  0.00  0.00    +0.027 S 
ATOM     20  O   UNL     1       4.505  -4.408   7.745  0.00  0.00    -0.164 OA
ATOM     21  O   UNL     1       3.237  -5.441   5.867  0.00  0.00    -0.164 OA
BRANCH  19  22
ATOM     22  C   UNL     1       5.742  -5.921   6.092  0.00  0.00    +0.094 A 
ATOM     23  C   UNL     1       5.661  -6.847   5.069  0.00  0.00    +0.027 A 
ATOM     24  C   UNL     1       6.712  -7.714   4.836  0.00  0.00    +0.002 A 
ATOM     25  C   UNL     1       7.845  -7.654   5.626  0.00  0.00    +0.000 A 
ATOM     26  C   UNL     1       7.927  -6.728   6.649  0.00  0.00    +0.002 A 
ATOM     27  C   UNL     1       6.877  -5.858   6.878  0.00  0.00    +0.027 A 
ENDBRANCH  19  22
ENDBRANCH   9  19
BRANCH   1  28
ATOM     28  C   UNL     1       3.711  -0.707  -0.038  0.00  0.00    +0.160 C 
BRANCH  28  32
ATOM     29  C   UNL     1      -0.204   0.999   0.039  0.00  0.00    +0.000 A 
ATOM     30  C   UNL     1       0.897   1.806  -0.175  0.00  0.00    +0.000 A 
ATOM     31  C   UNL     1       2.164   1.254  -0.199  0.00  0.00    +0.005 A 
ATOM     32  C   UNL     1       2.330  -0.105  -0.010  0.00  0.00    -0.028 A 
ATOM     33  C   UNL     1       1.228  -0.912   0.205  0.00  0.00    +0.005 A 
ATOM     34  C   UNL     1      -0.039  -0.360   0.228  0.00  0.00    +0.000 A 
ENDBRANCH  28  32
ENDBRANCH   1  28
TORSDOF 4
