REMARK  Name = ZINC32858475
REMARK  14 active torsions:
REMARK  status: ('A' for Active; 'I' for Inactive)
REMARK    1  A    between atoms: C_1  and  C_2
REMARK    2  A    between atoms: C_2  and  C_3
REMARK    3  A    between atoms: C_5  and  C_31
REMARK    4  A    between atoms: C_6  and  C_11
REMARK    5  A    between atoms: C_11  and  O_12
REMARK    6  A    between atoms: O_12  and  C_13
REMARK    7  A    between atoms: C_13  and  C_15
REMARK    8  A    between atoms: C_15  and  S_20
REMARK    9  A    between atoms: S_20  and  C_23
REMARK   10  A    between atoms: C_25  and  C_30
REMARK   11  A    between atoms: C_28  and  C_29
REMARK   12  A    between atoms: C_31  and  O_33
REMARK   13  A    between atoms: O_33  and  C_34
REMARK   14  A    between atoms: C_34  and  C_35
REMARK                            x       y       z     vdW  Elec       q    Type
REMARK                         _______ _______ _______ _____ _____    ______ ____
ROOT
ATOM      1  O   UNL     1      -0.524   0.257  -0.662  0.00  0.00    -0.457 OA
ENDROOT
BRANCH   1   2
ATOM      2  C   UNL     1      -0.599  -1.083  -0.622  0.00  0.00    +0.335 C 
ATOM      3  O   UNL     1       0.387  -1.750  -0.827  0.00  0.00    -0.248 OA
BRANCH   2   4
ATOM      4  C   UNL     1      -1.914  -1.755  -0.319  0.00  0.00    +0.188 C 
ATOM      5  C   UNL     1      -2.284  -1.549   1.165  0.00  0.00    +0.041 C 
ATOM      6  C   UNL     1      -2.942  -2.889   1.581  0.00  0.00    +0.003 C 
ATOM      7  C   UNL     1      -2.090  -3.939   0.824  0.00  0.00    +0.003 C 
ATOM      8  C   UNL     1      -1.791  -3.274  -0.536  0.00  0.00    +0.041 C 
BRANCH   4   9
ATOM      9  S   UNL     1      -3.217  -1.079  -1.384  0.00  0.00    +0.013 S 
ATOM     10  O   UNL     1      -2.772  -1.034  -2.733  0.00  0.00    -0.168 OA
ATOM     11  O   UNL     1      -4.471  -1.660  -1.053  0.00  0.00    -0.168 OA
BRANCH   9  12
ATOM     12  C   UNL     1      -3.363   0.610  -0.903  0.00  0.00    +0.093 A 
ATOM     13  C   UNL     1      -4.002   0.940   0.278  0.00  0.00    +0.030 A 
ATOM     14  C   UNL     1      -4.112   2.264   0.658  0.00  0.00    -0.049 A 
ATOM     15  C   UNL     1      -3.594   3.260  -0.149  0.00  0.00    +0.004 A 
ATOM     16  C   UNL     1      -2.959   2.931  -1.332  0.00  0.00    +0.005 A 
ATOM     17  C   UNL     1      -2.844   1.606  -1.709  0.00  0.00    -0.026 A 
ATOM     18  C   UNL     1      -2.153   1.247  -3.000  0.00  0.00    +0.046 C 
ATOM     19  C   UNL     1      -4.803   2.623   1.948  0.00  0.00    +0.044 C 
ENDBRANCH   9  12
ENDBRANCH   4   9
ENDBRANCH   2   4
ENDBRANCH   1   2
BRANCH   1  20
ATOM     20  C   UNL     1       0.789   0.837  -0.875  0.00  0.00    +0.283 C 
BRANCH  20  23
ATOM     21  C   UNL     1       0.499   4.394   0.583  0.00  0.00    +0.113 C 
ATOM     22  C   UNL     1       0.580   2.884   0.490  0.00  0.00    +0.077 C 
ATOM     23  C   UNL     1       0.705   2.335  -0.738  0.00  0.00    +0.061 C 
ATOM     24  N   UNL     1       0.761   3.117  -1.856  0.00  0.00    -0.269 N 
ATOM     25  C   UNL     1       0.689   4.454  -1.832  0.00  0.00    +0.304 C 
ATOM     26  O   UNL     1       0.743   5.064  -2.882  0.00  0.00    -0.252 OA
ATOM     27  N   UNL     1       0.564   5.145  -0.682  0.00  0.00    -0.292 N 
ATOM     28  H   UNL     1       0.872   2.652  -2.847  0.00  0.00    +0.156 HD
ATOM     29  H   UNL     1       0.509   6.243  -0.673  0.00  0.00    +0.151 HD
BRANCH  21  31
ATOM     30  C   UNL     1      -0.904   6.272   1.449  0.00  0.00    +0.006 C 
ATOM     31  C   UNL     1      -0.816   4.754   1.278  0.00  0.00    +0.024 C 
ENDBRANCH  21  31
BRANCH  22  32
ATOM     32  C   UNL     1       0.527   2.075   1.650  0.00  0.00    +0.339 C 
ATOM     33  O   UNL     1       0.660   0.870   1.558  0.00  0.00    -0.245 OA
BRANCH  32  34
ATOM     34  O   UNL     1       0.329   2.642   2.859  0.00  0.00    -0.462 OA
BRANCH  34  35
ATOM     35  C   UNL     1       0.287   1.766   3.987  0.00  0.00    +0.229 C 
ATOM     36  C   UNL     1       0.057   2.584   5.259  0.00  0.00    +0.048 C 
ENDBRANCH  34  35
ENDBRANCH  32  34
ENDBRANCH  22  32
ENDBRANCH  20  23
ENDBRANCH   1  20
TORSDOF 10
