REMARK  Name = ZINC63698439
REMARK  11 active torsions:
REMARK  status: ('A' for Active; 'I' for Inactive)
REMARK    1  A    between atoms: C_1  and  C_2
REMARK    2  A    between atoms: C_5  and  N_8
REMARK    3  A    between atoms: N_8  and  C_9
REMARK    4  A    between atoms: N_8  and  S_25
REMARK    5  A    between atoms: C_9  and  C_10
REMARK    6  A    between atoms: N_12  and  C_13
REMARK    7  A    between atoms: C_13  and  C_14
REMARK    8  A    between atoms: C_14  and  C_15
REMARK    9  A    between atoms: S_25  and  N_28
REMARK   10  A    between atoms: N_28  and  C_29
REMARK   11  A    between atoms: N_28  and  C_30
REMARK                            x       y       z     vdW  Elec       q    Type
REMARK                         _______ _______ _______ _____ _____    ______ ____
ROOT
ATOM      1  C   UNL     1       2.178  -4.803  -1.016  0.00  0.00    +0.232 C 
ATOM      2  O   UNL     1       2.680  -4.222  -0.077  0.00  0.00    -0.274 OA
ATOM      3  N   UNL     1       2.962  -5.387  -1.944  0.00  0.00    -0.314 N 
ATOM      4  H   UNL     1       2.561  -5.851  -2.695  0.00  0.00    +0.149 HD
ENDROOT
BRANCH   1   5
ATOM      5  C   UNL     1       0.678  -4.872  -1.146  0.00  0.00    +0.228 C 
BRANCH   5   6
ATOM      6  N   UNL     1       0.058  -4.167  -0.021  0.00  0.00    -0.184 N 
BRANCH   6  11
ATOM      7  C   UNL     1      -0.724   1.443  -0.274  0.00  0.00    +0.044 C 
ATOM      8  C   UNL     1      -0.516  -0.048  -0.207  0.00  0.00    -0.050 A 
ATOM      9  C   UNL     1      -1.123  -0.871  -1.137  0.00  0.00    +0.005 A 
ATOM     10  C   UNL     1      -0.934  -2.238  -1.079  0.00  0.00    +0.025 A 
ATOM     11  C   UNL     1      -0.134  -2.785  -0.084  0.00  0.00    +0.053 A 
ATOM     12  C   UNL     1       0.473  -1.955   0.850  0.00  0.00    +0.025 A 
ATOM     13  C   UNL     1       0.285  -0.589   0.782  0.00  0.00    +0.005 A 
ENDBRANCH   6  11
BRANCH   6  14
ATOM     14  S   UNL     1      -0.415  -5.009   1.325  0.00  0.00    +0.114 S 
ATOM     15  O   UNL     1       0.406  -6.168   1.388  0.00  0.00    -0.138 OA
ATOM     16  O   UNL     1      -0.488  -4.069   2.387  0.00  0.00    -0.138 OA
BRANCH  14  17
ATOM     17  N   UNL     1      -1.960  -5.538   1.053  0.00  0.00    -0.170 NA
ATOM     18  C   UNL     1      -2.193  -6.893   0.549  0.00  0.00    +0.132 C 
ATOM     19  C   UNL     1      -3.095  -4.649   1.317  0.00  0.00    +0.132 C 
ENDBRANCH  14  17
ENDBRANCH   6  14
ENDBRANCH   5   6
ENDBRANCH   1   5
BRANCH   3  20
ATOM     20  C   UNL     1       4.420  -5.319  -1.819  0.00  0.00    +0.108 C 
BRANCH  20  21
ATOM     21  C   UNL     1       5.068  -6.056  -2.993  0.00  0.00    +0.052 C 
BRANCH  21  22
ATOM     22  C   UNL     1       6.567  -5.986  -2.864  0.00  0.00    -0.040 C 
ATOM     23  C   UNL     1       7.380  -6.915  -2.310  0.00  0.00    +0.000 A 
ATOM     24  C   UNL     1       7.119  -8.217  -1.685  0.00  0.00    +0.030 A 
ATOM     25  C   UNL     1       8.162  -8.937  -1.209  0.00  0.00    +0.042 A 
ATOM     26  C   UNL     1       9.482  -8.470  -1.298  0.00  0.00    +0.022 A 
ATOM     27  C   UNL     1       9.799  -7.284  -1.859  0.00  0.00    +0.027 A 
ATOM     28  C   UNL     1       8.781  -6.446  -2.392  0.00  0.00    +0.043 A 
ATOM     29  N   UNL     1       8.834  -5.272  -2.974  0.00  0.00    -0.380 N 
ATOM     30  C   UNL     1       7.470  -4.867  -3.334  0.00  0.00    +0.144 C 
ATOM     31 CL   UNL     1       7.858 -10.478  -0.469  0.00  0.00    -0.084 Cl
ATOM     32  H   UNL     1       9.639  -4.760  -3.143  0.00  0.00    +0.160 HD
ENDBRANCH  21  22
ENDBRANCH  20  21
ENDBRANCH   3  20
TORSDOF 8
