REMARK  Name = ZINC17907812
REMARK  7 active torsions:
REMARK  status: ('A' for Active; 'I' for Inactive)
REMARK    1  A    between atoms: C_1  and  C_2
REMARK    2  A    between atoms: C_2  and  C_4
REMARK    3  A    between atoms: C_2  and  N_11
REMARK    4  A    between atoms: C_12  and  C_14
REMARK    5  A    between atoms: C_17  and  N_23
REMARK    6  A    between atoms: C_18  and  N_20
REMARK    7  A    between atoms: N_23  and  C_24
REMARK                            x       y       z     vdW  Elec       q    Type
REMARK                         _______ _______ _______ _____ _____    ______ ____
ROOT
ATOM      1  N   UNL     1       1.098  -0.473  -1.152  0.00  0.00    -0.305 N 
ATOM      2  C   UNL     1       0.292  -0.582  -2.227  0.00  0.00    +0.245 C 
ATOM      3  O   UNL     1      -0.882  -0.278  -2.141  0.00  0.00    -0.270 OA
ATOM      4  H   UNL     1       2.034  -0.715  -1.221  0.00  0.00    +0.150 HD
ENDROOT
BRANCH   2   5
ATOM      5  C   UNL     1       0.835  -1.071  -3.509  0.00  0.00    +0.039 A 
ATOM      6  C   UNL     1       2.186  -1.416  -3.611  0.00  0.00    +0.015 A 
ATOM      7  C   UNL     1       2.688  -1.877  -4.807  0.00  0.00    +0.026 A 
ATOM      8  C   UNL     1       1.854  -1.990  -5.917  0.00  0.00    +0.058 A 
ATOM      9  C   UNL     1       0.510  -1.642  -5.819  0.00  0.00    +0.148 A 
ATOM     10  C   UNL     1       0.001  -1.185  -4.625  0.00  0.00    +0.047 A 
BRANCH   9  11
ATOM     11  N   UNL     1      -0.373  -1.763  -7.001  0.00  0.00    +0.058 N 
ATOM     12  O   UNL     1      -1.570  -1.567  -6.890  0.00  0.00    -0.126 OA
ATOM     13  O   UNL     1       0.098  -2.059  -8.085  0.00  0.00    -0.126 OA
ENDBRANCH   9  11
BRANCH   8  14
ATOM     14  N   UNL     1       2.365  -2.451  -7.124  0.00  0.00    -0.345 N 
ATOM     15  C   UNL     1       3.745  -2.938  -7.197  0.00  0.00    +0.125 C 
ATOM     16  H   UNL     1       1.808  -2.451  -7.918  0.00  0.00    +0.146 HD
ENDBRANCH   8  14
ENDBRANCH   2   5
BRANCH   1  18
ATOM     17  C   UNL     1       0.580   1.543   0.132  0.00  0.00    +0.033 C 
ATOM     18  C   UNL     1       0.559   0.013   0.120  0.00  0.00    +0.102 C 
BRANCH  18  19
ATOM     19  C   UNL     1       1.402  -0.509   1.255  0.00  0.00    -0.009 A 
ATOM     20  C   UNL     1       2.722  -0.854   1.034  0.00  0.00    +0.007 A 
ATOM     21  C   UNL     1       3.495  -1.334   2.074  0.00  0.00    +0.000 A 
ATOM     22  C   UNL     1       2.949  -1.468   3.337  0.00  0.00    +0.001 A 
ATOM     23  C   UNL     1       1.629  -1.123   3.560  0.00  0.00    +0.020 A 
ATOM     24  C   UNL     1       0.856  -0.638   2.520  0.00  0.00    +0.046 A 
ATOM     25 CL   UNL     1      -0.799  -0.198   2.800  0.00  0.00    -0.083 Cl
ENDBRANCH  18  19
ENDBRANCH   1  18
TORSDOF 5
