REMARK  Name = ZINC11786837
REMARK  9 active torsions:
REMARK  status: ('A' for Active; 'I' for Inactive)
REMARK    1  A    between atoms: C_4  and  C_7
REMARK    2  A    between atoms: C_7  and  N_8
REMARK    3  A    between atoms: C_9  and  C_21
REMARK    4  A    between atoms: C_12  and  S_13
REMARK    5  A    between atoms: S_13  and  C_14
REMARK    6  A    between atoms: C_14  and  C_15
REMARK    7  A    between atoms: C_26  and  C_27
REMARK    8  A    between atoms: C_26  and  N_65
REMARK    9  A    between atoms: C_32  and  O_33
REMARK                            x       y       z     vdW  Elec       q    Type
REMARK                         _______ _______ _______ _____ _____    ______ ____
ROOT
ATOM      1  N   UNL     1       4.350   6.063  -6.222  0.00  0.00    -0.301 N 
ATOM      2  C   UNL     1       4.247   5.071  -5.287  0.00  0.00    +0.137 A 
ATOM      3  N   UNL     1       4.754   3.991  -5.809  0.00  0.00    -0.133 NA
ATOM      4  N   UNL     1       5.160   4.228  -7.005  0.00  0.00    -0.122 NA
ATOM      5  C   UNL     1       4.941   5.486  -7.309  0.00  0.00    +0.192 A 
ENDROOT
BRANCH   2   6
ATOM      6  C   UNL     1       3.659   5.205  -3.905  0.00  0.00    +0.054 C 
ATOM      7  C   UNL     1       4.725   4.858  -2.861  0.00  0.00    -0.008 C 
ATOM      8  C   UNL     1       4.107   4.938  -1.463  0.00  0.00    -0.078 C 
ATOM      9  C   UNL     1       1.925   4.340  -2.331  0.00  0.00    -0.078 C 
ATOM     10  C   UNL     1       2.477   4.243  -3.755  0.00  0.00    -0.008 C 
ATOM     11  N   UNL     1       2.991   3.972  -1.376  0.00  0.00    +0.382 N 
ATOM     12  H   UNL     1       3.342   3.036  -1.613  0.00  0.00    -0.081 HD
BRANCH  11  13
ATOM     13  C   UNL     1       2.451   3.947  -0.001  0.00  0.00    -0.039 C 
BRANCH  13  14
ATOM     14  C   UNL     1       1.158   3.173   0.008  0.00  0.00    -0.021 A 
ATOM     15  C   UNL     1      -0.050   3.844   0.022  0.00  0.00    +0.025 A 
ATOM     16  C   UNL     1      -1.237   3.134   0.030  0.00  0.00    +0.041 A 
ATOM     17  C   UNL     1      -1.218   1.751   0.017  0.00  0.00    +0.023 A 
ATOM     18  C   UNL     1      -0.013   1.076   0.008  0.00  0.00    +0.047 A 
ATOM     19  C   UNL     1       1.179   1.786   0.000  0.00  0.00    +0.118 A 
ATOM     20 CL   UNL     1      -2.753   3.980   0.048  0.00  0.00    -0.084 Cl
BRANCH  19  21
ATOM     21  O   UNL     1       2.366   1.124  -0.015  0.00  0.00    -0.507 OA
ATOM     22  H   UNL     1       2.701   0.937  -0.902  0.00  0.00    +0.292 HD
ENDBRANCH  19  21
ENDBRANCH  13  14
ENDBRANCH  11  13
ENDBRANCH   2   6
BRANCH   1  23
ATOM     23  C   UNL     1       3.918   7.457  -6.086  0.00  0.00    +0.160 C 
BRANCH  23  27
ATOM     24  C   UNL     1       7.125   9.795  -4.507  0.00  0.00    +0.000 A 
ATOM     25  C   UNL     1       6.988   9.644  -5.874  0.00  0.00    +0.000 A 
ATOM     26  C   UNL     1       5.950   8.887  -6.385  0.00  0.00    +0.005 A 
ATOM     27  C   UNL     1       5.050   8.281  -5.529  0.00  0.00    -0.028 A 
ATOM     28  C   UNL     1       5.184   8.437  -4.162  0.00  0.00    +0.005 A 
ATOM     29  C   UNL     1       6.224   9.190  -3.651  0.00  0.00    +0.000 A 
ENDBRANCH  23  27
ENDBRANCH   1  23
BRANCH   5  30
ATOM     30  S   UNL     1       5.332   6.279  -8.833  0.00  0.00    -0.083 S 
BRANCH  30  31
ATOM     31  C   UNL     1       6.068   4.890  -9.731  0.00  0.00    +0.109 C 
BRANCH  31  32
ATOM     32  C   UNL     1       6.497   5.353 -11.124  0.00  0.00    +0.129 C 
ATOM     33  C   UNL     1       7.013   4.155 -11.954  0.00  0.00    +0.034 C 
ATOM     34  C   UNL     1       8.187   4.742 -12.769  0.00  0.00    +0.031 C 
ATOM     35  C   UNL     1       8.242   6.223 -12.336  0.00  0.00    +0.160 C 
ATOM     36  O   UNL     1       7.625   6.250 -11.030  0.00  0.00    -0.376 OA
ENDBRANCH  31  32
ENDBRANCH  30  31
ENDBRANCH   5  30
TORSDOF 9
