REMARK  Name = ZINC06753187
REMARK  10 active torsions:
REMARK  status: ('A' for Active; 'I' for Inactive)
REMARK    1  A    between atoms: C_1  and  C_2
REMARK    2  A    between atoms: C_2  and  O_3
REMARK    3  A    between atoms: O_3  and  C_4
REMARK    4  A    between atoms: C_7  and  C_10
REMARK    5  A    between atoms: C_13  and  C_24
REMARK    6  A    between atoms: N_20  and  C_21
REMARK    7  A    between atoms: C_21  and  C_22
REMARK    8  A    between atoms: C_22  and  O_23
REMARK    9  A    between atoms: C_26  and  C_31
REMARK   10  A    between atoms: C_29  and  O_30
REMARK                            x       y       z     vdW  Elec       q    Type
REMARK                         _______ _______ _______ _____ _____    ______ ____
ROOT
ATOM      1  C   UNL     1      -1.870  -6.323   0.213  0.00  0.00    +0.141 C 
ATOM      2  C   UNL     1      -2.179  -6.552  -1.242  0.00  0.00    +0.035 A 
ATOM      3  C   UNL     1      -1.736  -6.482  -2.567  0.00  0.00    +0.102 A 
ATOM      4  N   UNL     1      -2.716  -6.917  -3.334  0.00  0.00    -0.173 NA
ATOM      5  N   UNL     1      -3.734  -7.254  -2.625  0.00  0.00    -0.272 N 
ATOM      6  H   UNL     1      -4.568  -7.601  -2.978  0.00  0.00    +0.189 HD
ATOM      7  C   UNL     1      -3.466  -7.051  -1.301  0.00  0.00    +0.126 A 
ATOM      8  C   UNL     1      -3.992  -7.149   0.065  0.00  0.00    +0.266 C 
ATOM      9  O   UNL     1      -5.102  -7.553   0.355  0.00  0.00    -0.268 OA
ATOM     10  N   UNL     1      -3.071  -6.729   0.954  0.00  0.00    -0.283 N 
ENDROOT
BRANCH   3  11
ATOM     11  C   UNL     1      -0.407  -6.006  -3.025  0.00  0.00    +0.044 A 
ATOM     12  C   UNL     1       0.751  -6.436  -2.380  0.00  0.00    +0.017 A 
ATOM     13  C   UNL     1       1.984  -5.991  -2.810  0.00  0.00    -0.050 A 
ATOM     14  C   UNL     1       2.076  -5.117  -3.879  0.00  0.00    +0.007 A 
ATOM     15  C   UNL     1       0.934  -4.684  -4.525  0.00  0.00    +0.046 A 
ATOM     16  C   UNL     1      -0.310  -5.128  -4.108  0.00  0.00    +0.126 A 
ATOM     17  C   UNL     1       3.236  -6.457  -2.111  0.00  0.00    +0.044 C 
BRANCH  16  18
ATOM     18  O   UNL     1      -1.434  -4.708  -4.747  0.00  0.00    -0.506 OA
ATOM     19  H   UNL     1      -1.772  -3.859  -4.430  0.00  0.00    +0.292 HD
ENDBRANCH  16  18
ENDBRANCH   3  11
BRANCH   1  23
ATOM     20  C   UNL     1      -1.040  -2.189   0.906  0.00  0.00    +0.121 A 
ATOM     21  C   UNL     1      -0.026  -3.129   1.020  0.00  0.00    +0.046 A 
ATOM     22  C   UNL     1      -0.297  -4.465   0.795  0.00  0.00    +0.009 A 
ATOM     23  C   UNL     1      -1.577  -4.865   0.458  0.00  0.00    -0.022 A 
ATOM     24  C   UNL     1      -2.589  -3.929   0.344  0.00  0.00    +0.009 A 
ATOM     25  C   UNL     1      -2.325  -2.593   0.573  0.00  0.00    +0.046 A 
BRANCH  20  26
ATOM     26  O   UNL     1      -0.776  -0.874   1.127  0.00  0.00    -0.492 OA
BRANCH  26  28
ATOM     27  C   UNL     1       0.671   0.982   1.676  0.00  0.00    +0.048 C 
ATOM     28  C   UNL     1       0.569  -0.530   1.466  0.00  0.00    +0.225 C 
ENDBRANCH  26  28
ENDBRANCH  20  26
ENDBRANCH   1  23
BRANCH  10  29
ATOM     29  C   UNL     1      -3.238  -6.684   2.409  0.00  0.00    +0.137 C 
BRANCH  29  30
ATOM     30  C   UNL     1      -3.942  -5.383   2.801  0.00  0.00    +0.175 C 
BRANCH  30  31
ATOM     31  O   UNL     1      -5.270  -5.383   2.275  0.00  0.00    -0.393 OA
ATOM     32  H   UNL     1      -5.776  -4.586   2.486  0.00  0.00    +0.209 HD
ENDBRANCH  30  31
ENDBRANCH  29  30
ENDBRANCH  10  29
TORSDOF 8
