REMARK  Name = ZINC34290300
REMARK  10 active torsions:
REMARK  status: ('A' for Active; 'I' for Inactive)
REMARK    1  A    between atoms: C_1  and  C_2
REMARK    2  A    between atoms: C_2  and  C_3
REMARK    3  A    between atoms: C_2  and  C_4
REMARK    4  A    between atoms: C_4  and  S_5
REMARK    5  A    between atoms: S_5  and  C_6
REMARK    6  A    between atoms: C_6  and  C_7
REMARK    7  A    between atoms: C_10  and  N_18
REMARK    8  A    between atoms: C_12  and  O_17
REMARK    9  A    between atoms: C_14  and  O_16
REMARK   10  A    between atoms: C_26  and  N_27
REMARK                            x       y       z     vdW  Elec       q    Type
REMARK                         _______ _______ _______ _____ _____    ______ ____
ROOT
ATOM      1  C   UNL     1      -3.294  -4.323  -0.245  0.00  0.00    +0.032 C 
ATOM      2  C   UNL     1      -4.783  -4.747  -0.285  0.00  0.00    +0.034 C 
ATOM      3  C   UNL     1      -4.773  -6.213   0.196  0.00  0.00    +0.120 C 
ATOM      4  C   UNL     1      -3.494  -6.391   1.034  0.00  0.00    +0.166 C 
ATOM      5  C   UNL     1      -2.768  -5.028   1.031  0.00  0.00    +0.149 C 
ENDROOT
BRANCH   3   6
ATOM      6  N   UNL     1      -4.750  -7.119  -0.955  0.00  0.00    -0.324 N 
ATOM      7  C   UNL     1      -3.785  -7.181  -1.915  0.00  0.00    +0.200 A 
ATOM      8  N   UNL     1      -4.083  -8.099  -2.787  0.00  0.00    -0.232 NA
ATOM      9  C   UNL     1      -5.256  -8.687  -2.446  0.00  0.00    +0.128 A 
ATOM     10  C   UNL     1      -5.695  -8.068  -1.263  0.00  0.00    +0.074 A 
ATOM     11  C   UNL     1      -6.891  -8.495  -0.689  0.00  0.00    +0.048 A 
ATOM     12  C   UNL     1      -7.594  -9.500  -1.291  0.00  0.00    +0.115 A 
ATOM     13  N   UNL     1      -7.165 -10.075  -2.403  0.00  0.00    -0.238 NA
ATOM     14  C   UNL     1      -6.043  -9.708  -3.000  0.00  0.00    +0.144 A 
BRANCH  14  15
ATOM     15  N   UNL     1      -5.636 -10.344  -4.165  0.00  0.00    -0.341 N 
ATOM     16  H   UNL     1      -4.807 -10.082  -4.597  0.00  0.00    +0.144 HD
ATOM     17  H   UNL     1      -6.180 -11.049  -4.548  0.00  0.00    +0.144 HD
ENDBRANCH  14  15
ENDBRANCH   3   6
BRANCH   5  18
ATOM     18  O   UNL     1      -3.114  -4.276   2.196  0.00  0.00    -0.389 OA
ATOM     19  H   UNL     1      -2.809  -4.672   3.024  0.00  0.00    +0.210 HD
ENDBRANCH   5  18
BRANCH   4  20
ATOM     20  O   UNL     1      -3.834  -6.765   2.371  0.00  0.00    -0.387 OA
ATOM     21  H   UNL     1      -3.069  -6.893   2.950  0.00  0.00    +0.210 HD
ENDBRANCH   4  20
BRANCH   1  22
ATOM     22  C   UNL     1      -3.166  -2.804  -0.117  0.00  0.00    +0.075 C 
BRANCH  22  23
ATOM     23  S   UNL     1      -1.412  -2.341  -0.146  0.00  0.00    -0.160 S 
BRANCH  23  24
ATOM     24  C   UNL     1      -1.433  -0.534   0.013  0.00  0.00    +0.072 C 
BRANCH  24  26
ATOM     25  C   UNL     1      -0.019   1.526   0.010  0.00  0.00    +0.008 C 
ATOM     26  C   UNL     1       0.002  -0.004   0.002  0.00  0.00    -0.007 C 
ATOM     27  C   UNL     1       0.742  -0.511   1.242  0.00  0.00    +0.008 C 
ENDBRANCH  24  26
ENDBRANCH  23  24
ENDBRANCH  22  23
ENDBRANCH   1  22
TORSDOF 8
