REMARK  Name = ZINC27827045
REMARK  8 active torsions:
REMARK  status: ('A' for Active; 'I' for Inactive)
REMARK    1  A    between atoms: C_1  and  C_2
REMARK    2  A    between atoms: C_2  and  C_3
REMARK    3  A    between atoms: C_3  and  C_4
REMARK    4  A    between atoms: C_4  and  N_5
REMARK    5  A    between atoms: C_13  and  S_14
REMARK    6  A    between atoms: S_14  and  C_15
REMARK    7  A    between atoms: C_15  and  C_16
REMARK    8  A    between atoms: C_16  and  C_18
REMARK                            x       y       z     vdW  Elec       q    Type
REMARK                         _______ _______ _______ _____ _____    ______ ____
ROOT
ATOM      1  N   UNL     1       4.107   8.054   0.005  0.00  0.00    -0.319 N 
ATOM      2  C   UNL     1       5.491   8.130  -0.007  0.00  0.00    +0.069 A 
ATOM      3  C   UNL     1       6.396   9.181  -0.011  0.00  0.00    +0.028 A 
ATOM      4  C   UNL     1       7.750   8.920  -0.025  0.00  0.00    +0.002 A 
ATOM      5  C   UNL     1       8.214   7.613  -0.035  0.00  0.00    +0.002 A 
ATOM      6  C   UNL     1       7.330   6.558  -0.032  0.00  0.00    +0.030 A 
ATOM      7  C   UNL     1       5.955   6.805  -0.018  0.00  0.00    +0.090 A 
ATOM      8  N   UNL     1       4.862   5.998  -0.007  0.00  0.00    -0.222 NA
ATOM      9  C   UNL     1       3.775   6.729   0.001  0.00  0.00    +0.170 A 
ENDROOT
BRANCH   1  10
ATOM     10  C   UNL     1       3.175   9.184   0.019  0.00  0.00    +0.124 C 
BRANCH  10  11
ATOM     11  C   UNL     1       2.864   9.570   1.466  0.00  0.00    +0.021 C 
BRANCH  11  13
ATOM     12  C   UNL     1       1.578  11.136   2.929  0.00  0.00    +0.004 C 
ATOM     13  C   UNL     1       1.890  10.750   1.482  0.00  0.00    -0.002 C 
ENDBRANCH  11  13
ENDBRANCH  10  11
ENDBRANCH   1  10
BRANCH   9  14
ATOM     14  S   UNL     1       2.130   6.098   0.013  0.00  0.00    -0.080 S 
BRANCH  14  15
ATOM     15  C   UNL     1       2.474   4.321   0.001  0.00  0.00    +0.157 C 
BRANCH  15  16
ATOM     16  C   UNL     1       1.176   3.557   0.009  0.00  0.00    +0.173 C 
ATOM     17  O   UNL     1       0.121   4.155   0.022  0.00  0.00    -0.291 OA
BRANCH  16  18
ATOM     18  C   UNL     1       1.187   2.086   0.002  0.00  0.00    +0.018 A 
ATOM     19  C   UNL     1      -0.017   1.374   0.010  0.00  0.00    +0.013 A 
ATOM     20  C   UNL     1       0.002  -0.004   0.002  0.00  0.00    +0.020 A 
ATOM     21  C   UNL     1       1.209  -0.684  -0.013  0.00  0.00    +0.041 A 
ATOM     22  C   UNL     1       2.406   0.015  -0.021  0.00  0.00    +0.020 A 
ATOM     23  C   UNL     1       2.402   1.393  -0.013  0.00  0.00    +0.013 A 
ATOM     24 CL   UNL     1       1.223  -2.420  -0.022  0.00  0.00    -0.084 Cl
ENDBRANCH  16  18
ENDBRANCH  15  16
ENDBRANCH  14  15
ENDBRANCH   9  14
TORSDOF 7
