REMARK  Name = ZINC44865024
REMARK  8 active torsions:
REMARK  status: ('A' for Active; 'I' for Inactive)
REMARK    1  A    between atoms: C_1  and  C_2
REMARK    2  A    between atoms: C_2  and  C_3
REMARK    3  A    between atoms: C_3  and  C_4
REMARK    4  A    between atoms: C_4  and  C_6
REMARK    5  A    between atoms: C_4  and  C_10
REMARK    6  A    between atoms: N_7  and  O_8
REMARK    7  A    between atoms: C_13  and  C_21
REMARK    8  A    between atoms: C_18  and  C_20
REMARK                            x       y       z     vdW  Elec       q    Type
REMARK                         _______ _______ _______ _____ _____    ______ ____
ROOT
ATOM      1  C   UNL     1       1.612  -1.586  -4.088  0.00  0.00    +0.141 C 
ENDROOT
BRANCH   1   2
ATOM      2  C   UNL     1       1.171  -2.726  -3.207  0.00  0.00    +0.226 C 
ATOM      3  O   UNL     1       0.436  -2.516  -2.265  0.00  0.00    -0.275 OA
ATOM      4  N   UNL     1       1.593  -3.980  -3.466  0.00  0.00    -0.295 N 
ATOM      5  C   UNL     1       1.223  -5.092  -2.579  0.00  0.00    +0.073 C 
ATOM      6  C   UNL     1       0.583  -6.200  -3.420  0.00  0.00    +0.022 C 
ATOM      7  C   UNL     1       1.534  -6.590  -4.554  0.00  0.00    +0.004 C 
ATOM      8  C   UNL     1       1.778  -5.378  -5.457  0.00  0.00    +0.022 C 
ATOM      9  C   UNL     1       2.427  -4.261  -4.642  0.00  0.00    +0.073 C 
ATOM     10  C   UNL     1       3.819  -4.705  -4.190  0.00  0.00    +0.028 C 
ATOM     11  C   UNL     1       0.226  -4.600  -1.528  0.00  0.00    +0.028 C 
ENDBRANCH   1   2
BRANCH   1  12
ATOM     12  C   UNL     1       3.025  -1.198  -3.738  0.00  0.00    +0.144 C 
ATOM     13  N   UNL     1       3.244  -0.215  -2.929  0.00  0.00    -0.076 NA
ATOM     14  N   UNL     1       4.084  -1.892  -4.281  0.00  0.00    -0.343 N 
ATOM     15  H   UNL     1       3.922  -2.688  -4.811  0.00  0.00    +0.144 HD
ATOM     16  H   UNL     1       4.992  -1.585  -4.133  0.00  0.00    +0.144 HD
BRANCH  13  17
ATOM     17  O   UNL     1       4.572   0.149  -2.600  0.00  0.00    -0.408 OA
ATOM     18  H   UNL     1       4.636   0.895  -1.989  0.00  0.00    +0.328 HD
ENDBRANCH  13  17
ENDBRANCH   1  12
BRANCH   1  19
ATOM     19  C   UNL     1       0.686  -0.387  -3.872  0.00  0.00    +0.020 C 
BRANCH  19  21
ATOM     20  C   UNL     1       0.129   1.925  -4.639  0.00  0.00    +0.004 C 
ATOM     21  C   UNL     1       1.055   0.726  -4.855  0.00  0.00    -0.002 C 
ENDBRANCH  19  21
ENDBRANCH   1  19
TORSDOF 5
