REMARK  Name = ZINC06114913
REMARK  4 active torsions:
REMARK  status: ('A' for Active; 'I' for Inactive)
REMARK    1  A    between atoms: C_4  and  C_7
REMARK    2  A    between atoms: C_13  and  C_15
REMARK    3  A    between atoms: C_15  and  S_16
REMARK    4  A    between atoms: S_16  and  C_17
REMARK                            x       y       z     vdW  Elec       q    Type
REMARK                         _______ _______ _______ _____ _____    ______ ____
ROOT
ATOM      1  C   UNL     1      -1.540   2.129  -5.606  0.00  0.00    +0.250 A 
ATOM      2  N   UNL     1      -2.386   2.712  -4.790  0.00  0.00    -0.106 NA
ATOM      3  N   UNL     1      -2.039   2.474  -3.574  0.00  0.00    -0.092 NA
ATOM      4  C   UNL     1      -0.959   1.731  -3.566  0.00  0.00    +0.314 A 
ATOM      5  O   UNL     1      -0.616   1.501  -4.847  0.00  0.00    -0.405 OA
ATOM      6  N   UNL     1      -0.288   1.272  -2.443  0.00  0.00    -0.238 N 
ATOM      7  C   UNL     1      -0.742   1.585  -1.213  0.00  0.00    +0.231 C 
ATOM      8  O   UNL     1      -1.736   2.268  -1.088  0.00  0.00    -0.274 OA
ATOM      9  H   UNL     1       0.507   0.726  -2.543  0.00  0.00    +0.159 HD
ENDROOT
BRANCH   1  13
ATOM     10  C   UNL     1      -1.672   2.218  -9.850  0.00  0.00    +0.000 A 
ATOM     11  C   UNL     1      -2.639   2.883  -9.117  0.00  0.00    +0.001 A 
ATOM     12  C   UNL     1      -2.602   2.858  -7.738  0.00  0.00    +0.013 A 
ATOM     13  C   UNL     1      -1.586   2.160  -7.082  0.00  0.00    +0.039 A 
ATOM     14  C   UNL     1      -0.611   1.496  -7.828  0.00  0.00    +0.013 A 
ATOM     15  C   UNL     1      -0.662   1.524  -9.206  0.00  0.00    +0.001 A 
ENDBRANCH   1  13
BRANCH   7  16
ATOM     16  C   UNL     1      -0.013   1.086   0.008  0.00  0.00    +0.173 C 
BRANCH  16  17
ATOM     17  S   UNL     1      -0.862   1.671   1.500  0.00  0.00    -0.076 S 
BRANCH  17  18
ATOM     18  C   UNL     1       0.099   1.013   2.823  0.00  0.00    +0.196 A 
ATOM     19  N   UNL     1       1.178   0.272   2.708  0.00  0.00    -0.122 NA
ATOM     20  N   UNL     1       1.632  -0.039   3.871  0.00  0.00    -0.129 NA
ATOM     21  C   UNL     1       0.863   0.490   4.805  0.00  0.00    +0.162 A 
ATOM     22  N   UNL     1      -0.137   1.183   4.155  0.00  0.00    -0.278 N 
ATOM     23  C   UNL     1      -1.101   1.838   4.870  0.00  0.00    +0.095 A 
ATOM     24  C   UNL     1      -1.080   1.825   6.218  0.00  0.00    +0.018 A 
ATOM     25  C   UNL     1      -0.069   1.132   6.908  0.00  0.00    +0.005 A 
ATOM     26  C   UNL     1       0.894   0.470   6.214  0.00  0.00    +0.049 A 
ENDBRANCH  17  18
ENDBRANCH  16  17
ENDBRANCH   7  16
TORSDOF 4
