REMARK  Name = ZINC50078787
REMARK  2 active torsions:
REMARK  status: ('A' for Active; 'I' for Inactive)
REMARK    1  A    between atoms: C_4  and  N_7
REMARK    2  A    between atoms: C_13  and  C_16
REMARK                            x       y       z     vdW  Elec       q    Type
REMARK                         _______ _______ _______ _____ _____    ______ ____
ROOT
ATOM      1  N   UNL     1       4.601   0.034   0.534  0.00  0.00    -0.269 N 
ATOM      2  C   UNL     1       4.219  -1.215   0.200  0.00  0.00    +0.306 C 
ATOM      3  O   UNL     1       3.063  -1.436  -0.106  0.00  0.00    -0.252 OA
ATOM      4  N   UNL     1       5.119  -2.218   0.205  0.00  0.00    -0.285 N 
ATOM      5  C   UNL     1       6.489  -1.993   0.687  0.00  0.00    +0.110 C 
ATOM      6  C   UNL     1       7.473  -2.449  -0.394  0.00  0.00    +0.032 C 
ATOM      7  C   UNL     1       7.171  -3.900  -0.775  0.00  0.00    +0.078 C 
ATOM      8  C   UNL     1       5.752  -3.996  -1.341  0.00  0.00    +0.032 C 
ATOM      9  C   UNL     1       4.747  -3.560  -0.265  0.00  0.00    +0.110 C 
ATOM     10  H   UNL     1       5.534   0.222   0.722  0.00  0.00    +0.156 HD
ENDROOT
BRANCH   7  11
ATOM     11  C   UNL     1       8.159  -4.363  -1.814  0.00  0.00    +0.223 C 
ATOM     12  O   UNL     1       8.617  -3.571  -2.610  0.00  0.00    -0.275 OA
ATOM     13  N   UNL     1       8.533  -5.657  -1.860  0.00  0.00    -0.271 N 
ATOM     14  C   UNL     1       7.923  -6.643  -0.957  0.00  0.00    +0.114 C 
ATOM     15  C   UNL     1       9.049  -7.518  -0.390  0.00  0.00    +0.024 C 
ATOM     16  C   UNL     1       9.709  -8.280  -1.539  0.00  0.00    +0.038 C 
ATOM     17  C   UNL     1      10.098  -7.334  -2.644  0.00  0.00    -0.026 A 
ATOM     18  C   UNL     1       9.506  -6.086  -2.773  0.00  0.00    +0.039 A 
ATOM     19  C   UNL     1       9.880  -5.240  -3.810  0.00  0.00    +0.024 A 
ATOM     20  C   UNL     1      10.839  -5.643  -4.718  0.00  0.00    +0.002 A 
ATOM     21  C   UNL     1      11.427  -6.888  -4.594  0.00  0.00    +0.000 A 
ATOM     22  C   UNL     1      11.064  -7.729  -3.554  0.00  0.00    +0.005 A 
ENDBRANCH   7  11
BRANCH   1  26
ATOM     23  C   UNL     1       1.775   3.087   0.756  0.00  0.00    +0.000 A 
ATOM     24  C   UNL     1       2.825   3.053   1.654  0.00  0.00    +0.002 A 
ATOM     25  C   UNL     1       3.764   2.042   1.583  0.00  0.00    +0.023 A 
ATOM     26  C   UNL     1       3.651   1.060   0.608  0.00  0.00    +0.035 A 
ATOM     27  C   UNL     1       2.595   1.097  -0.292  0.00  0.00    +0.023 A 
ATOM     28  C   UNL     1       1.660   2.110  -0.216  0.00  0.00    +0.002 A 
ENDBRANCH   1  26
TORSDOF 2
