REMARK  Name = ZINC35246083
REMARK  12 active torsions:
REMARK  status: ('A' for Active; 'I' for Inactive)
REMARK    1  A    between atoms: C_1  and  C_2
REMARK    2  A    between atoms: C_7  and  C_8
REMARK    3  A    between atoms: C_8  and  S_9
REMARK    4  A    between atoms: S_9  and  C_10
REMARK    5  A    between atoms: C_13  and  C_23
REMARK    6  A    between atoms: N_14  and  C_15
REMARK    7  A    between atoms: C_20  and  C_21
REMARK    8  A    between atoms: C_23  and  C_25
REMARK    9  A    between atoms: C_23  and  N_26
REMARK   10  A    between atoms: N_26  and  S_27
REMARK   11  A    between atoms: S_27  and  C_30
REMARK   12  A    between atoms: C_30  and  C_31
REMARK                            x       y       z     vdW  Elec       q    Type
REMARK                         _______ _______ _______ _____ _____    ______ ____
ROOT
ATOM      1  C   UNL     1      -1.513   1.192   4.568  0.00  0.00    +0.196 A 
ATOM      2  N   UNL     1      -0.387   1.548   5.142  0.00  0.00    -0.122 NA
ATOM      3  N   UNL     1      -0.633   2.168   6.241  0.00  0.00    -0.131 NA
ATOM      4  C   UNL     1      -1.919   2.246   6.434  0.00  0.00    +0.157 A 
ATOM      5  N   UNL     1      -2.529   1.632   5.372  0.00  0.00    -0.273 N 
ENDROOT
BRANCH   5   6
ATOM      6  C   UNL     1      -3.906   1.482   5.156  0.00  0.00    +0.055 A 
ATOM      7  C   UNL     1      -4.570   0.367   5.650  0.00  0.00    +0.046 A 
ATOM      8  C   UNL     1      -5.928   0.223   5.436  0.00  0.00    +0.043 A 
ATOM      9  C   UNL     1      -6.625   1.188   4.730  0.00  0.00    +0.020 A 
ATOM     10  C   UNL     1      -5.965   2.298   4.237  0.00  0.00    +0.007 A 
ATOM     11  C   UNL     1      -4.609   2.451   4.454  0.00  0.00    -0.026 A 
ATOM     12  C   UNL     1      -3.892   3.665   3.922  0.00  0.00    +0.046 C 
ATOM     13 CL   UNL     1      -6.760  -1.171   6.052  0.00  0.00    -0.083 Cl
ENDBRANCH   5   6
BRANCH   4  14
ATOM     14  C   UNL     1      -2.608   2.897   7.606  0.00  0.00    +0.141 C 
ATOM     15  C   UNL     1      -2.540   4.418   7.457  0.00  0.00    +0.034 C 
BRANCH  14  16
ATOM     16  N   UNL     1      -1.942   2.497   8.848  0.00  0.00    -0.184 NA
ATOM     17  H   UNL     1      -0.982   2.362   8.861  0.00  0.00    +0.148 HD
BRANCH  16  18
ATOM     18  S   UNL     1      -2.829   2.275  10.229  0.00  0.00    +0.034 S 
ATOM     19  O   UNL     1      -1.874   1.923  11.220  0.00  0.00    -0.158 OA
ATOM     20  O   UNL     1      -3.603   3.459  10.357  0.00  0.00    -0.158 OA
BRANCH  18  21
ATOM     21  C   UNL     1      -3.906   0.860   9.869  0.00  0.00    +0.220 C 
BRANCH  21  22
ATOM     22  C   UNL     1      -4.767   0.566  11.070  0.00  0.00    -0.025 A 
ATOM     23  C   UNL     1      -4.321  -0.309  12.043  0.00  0.00    +0.005 A 
ATOM     24  C   UNL     1      -5.111  -0.579  13.145  0.00  0.00    +0.000 A 
ATOM     25  C   UNL     1      -6.346   0.027  13.275  0.00  0.00    +0.000 A 
ATOM     26  C   UNL     1      -6.792   0.903  12.303  0.00  0.00    +0.000 A 
ATOM     27  C   UNL     1      -6.000   1.176  11.203  0.00  0.00    +0.005 A 
ENDBRANCH  21  22
ENDBRANCH  18  21
ENDBRANCH  16  18
ENDBRANCH  14  16
ENDBRANCH   4  14
BRANCH   1  28
ATOM     28  S   UNL     1      -1.684   0.321   3.046  0.00  0.00    -0.081 S 
BRANCH  28  29
ATOM     29  C   UNL     1       0.025   0.045   2.504  0.00  0.00    +0.112 C 
BRANCH  29  36
ATOM     30  C   UNL     1      -0.018   1.503   0.010  0.00  0.00    +0.044 C 
ATOM     31  C   UNL     1       0.002  -0.004   0.002  0.00  0.00    -0.046 A 
ATOM     32  C   UNL     1       0.006  -0.689  -1.199  0.00  0.00    +0.003 A 
ATOM     33  C   UNL     1       0.025  -2.071  -1.207  0.00  0.00    +0.000 A 
ATOM     34  C   UNL     1       0.040  -2.768  -0.013  0.00  0.00    +0.000 A 
ATOM     35  C   UNL     1       0.037  -2.084   1.188  0.00  0.00    +0.005 A 
ATOM     36  C   UNL     1       0.023  -0.702   1.195  0.00  0.00    -0.034 A 
ENDBRANCH  29  36
ENDBRANCH  28  29
ENDBRANCH   1  28
TORSDOF 9
