REMARK  Name = ZINC33126947
REMARK  5 active torsions:
REMARK  status: ('A' for Active; 'I' for Inactive)
REMARK    1  A    between atoms: C_1  and  C_2
REMARK    2  A    between atoms: C_7  and  N_8
REMARK    3  A    between atoms: C_9  and  C_11
REMARK    4  A    between atoms: N_15  and  C_18
REMARK    5  A    between atoms: C_21  and  C_24
REMARK                            x       y       z     vdW  Elec       q    Type
REMARK                         _______ _______ _______ _____ _____    ______ ____
ROOT
ATOM      1  C   UNL     1       2.205   0.451   1.168  0.00  0.00    +0.102 A 
ATOM      2  C   UNL     1       3.287   1.320   1.141  0.00  0.00    +0.031 A 
ATOM      3  C   UNL     1       4.518   0.860   0.625  0.00  0.00    +0.038 A 
ATOM      4  C   UNL     1       4.646  -0.435   0.152  0.00  0.00    +0.038 A 
ATOM      5  N   UNL     1       3.591  -1.278   0.171  0.00  0.00    -0.280 N 
ATOM      6  C   UNL     1       2.392  -0.905   0.647  0.00  0.00    +0.268 A 
ATOM      7  O   UNL     1       1.463  -1.692   0.645  0.00  0.00    -0.266 OA
ATOM      8  C   UNL     1       5.956  -0.948  -0.389  0.00  0.00    +0.055 C 
ATOM      9  C   UNL     1       6.846   0.196  -0.865  0.00  0.00    +0.014 C 
ATOM     10  C   UNL     1       7.030   1.203   0.279  0.00  0.00    +0.080 C 
ATOM     11  C   UNL     1       5.666   1.782   0.591  0.00  0.00    +0.165 C 
ATOM     12  O   UNL     1       5.524   2.967   0.805  0.00  0.00    -0.292 OA
ENDROOT
BRANCH   5  13
ATOM     13  C   UNL     1       3.752  -2.579  -0.321  0.00  0.00    +0.050 A 
ATOM     14  C   UNL     1       3.386  -2.879  -1.627  0.00  0.00    +0.027 A 
ATOM     15  C   UNL     1       3.552  -4.162  -2.111  0.00  0.00    +0.014 A 
ATOM     16  C   UNL     1       4.071  -5.150  -1.294  0.00  0.00    +0.055 A 
ATOM     17  C   UNL     1       4.431  -4.855   0.008  0.00  0.00    +0.014 A 
ATOM     18  C   UNL     1       4.274  -3.573   0.497  0.00  0.00    +0.027 A 
BRANCH  16  19
ATOM     19  C   UNL     1       4.244  -6.550  -1.823  0.00  0.00    +0.417 C 
ATOM     20  F   UNL     1       3.079  -7.287  -1.581  0.00  0.00    -0.166 F 
ATOM     21  F   UNL     1       4.487  -6.501  -3.200  0.00  0.00    -0.166 F 
ATOM     22  F   UNL     1       5.325  -7.162  -1.180  0.00  0.00    -0.166 F 
ENDBRANCH  16  19
ENDBRANCH   5  13
BRANCH   1  24
ATOM     23  N   UNL     1      -0.100  -0.008   1.833  0.00  0.00    -0.281 N 
ATOM     24  C   UNL     1       0.903   0.883   1.701  0.00  0.00    +0.254 C 
ATOM     25  O   UNL     1       0.732   2.044   2.023  0.00  0.00    -0.270 OA
ATOM     26  H   UNL     1       0.042  -1.048   1.505  0.00  0.00    +0.155 HD
BRANCH  23  33
ATOM     27  C   UNL     1      -1.688  -1.973   3.141  0.00  0.00    +0.045 C 
ATOM     28  C   UNL     1      -2.127  -0.536   3.034  0.00  0.00    -0.029 A 
ATOM     29  C   UNL     1      -3.332  -0.139   3.580  0.00  0.00    +0.005 A 
ATOM     30  C   UNL     1      -3.736   1.180   3.482  0.00  0.00    +0.000 A 
ATOM     31  C   UNL     1      -2.935   2.106   2.838  0.00  0.00    +0.002 A 
ATOM     32  C   UNL     1      -1.727   1.716   2.294  0.00  0.00    +0.023 A 
ATOM     33  C   UNL     1      -1.321   0.391   2.386  0.00  0.00    +0.037 A 
ENDBRANCH  23  33
ENDBRANCH   1  24
TORSDOF 4
