REMARK  Name = ZINC35265320
REMARK  10 active torsions:
REMARK  status: ('A' for Active; 'I' for Inactive)
REMARK    1  A    between atoms: C_1  and  C_2
REMARK    2  A    between atoms: C_7  and  C_8
REMARK    3  A    between atoms: C_8  and  S_9
REMARK    4  A    between atoms: S_9  and  C_10
REMARK    5  A    between atoms: C_13  and  C_24
REMARK    6  A    between atoms: N_14  and  C_15
REMARK    7  A    between atoms: C_18  and  N_21
REMARK    8  A    between atoms: C_24  and  N_25
REMARK    9  A    between atoms: N_28  and  C_29
REMARK   10  A    between atoms: C_32  and  N_35
REMARK                            x       y       z     vdW  Elec       q    Type
REMARK                         _______ _______ _______ _____ _____    ______ ____
ROOT
ATOM      1  C   UNL     1      -1.487   1.200   4.574  0.00  0.00    +0.196 A 
ATOM      2  N   UNL     1      -0.365   1.554   5.157  0.00  0.00    -0.122 NA
ATOM      3  N   UNL     1      -0.619   2.172   6.255  0.00  0.00    -0.132 NA
ATOM      4  C   UNL     1      -1.907   2.249   6.440  0.00  0.00    +0.156 A 
ATOM      5  N   UNL     1      -2.508   1.637   5.372  0.00  0.00    -0.273 N 
ENDROOT
BRANCH   5   6
ATOM      6  C   UNL     1      -3.884   1.488   5.145  0.00  0.00    +0.050 A 
ATOM      7  C   UNL     1      -4.678   2.606   4.923  0.00  0.00    +0.028 A 
ATOM      8  C   UNL     1      -6.032   2.456   4.700  0.00  0.00    +0.035 A 
ATOM      9  C   UNL     1      -6.599   1.194   4.698  0.00  0.00    +0.126 A 
ATOM     10  C   UNL     1      -5.811   0.080   4.919  0.00  0.00    +0.035 A 
ATOM     11  C   UNL     1      -4.455   0.223   5.136  0.00  0.00    +0.028 A 
BRANCH   9  12
ATOM     12  N   UNL     1      -8.051   1.038   4.460  0.00  0.00    +0.056 N 
ATOM     13  O   UNL     1      -8.741   2.012   4.267  0.00  0.00    -0.126 OA
ATOM     14  O   UNL     1      -8.548  -0.065   4.458  0.00  0.00    -0.126 OA
ENDBRANCH   9  12
ENDBRANCH   5   6
BRANCH   1  15
ATOM     15  S   UNL     1      -1.646   0.332   3.049  0.00  0.00    -0.081 S 
BRANCH  15  16
ATOM     16  C   UNL     1       0.067   0.057   2.519  0.00  0.00    +0.112 C 
BRANCH  16  23
ATOM     17  C   UNL     1       0.041   1.520   0.028  0.00  0.00    +0.044 C 
ATOM     18  C   UNL     1       0.062   0.013   0.017  0.00  0.00    -0.046 A 
ATOM     19  C   UNL     1       0.074  -0.670  -1.186  0.00  0.00    +0.003 A 
ATOM     20  C   UNL     1       0.094  -2.052  -1.196  0.00  0.00    +0.000 A 
ATOM     21  C   UNL     1       0.101  -2.752  -0.004  0.00  0.00    +0.000 A 
ATOM     22  C   UNL     1       0.089  -2.070   1.198  0.00  0.00    +0.005 A 
ATOM     23  C   UNL     1       0.074  -0.687   1.208  0.00  0.00    -0.034 A 
ENDBRANCH  16  23
ENDBRANCH  15  16
ENDBRANCH   1  15
BRANCH   4  24
ATOM     24  C   UNL     1      -2.605   2.895   7.608  0.00  0.00    +0.182 C 
BRANCH  24  25
ATOM     25  N   UNL     1      -2.857   4.306   7.306  0.00  0.00    -0.292 N 
ATOM     26  C   UNL     1      -3.475   5.090   8.212  0.00  0.00    +0.304 C 
ATOM     27  O   UNL     1      -3.824   4.625   9.280  0.00  0.00    -0.252 OA
ATOM     28  N   UNL     1      -3.708   6.388   7.934  0.00  0.00    -0.269 N 
ATOM     29  H   UNL     1      -2.579   4.677   6.454  0.00  0.00    +0.151 HD
ATOM     30  H   UNL     1      -3.371   6.775   7.112  0.00  0.00    +0.156 HD
BRANCH  28  31
ATOM     31  C   UNL     1      -4.435   7.176   8.833  0.00  0.00    +0.035 A 
ATOM     32  C   UNL     1      -5.287   8.165   8.360  0.00  0.00    +0.025 A 
ATOM     33  C   UNL     1      -6.004   8.941   9.249  0.00  0.00    +0.034 A 
ATOM     34  C   UNL     1      -5.872   8.735  10.610  0.00  0.00    +0.126 A 
ATOM     35  C   UNL     1      -5.024   7.752  11.085  0.00  0.00    +0.034 A 
ATOM     36  C   UNL     1      -4.309   6.969  10.201  0.00  0.00    +0.025 A 
BRANCH  34  37
ATOM     37  N   UNL     1      -6.642   9.569  11.561  0.00  0.00    +0.056 N 
ATOM     38  O   UNL     1      -7.384  10.430  11.147  0.00  0.00    -0.126 OA
ATOM     39  O   UNL     1      -6.528   9.390  12.751  0.00  0.00    -0.126 OA
ENDBRANCH  34  37
ENDBRANCH  28  31
ENDBRANCH  24  25
ENDBRANCH   4  24
TORSDOF 9
