REMARK  Name = ZINC12984023
REMARK  12 active torsions:
REMARK  status: ('A' for Active; 'I' for Inactive)
REMARK    1  A    between atoms: C_1  and  C_2
REMARK    2  A    between atoms: C_2  and  C_4
REMARK    3  A    between atoms: C_2  and  O_20
REMARK    4  A    between atoms: N_6  and  C_7
REMARK    5  A    between atoms: C_10  and  S_13
REMARK    6  A    between atoms: S_13  and  N_16
REMARK    7  A    between atoms: N_16  and  C_17
REMARK    8  A    between atoms: C_17  and  C_18
REMARK    9  A    between atoms: C_17  and  C_19
REMARK   10  A    between atoms: O_20  and  C_21
REMARK   11  A    between atoms: C_21  and  C_23
REMARK   12  A    between atoms: N_28  and  C_30
REMARK                            x       y       z     vdW  Elec       q    Type
REMARK                         _______ _______ _______ _____ _____    ______ ____
ROOT
ATOM      1  C   UNL     1      -0.014   1.520  -0.004  0.00  0.00    +0.062 C 
ATOM      2  C   UNL     1       0.004  -0.010  -0.001  0.00  0.00    +0.259 C 
ENDROOT
BRANCH   2   3
ATOM      3  C   UNL     1       0.731  -0.502   1.224  0.00  0.00    +0.258 C 
ATOM      4  O   UNL     1       0.133  -1.128   2.073  0.00  0.00    -0.271 OA
ATOM      5  N   UNL     1       2.045  -0.246   1.375  0.00  0.00    -0.282 N 
ATOM      6  H   UNL     1       2.538   0.196   0.667  0.00  0.00    +0.155 HD
BRANCH   5   7
ATOM      7  C   UNL     1       2.698  -0.617   2.556  0.00  0.00    +0.034 A 
ATOM      8  C   UNL     1       3.710   0.181   3.072  0.00  0.00    +0.025 A 
ATOM      9  C   UNL     1       4.353  -0.188   4.237  0.00  0.00    +0.030 A 
ATOM     10  C   UNL     1       3.990  -1.352   4.889  0.00  0.00    +0.105 A 
ATOM     11  C   UNL     1       2.983  -2.150   4.378  0.00  0.00    +0.030 A 
ATOM     12  C   UNL     1       2.333  -1.783   3.216  0.00  0.00    +0.025 A 
BRANCH  10  13
ATOM     13  S   UNL     1       4.813  -1.820   6.376  0.00  0.00    +0.059 S 
ATOM     14  O   UNL     1       4.663  -3.228   6.497  0.00  0.00    -0.153 OA
ATOM     15  O   UNL     1       6.086  -1.190   6.351  0.00  0.00    -0.153 OA
BRANCH  13  16
ATOM     16  N   UNL     1       3.974  -1.144   7.633  0.00  0.00    -0.187 NA
ATOM     17  H   UNL     1       4.393  -0.467   8.187  0.00  0.00    +0.148 HD
BRANCH  16  18
ATOM     18  C   UNL     1       2.600  -1.569   7.910  0.00  0.00    +0.070 C 
ATOM     19  C   UNL     1       2.610  -2.661   8.982  0.00  0.00    +0.025 C 
ATOM     20  C   UNL     1       1.786  -0.373   8.407  0.00  0.00    +0.025 C 
ENDBRANCH  16  18
ENDBRANCH  13  16
ENDBRANCH  10  13
ENDBRANCH   5   7
ENDBRANCH   2   3
BRANCH   2  21
ATOM     21  O   UNL     1      -1.338  -0.501   0.011  0.00  0.00    -0.452 OA
BRANCH  21  22
ATOM     22  C   UNL     1      -1.921  -0.713  -1.179  0.00  0.00    +0.313 C 
ATOM     23  O   UNL     1      -1.312  -0.488  -2.199  0.00  0.00    -0.250 OA
BRANCH  22  24
ATOM     24  C   UNL     1      -3.334  -1.231  -1.245  0.00  0.00    +0.124 C 
ATOM     25  C   UNL     1      -4.327  -0.208  -0.646  0.00  0.00    +0.112 C 
ATOM     26  C   UNL     1      -5.551  -0.320  -1.528  0.00  0.00    +0.221 C 
ATOM     27  O   UNL     1      -6.653   0.101  -1.243  0.00  0.00    -0.275 OA
ATOM     28  N   UNL     1      -5.241  -0.953  -2.672  0.00  0.00    -0.268 N 
ATOM     29  C   UNL     1      -3.821  -1.325  -2.708  0.00  0.00    +0.129 C 
BRANCH  28  30
ATOM     30  C   UNL     1      -6.155  -1.223  -3.698  0.00  0.00    +0.072 A 
ATOM     31  C   UNL     1      -6.341  -0.306  -4.723  0.00  0.00    +0.026 A 
ATOM     32  C   UNL     1      -7.243  -0.576  -5.734  0.00  0.00    +0.002 A 
ATOM     33  C   UNL     1      -7.961  -1.758  -5.727  0.00  0.00    +0.003 A 
ATOM     34  C   UNL     1      -7.779  -2.675  -4.708  0.00  0.00    +0.040 A 
ATOM     35  C   UNL     1      -6.873  -2.414  -3.696  0.00  0.00    +0.145 A 
ATOM     36  F   UNL     1      -6.691  -3.312  -2.703  0.00  0.00    -0.204 F 
ENDBRANCH  28  30
ENDBRANCH  22  24
ENDBRANCH  21  22
ENDBRANCH   2  21
TORSDOF 9
