REMARK  Name = ZINC21912199
REMARK  5 active torsions:
REMARK  status: ('A' for Active; 'I' for Inactive)
REMARK    1  A    between atoms: N_9  and  C_12
REMARK    2  A    between atoms: C_15  and  C_18
REMARK    3  A    between atoms: N_20  and  C_21
REMARK    4  A    between atoms: C_21  and  C_22
REMARK    5  A    between atoms: C_22  and  N_28
REMARK                            x       y       z     vdW  Elec       q    Type
REMARK                         _______ _______ _______ _____ _____    ______ ____
ROOT
ATOM      1  C   UNL     1       3.770  -3.704   0.417  0.00  0.00    +0.244 C 
ATOM      2  O   UNL     1       3.377  -4.585   1.157  0.00  0.00    -0.270 OA
ATOM      3  N   UNL     1       3.672  -2.414   0.794  0.00  0.00    -0.313 N 
ATOM      4  H   UNL     1       4.027  -1.617   0.124  0.00  0.00    +0.149 HD
ENDROOT
BRANCH   1   8
ATOM      5  C   UNL     1       5.453  -4.693  -3.356  0.00  0.00    +0.051 A 
ATOM      6  C   UNL     1       5.004  -5.702  -2.510  0.00  0.00    +0.027 A 
ATOM      7  C   UNL     1       4.458  -5.385  -1.286  0.00  0.00    +0.015 A 
ATOM      8  C   UNL     1       4.355  -4.048  -0.894  0.00  0.00    +0.037 A 
ATOM      9  C   UNL     1       4.802  -3.037  -1.748  0.00  0.00    +0.015 A 
ATOM     10  C   UNL     1       5.352  -3.361  -2.968  0.00  0.00    +0.027 A 
BRANCH   5  19
ATOM     11  C   UNL     1       9.399  -6.922  -7.420  0.00  0.00    +0.001 A 
ATOM     12  C   UNL     1       8.661  -6.539  -8.533  0.00  0.00    +0.002 A 
ATOM     13  C   UNL     1       7.461  -5.880  -8.390  0.00  0.00    +0.028 A 
ATOM     14  C   UNL     1       6.977  -5.593  -7.112  0.00  0.00    +0.078 A 
ATOM     15  C   UNL     1       7.729  -5.984  -5.983  0.00  0.00    +0.065 A 
ATOM     16  C   UNL     1       8.942  -6.650  -6.149  0.00  0.00    +0.015 A 
ATOM     17  C   UNL     1       7.196  -5.662  -4.652  0.00  0.00    +0.266 A 
ATOM     18  O   UNL     1       7.798  -5.967  -3.639  0.00  0.00    -0.267 OA
ATOM     19  N   UNL     1       6.007  -5.018  -4.596  0.00  0.00    -0.267 N 
ATOM     20  C   UNL     1       5.349  -4.679  -5.738  0.00  0.00    +0.207 A 
ATOM     21  N   UNL     1       5.799  -4.946  -6.926  0.00  0.00    -0.237 NA
ENDBRANCH   5  19
ENDBRANCH   1   8
BRANCH   3  22
ATOM     22  C   UNL     1       3.091  -2.073   2.095  0.00  0.00    +0.092 C 
BRANCH  22  23
ATOM     23  C   UNL     1       3.098  -0.554   2.274  0.00  0.00    -0.050 C 
ATOM     24  C   UNL     1       2.491  -0.198   3.633  0.00  0.00    -0.010 C 
ATOM     25  C   UNL     1       3.318  -0.846   4.746  0.00  0.00    -0.001 C 
ATOM     26  C   UNL     1       4.757  -0.330   4.678  0.00  0.00    -0.000 C 
ATOM     27  C   UNL     1       5.363  -0.686   3.319  0.00  0.00    -0.001 C 
ATOM     28  C   UNL     1       4.537  -0.038   2.207  0.00  0.00    -0.010 C 
BRANCH  23  29
ATOM     29  N   UNL     1       2.304   0.068   1.206  0.00  0.00    +0.384 N 
ATOM     30  C   UNL     1       0.914  -0.404   1.240  0.00  0.00    -0.078 C 
ATOM     31  C   UNL     1       0.156   0.149   0.031  0.00  0.00    -0.019 C 
ATOM     32  C   UNL     1       0.196   1.680   0.066  0.00  0.00    -0.004 C 
ATOM     33  C   UNL     1       1.655   2.144   0.079  0.00  0.00    -0.019 C 
ATOM     34  C   UNL     1       2.369   1.533   1.287  0.00  0.00    -0.078 C 
ATOM     35  H   UNL     1       2.737  -0.234   0.241  0.00  0.00    -0.081 HD
ENDBRANCH  23  29
ENDBRANCH  22  23
ENDBRANCH   3  22
TORSDOF 5
