REMARK  Name = ZINC29705453
REMARK  11 active torsions:
REMARK  status: ('A' for Active; 'I' for Inactive)
REMARK    1  A    between atoms: C_1  and  C_2
REMARK    2  A    between atoms: C_2  and  C_3
REMARK    3  A    between atoms: C_3  and  N_4
REMARK    4  A    between atoms: C_13  and  C_15
REMARK    5  A    between atoms: N_17  and  N_18
REMARK    6  A    between atoms: C_19  and  C_21
REMARK    7  A    between atoms: C_26  and  S_27
REMARK    8  A    between atoms: S_27  and  C_28
REMARK    9  A    between atoms: C_28  and  C_29
REMARK   10  A    between atoms: C_30  and  C_35
REMARK   11  A    between atoms: C_33  and  C_34
REMARK                            x       y       z     vdW  Elec       q    Type
REMARK                         _______ _______ _______ _____ _____    ______ ____
ROOT
ATOM      1  N   UNL     1      -3.680   2.047   0.031  0.00  0.00    -0.230 N 
ATOM      2  C   UNL     1      -4.842   1.365   0.032  0.00  0.00    +0.261 C 
ATOM      3  O   UNL     1      -4.834   0.149   0.026  0.00  0.00    -0.269 OA
ATOM      4  H   UNL     1      -3.687   3.147   0.037  0.00  0.00    +0.173 HD
ENDROOT
BRANCH   2   5
ATOM      5  C   UNL     1      -6.124   2.094   0.043  0.00  0.00    +0.052 A 
ATOM      6  C   UNL     1      -6.138   3.491   0.056  0.00  0.00    +0.014 A 
ATOM      7  C   UNL     1      -7.339   4.165   0.059  0.00  0.00    +0.001 A 
ATOM      8  C   UNL     1      -8.536   3.466   0.061  0.00  0.00    +0.001 A 
ATOM      9  C   UNL     1      -8.540   2.087   0.054  0.00  0.00    +0.015 A 
ATOM     10  C   UNL     1      -7.338   1.388   0.044  0.00  0.00    +0.020 A 
BRANCH  10  11
ATOM     11  S   UNL     1      -7.338  -0.374   0.035  0.00  0.00    -0.120 S 
BRANCH  11  12
ATOM     12  C   UNL     1      -9.098  -0.813   0.041  0.00  0.00    +0.114 C 
BRANCH  12  13
ATOM     13  C   UNL     1      -9.242  -2.313   0.034  0.00  0.00    +0.027 A 
ATOM     14  C   UNL     1      -9.321  -3.185   1.144  0.00  0.00    +0.085 A 
ATOM     15  N   UNL     1      -9.439  -4.387   0.659  0.00  0.00    -0.083 NA
ATOM     16  O   UNL     1      -9.445  -4.381  -0.550  0.00  0.00    -0.359 OA
ATOM     17  C   UNL     1      -9.333  -3.137  -1.037  0.00  0.00    +0.138 A 
ATOM     18  C   UNL     1      -9.310  -2.735  -2.489  0.00  0.00    +0.089 C 
ATOM     19  C   UNL     1      -9.276  -2.799   2.600  0.00  0.00    +0.069 C 
ENDBRANCH  12  13
ENDBRANCH  11  12
ENDBRANCH  10  11
ENDBRANCH   2   5
BRANCH   1  22
ATOM     20  C   UNL     1      -1.299   2.036   0.019  0.00  0.00    +0.281 C 
ATOM     21  O   UNL     1      -1.307   3.252   0.026  0.00  0.00    -0.267 OA
ATOM     22  N   UNL     1      -2.462   1.355   0.021  0.00  0.00    -0.229 N 
ATOM     23  H   UNL     1      -2.454   0.255   0.015  0.00  0.00    +0.173 HD
BRANCH  20  33
ATOM     24  N   UNL     1       1.069  -0.710  -0.012  0.00  0.00    -0.228 N 
ATOM     25  C   UNL     1       2.311  -0.182  -0.021  0.00  0.00    +0.275 A 
ATOM     26  O   UNL     1       3.293  -0.902  -0.035  0.00  0.00    -0.266 OA
ATOM     27  C   UNL     1       2.450   1.280  -0.015  0.00  0.00    +0.050 A 
ATOM     28  C   UNL     1       3.685   1.922  -0.024  0.00  0.00    +0.014 A 
ATOM     29  C   UNL     1       3.730   3.300  -0.018  0.00  0.00    +0.001 A 
ATOM     30  C   UNL     1       2.560   4.048  -0.002  0.00  0.00    +0.001 A 
ATOM     31  C   UNL     1       1.327   3.431   0.007  0.00  0.00    +0.011 A 
ATOM     32  C   UNL     1       1.259   2.042   0.001  0.00  0.00    +0.020 A 
ATOM     33  C   UNL     1      -0.016   1.307   0.009  0.00  0.00    +0.155 A 
ATOM     34  N   UNL     1       0.002  -0.004   0.002  0.00  0.00    -0.163 NA
BRANCH  24  35
ATOM     35  C   UNL     1       0.935  -2.169  -0.018  0.00  0.00    +0.147 C 
BRANCH  35  37
ATOM     36  C   UNL     1       0.763  -4.208   1.415  0.00  0.00    +0.005 C 
ATOM     37  C   UNL     1       0.903  -2.684   1.422  0.00  0.00    +0.020 C 
ENDBRANCH  35  37
ENDBRANCH  24  35
ENDBRANCH  20  33
ENDBRANCH   1  22
TORSDOF 8
