REMARK  Name = ZINC39400696
REMARK  9 active torsions:
REMARK  status: ('A' for Active; 'I' for Inactive)
REMARK    1  A    between atoms: C_1  and  C_2
REMARK    2  A    between atoms: C_2  and  C_3
REMARK    3  A    between atoms: C_2  and  C_4
REMARK    4  A    between atoms: C_6  and  C_10
REMARK    5  A    between atoms: N_12  and  C_13
REMARK    6  A    between atoms: N_12  and  C_20
REMARK    7  A    between atoms: C_13  and  C_14
REMARK    8  A    between atoms: C_20  and  C_21
REMARK    9  A    between atoms: N_24  and  C_27
REMARK                            x       y       z     vdW  Elec       q    Type
REMARK                         _______ _______ _______ _____ _____    ______ ____
ROOT
ATOM      1  C   UNL     1       3.469  -0.871  -3.051  0.00  0.00    +0.246 C 
ATOM      2  O   UNL     1       3.550   0.169  -3.669  0.00  0.00    -0.273 OA
ATOM      3  N   UNL     1       4.589  -1.531  -2.694  0.00  0.00    -0.295 N 
ENDROOT
BRANCH   1   6
ATOM      4  C   UNL     1       0.610  -0.280  -1.464  0.00  0.00    +0.064 C 
ATOM      5  C   UNL     1       1.725  -0.991  -1.280  0.00  0.00    +0.036 C 
ATOM      6  C   UNL     1       2.118  -1.425  -2.681  0.00  0.00    +0.238 C 
ATOM      7  N   UNL     1       1.061  -0.834  -3.519  0.00  0.00    -0.170 NA
ATOM      8  N   UNL     1       0.282  -0.234  -2.774  0.00  0.00    -0.158 NA
BRANCH   4  10
ATOM      9  C   UNL     1      -0.238   1.886  -0.606  0.00  0.00    +0.014 C 
ATOM     10  C   UNL     1      -0.178   0.377  -0.361  0.00  0.00    +0.033 C 
ATOM     11  C   UNL     1      -1.597  -0.193  -0.339  0.00  0.00    +0.014 C 
ENDBRANCH   4  10
ENDBRANCH   1   6
BRANCH   3  12
ATOM     12  C   UNL     1       4.492  -2.844  -2.051  0.00  0.00    +0.144 C 
BRANCH  12  13
ATOM     13  C   UNL     1       4.639  -3.925  -3.091  0.00  0.00    -0.012 A 
ATOM     14  C   UNL     1       3.518  -4.499  -3.670  0.00  0.00    +0.008 A 
ATOM     15  C   UNL     1       3.701  -5.490  -4.622  0.00  0.00    +0.020 A 
ATOM     16  C   UNL     1       4.987  -5.870  -4.960  0.00  0.00    +0.111 A 
ATOM     17  N   UNL     1       6.030  -5.302  -4.388  0.00  0.00    -0.263 NA
ATOM     18  C   UNL     1       5.894  -4.352  -3.483  0.00  0.00    +0.115 A 
ENDBRANCH  12  13
ENDBRANCH   3  12
BRANCH   3  19
ATOM     19  C   UNL     1       5.903  -0.936  -2.950  0.00  0.00    +0.111 C 
BRANCH  19  20
ATOM     20  C   UNL     1       6.324  -0.092  -1.745  0.00  0.00    +0.003 C 
ATOM     21  C   UNL     1       5.372   1.098  -1.596  0.00  0.00    -0.014 C 
ATOM     22  C   UNL     1       5.845   1.981  -0.439  0.00  0.00    -0.078 C 
ATOM     23  N   UNL     1       7.202   2.468  -0.713  0.00  0.00    +0.382 N 
ATOM     24  C   UNL     1       8.133   1.336  -0.786  0.00  0.00    -0.078 C 
ATOM     25  C   UNL     1       7.748   0.429  -1.957  0.00  0.00    -0.014 C 
ATOM     26  H   UNL     1       7.209   2.965  -1.592  0.00  0.00    -0.081 HD
BRANCH  23  27
ATOM     27  C   UNL     1       7.622   3.377   0.362  0.00  0.00    -0.069 C 
ATOM     28  C   UNL     1       6.700   4.613   0.399  0.00  0.00    -0.015 C 
ATOM     29  C   UNL     1       7.649   5.784   0.754  0.00  0.00    -0.002 C 
ATOM     30  C   UNL     1       8.936   5.431  -0.031  0.00  0.00    -0.002 C 
ATOM     31  C   UNL     1       9.043   3.897   0.088  0.00  0.00    -0.015 C 
ENDBRANCH  23  27
ENDBRANCH  19  20
ENDBRANCH   3  19
TORSDOF 7
