REMARK  Name = ZINC15521447
REMARK  7 active torsions:
REMARK  status: ('A' for Active; 'I' for Inactive)
REMARK    1  A    between atoms: C_1  and  C_2
REMARK    2  A    between atoms: C_4  and  N_25
REMARK    3  A    between atoms: C_7  and  N_8
REMARK    4  A    between atoms: C_9  and  C_11
REMARK    5  A    between atoms: C_11  and  S_12
REMARK    6  A    between atoms: S_12  and  C_13
REMARK    7  A    between atoms: N_17  and  C_18
REMARK                            x       y       z     vdW  Elec       q    Type
REMARK                         _______ _______ _______ _____ _____    ______ ____
ROOT
ATOM      1  N   UNL     1       5.871  -2.985  -0.070  0.00  0.00    -0.285 N 
ATOM      2  C   UNL     1       5.452  -1.854   0.530  0.00  0.00    +0.227 C 
ATOM      3  O   UNL     1       6.255  -1.120   1.068  0.00  0.00    -0.275 OA
ATOM      4  H   UNL     1       5.224  -3.613  -0.428  0.00  0.00    +0.155 HD
ENDROOT
BRANCH   1  11
ATOM      5  C   UNL     1       6.690  -5.699  -0.308  0.00  0.00    +0.046 C 
ATOM      6  C   UNL     1       7.684  -4.566  -0.295  0.00  0.00    -0.028 A 
ATOM      7  C   UNL     1       9.035  -4.832  -0.406  0.00  0.00    +0.028 A 
ATOM      8  C   UNL     1       9.951  -3.789  -0.390  0.00  0.00    +0.030 A 
ATOM      9  C   UNL     1       9.509  -2.478  -0.267  0.00  0.00    +0.025 A 
ATOM     10  C   UNL     1       8.159  -2.212  -0.162  0.00  0.00    +0.025 A 
ATOM     11  C   UNL     1       7.242  -3.255  -0.178  0.00  0.00    +0.036 A 
BRANCH   8  12
ATOM     12  N   UNL     1      11.320  -4.059  -0.496  0.00  0.00    -0.330 N 
ATOM     13  C   UNL     1      11.936  -3.265  -1.590  0.00  0.00    +0.105 C 
ATOM     14  C   UNL     1      13.442  -3.272  -1.228  0.00  0.00    +0.020 C 
ATOM     15  C   UNL     1      13.428  -3.167   0.314  0.00  0.00    +0.020 C 
ATOM     16  C   UNL     1      12.035  -3.667   0.739  0.00  0.00    +0.105 C 
ENDBRANCH   8  12
ENDBRANCH   1  11
BRANCH   2  17
ATOM     17  C   UNL     1       3.988  -1.500   0.532  0.00  0.00    +0.173 C 
BRANCH  17  18
ATOM     18  S   UNL     1       3.747   0.065   1.409  0.00  0.00    -0.075 S 
BRANCH  18  19
ATOM     19  C   UNL     1       1.998   0.231   1.264  0.00  0.00    +0.214 A 
ATOM     20  N   UNL     1       1.179  -0.605   0.663  0.00  0.00    -0.101 NA
ATOM     21  N   UNL     1      -0.031  -0.184   0.740  0.00  0.00    -0.022 NA
ATOM     22  N   UNL     1      -0.081   0.932   1.382  0.00  0.00    -0.038 NA
ATOM     23  N   UNL     1       1.237   1.251   1.751  0.00  0.00    -0.187 N 
BRANCH  23  24
ATOM     24  C   UNL     1       1.675   2.375   2.466  0.00  0.00    +0.073 A 
ATOM     25  C   UNL     1       2.734   2.263   3.357  0.00  0.00    +0.028 A 
ATOM     26  C   UNL     1       3.167   3.373   4.057  0.00  0.00    +0.005 A 
ATOM     27  C   UNL     1       2.540   4.592   3.880  0.00  0.00    +0.038 A 
ATOM     28  C   UNL     1       1.480   4.706   2.996  0.00  0.00    +0.125 A 
ATOM     29  C   UNL     1       1.046   3.599   2.288  0.00  0.00    +0.066 A 
ATOM     30  F   UNL     1       0.869   5.899   2.824  0.00  0.00    -0.205 F 
ENDBRANCH  23  24
ENDBRANCH  18  19
ENDBRANCH  17  18
ENDBRANCH   2  17
TORSDOF 6
