REMARK  Name = ZINC66471428
REMARK  6 active torsions:
REMARK  status: ('A' for Active; 'I' for Inactive)
REMARK    1  A    between atoms: C_1  and  C_2
REMARK    2  A    between atoms: C_12  and  C_14
REMARK    3  A    between atoms: C_14  and  C_16
REMARK    4  A    between atoms: C_14  and  N_17
REMARK    5  A    between atoms: C_20  and  N_23
REMARK    6  A    between atoms: C_24  and  C_26
REMARK                            x       y       z     vdW  Elec       q    Type
REMARK                         _______ _______ _______ _____ _____    ______ ____
ROOT
ATOM      1  N   UNL     1       3.748  -0.022   2.889  0.00  0.00    +0.387 N 
ATOM      2  C   UNL     1       4.326  -0.121   4.234  0.00  0.00    -0.076 C 
ATOM      3  C   UNL     1       5.602   0.720   4.309  0.00  0.00    +0.004 C 
ATOM      4  C   UNL     1       6.610   0.201   3.279  0.00  0.00    +0.070 C 
ATOM      5  C   UNL     1       5.970   0.239   1.889  0.00  0.00    +0.004 C 
ATOM      6  C   UNL     1       4.680  -0.584   1.904  0.00  0.00    -0.076 C 
ATOM      7  H   UNL     1       3.574   0.948   2.670  0.00  0.00    -0.081 HD
ENDROOT
BRANCH   4   8
ATOM      8  N   UNL     1       7.804   1.049   3.292  0.00  0.00    -0.308 N 
ATOM      9  C   UNL     1       8.989   0.551   2.885  0.00  0.00    +0.251 C 
ATOM     10  O   UNL     1       9.066  -0.603   2.506  0.00  0.00    -0.270 OA
ATOM     11  H   UNL     1       7.743   1.968   3.595  0.00  0.00    +0.149 HD
BRANCH   9  12
ATOM     12  C   UNL     1      10.184   1.399   2.898  0.00  0.00    +0.074 A 
ATOM     13  C   UNL     1      11.481   1.088   2.519  0.00  0.00    +0.021 A 
ATOM     14  C   UNL     1      12.399   2.103   2.645  0.00  0.00    +0.008 A 
ATOM     15  C   UNL     1      11.991   3.306   3.117  0.00  0.00    +0.046 A 
ATOM     16  S   UNL     1      10.347   3.103   3.398  0.00  0.00    -0.092 S 
ENDBRANCH   9  12
ENDBRANCH   4   8
BRANCH   1  17
ATOM     17  C   UNL     1       2.483  -0.767   2.845  0.00  0.00    +0.017 C 
ATOM     18  C   UNL     1       1.567  -0.285   3.971  0.00  0.00    -0.004 C 
BRANCH  17  29
ATOM     19  C   UNL     1      -0.686   0.334  -0.042  0.00  0.00    +0.029 C 
ATOM     20  C   UNL     1      -0.067  -1.065  -0.041  0.00  0.00    +0.083 C 
ATOM     21  C   UNL     1      -1.169  -2.136   0.017  0.00  0.00    +0.059 C 
ATOM     22  C   UNL     1      -0.902  -2.888   1.301  0.00  0.00    -0.024 A 
ATOM     23  C   UNL     1      -1.563  -3.954   1.881  0.00  0.00    +0.005 A 
ATOM     24  C   UNL     1      -1.119  -4.476   3.082  0.00  0.00    +0.000 A 
ATOM     25  C   UNL     1      -0.011  -3.928   3.702  0.00  0.00    +0.002 A 
ATOM     26  C   UNL     1       0.651  -2.864   3.128  0.00  0.00    +0.024 A 
ATOM     27  C   UNL     1       0.208  -2.332   1.915  0.00  0.00    +0.040 A 
ATOM     28  N   UNL     1       0.732  -1.267   1.171  0.00  0.00    -0.269 N 
ATOM     29  C   UNL     1       1.810  -0.536   1.516  0.00  0.00    +0.206 C 
ATOM     30  O   UNL     1       2.238   0.309   0.758  0.00  0.00    -0.277 OA
ENDBRANCH  17  29
ENDBRANCH   1  17
TORSDOF 4
