REMARK  Name = ZINC41513540
REMARK  13 active torsions:
REMARK  status: ('A' for Active; 'I' for Inactive)
REMARK    1  A    between atoms: C_1  and  C_2
REMARK    2  A    between atoms: C_4  and  O_31
REMARK    3  A    between atoms: C_5  and  C_21
REMARK    4  A    between atoms: C_11  and  C_12
REMARK    5  A    between atoms: C_21  and  N_22
REMARK    6  A    between atoms: N_22  and  C_23
REMARK    7  A    between atoms: N_22  and  C_27
REMARK    8  A    between atoms: C_23  and  C_24
REMARK    9  A    between atoms: C_24  and  C_25
REMARK   10  A    between atoms: C_24  and  C_26
REMARK   11  A    between atoms: C_27  and  C_28
REMARK   12  A    between atoms: C_28  and  C_29
REMARK   13  A    between atoms: C_28  and  C_30
REMARK                            x       y       z     vdW  Elec       q    Type
REMARK                         _______ _______ _______ _____ _____    ______ ____
ROOT
ATOM      1  C   UNL     1      -0.478   1.948   1.044  0.00  0.00    +0.045 C 
ATOM      2  C   UNL     1      -0.453   0.464   0.784  0.00  0.00    -0.033 A 
ATOM      3  C   UNL     1      -0.929  -0.032  -0.397  0.00  0.00    +0.050 A 
ATOM      4  C   UNL     1      -0.907  -1.403  -0.638  0.00  0.00    +0.122 A 
ATOM      5  C   UNL     1      -0.404  -2.278   0.311  0.00  0.00    +0.020 A 
ATOM      6  C   UNL     1       0.085  -1.790   1.516  0.00  0.00    +0.145 A 
ATOM      7  C   UNL     1       0.062  -0.405   1.746  0.00  0.00    +0.071 A 
ATOM      8  C   UNL     1       0.643  -0.196   3.085  0.00  0.00    +0.232 C 
ATOM      9  O   UNL     1       0.805   0.860   3.672  0.00  0.00    -0.283 OA
ATOM     10  C   UNL     1       0.982  -1.548   3.555  0.00  0.00    +0.176 C 
ATOM     11  C   UNL     1       1.547  -1.865   4.747  0.00  0.00    +0.059 C 
ATOM     12  O   UNL     1       0.618  -2.421   2.585  0.00  0.00    -0.451 OA
ENDROOT
BRANCH  11  13
ATOM     13  C   UNL     1       2.025  -0.800   5.639  0.00  0.00    -0.003 A 
ATOM     14  C   UNL     1       2.683   0.317   5.112  0.00  0.00    +0.011 A 
ATOM     15  C   UNL     1       3.128   1.312   5.955  0.00  0.00    +0.020 A 
ATOM     16  C   UNL     1       2.926   1.208   7.322  0.00  0.00    +0.042 A 
ATOM     17  C   UNL     1       2.277   0.106   7.853  0.00  0.00    +0.040 A 
ATOM     18  C   UNL     1       1.820  -0.895   7.022  0.00  0.00    +0.050 A 
ATOM     19 CL   UNL     1       0.999  -2.273   7.688  0.00  0.00    -0.083 Cl
ATOM     20 CL   UNL     1       3.492   2.467   8.376  0.00  0.00    -0.083 Cl
ENDBRANCH  11  13
BRANCH   4  21
ATOM     21  O   UNL     1      -1.383  -1.887  -1.813  0.00  0.00    -0.506 OA
ATOM     22  H   UNL     1      -0.717  -1.951  -2.511  0.00  0.00    +0.292 HD
ENDBRANCH   4  21
BRANCH   5  23
ATOM     23  C   UNL     1      -0.387  -3.760   0.036  0.00  0.00    -0.036 C 
BRANCH  23  24
ATOM     24  N   UNL     1       0.880  -4.123  -0.613  0.00  0.00    +0.383 N 
ATOM     25  H   UNL     1       1.008  -3.559  -1.440  0.00  0.00    -0.081 HD
BRANCH  24  26
ATOM     26  C   UNL     1       1.992  -3.888   0.318  0.00  0.00    -0.075 C 
BRANCH  26  27
ATOM     27  C   UNL     1       3.319  -4.161  -0.394  0.00  0.00    -0.034 C 
ATOM     28  C   UNL     1       3.481  -3.187  -1.562  0.00  0.00    +0.005 C 
ATOM     29  C   UNL     1       4.474  -3.972   0.592  0.00  0.00    +0.005 C 
ENDBRANCH  26  27
ENDBRANCH  24  26
BRANCH  24  30
ATOM     30  C   UNL     1       0.848  -5.543  -0.989  0.00  0.00    -0.075 C 
BRANCH  30  31
ATOM     31  C   UNL     1      -0.209  -5.760  -2.073  0.00  0.00    -0.034 C 
ATOM     32  C   UNL     1       0.173  -4.966  -3.324  0.00  0.00    +0.005 C 
ATOM     33  C   UNL     1      -0.288  -7.248  -2.418  0.00  0.00    +0.005 C 
ENDBRANCH  30  31
ENDBRANCH  24  30
ENDBRANCH  23  24
ENDBRANCH   5  23
TORSDOF 8
