REMARK  Name = ZINC55579391
REMARK  8 active torsions:
REMARK  status: ('A' for Active; 'I' for Inactive)
REMARK    1  A    between atoms: C_1  and  C_2
REMARK    2  A    between atoms: C_2  and  C_3
REMARK    3  A    between atoms: C_6  and  S_8
REMARK    4  A    between atoms: S_8  and  N_11
REMARK    5  A    between atoms: N_11  and  C_12
REMARK    6  A    between atoms: C_17  and  S_18
REMARK    7  A    between atoms: S_18  and  C_19
REMARK    8  A    between atoms: N_23  and  C_24
REMARK                            x       y       z     vdW  Elec       q    Type
REMARK                         _______ _______ _______ _____ _____    ______ ____
ROOT
ATOM      1  C   UNL     1       4.543  -4.034   4.436  0.00  0.00    +0.088 A 
ATOM      2  C   UNL     1       5.316  -3.168   5.196  0.00  0.00    +0.028 A 
ATOM      3  C   UNL     1       6.378  -3.655   5.934  0.00  0.00    +0.002 A 
ATOM      4  C   UNL     1       6.674  -5.006   5.918  0.00  0.00    +0.001 A 
ATOM      5  C   UNL     1       5.910  -5.877   5.164  0.00  0.00    +0.017 A 
ATOM      6  C   UNL     1       4.838  -5.397   4.425  0.00  0.00    +0.040 A 
ENDROOT
BRANCH   1   7
ATOM      7  N   UNL     1       3.467  -3.542   3.689  0.00  0.00    -0.096 NA
BRANCH   7   8
ATOM      8  S   UNL     1       3.119  -1.923   3.705  0.00  0.00    +0.098 S 
ATOM      9  O   UNL     1       4.211  -1.267   3.076  0.00  0.00    -0.148 OA
ATOM     10  O   UNL     1       2.700  -1.611   5.026  0.00  0.00    -0.148 OA
BRANCH   8  14
ATOM     11  C   UNL     1      -0.106  -1.252   0.723  0.00  0.00    -0.009 A 
ATOM     12  C   UNL     1      -0.533  -1.490   1.988  0.00  0.00    +0.013 A 
ATOM     13  C   UNL     1       0.402  -1.710   2.981  0.00  0.00    +0.037 A 
ATOM     14  C   UNL     1       1.719  -1.681   2.662  0.00  0.00    +0.148 A 
ATOM     15  S   UNL     1       1.667  -1.342   0.910  0.00  0.00    -0.073 S 
BRANCH  11  17
ATOM     16  C   UNL     1      -1.149   0.518  -0.665  0.00  0.00    +0.009 C 
ATOM     17  C   UNL     1      -0.917  -0.987  -0.519  0.00  0.00    +0.039 C 
ENDBRANCH  11  17
ENDBRANCH   8  14
ENDBRANCH   7   8
ENDBRANCH   1   7
BRANCH   6  18
ATOM     18  S   UNL     1       3.858  -6.505   3.469  0.00  0.00    -0.048 S 
BRANCH  18  19
ATOM     19  C   UNL     1       2.379  -6.686   4.410  0.00  0.00    +0.196 A 
ATOM     20  N   UNL     1       2.143  -6.179   5.598  0.00  0.00    -0.122 NA
ATOM     21  N   UNL     1       0.963  -6.510   5.986  0.00  0.00    -0.137 NA
ATOM     22  C   UNL     1       0.381  -7.241   5.078  0.00  0.00    +0.225 A 
ATOM     23  N   UNL     1       1.259  -7.375   4.039  0.00  0.00    -0.311 N 
ATOM     24  C   UNL     1       1.045  -8.107   2.788  0.00  0.00    +0.152 C 
ENDBRANCH  18  19
ENDBRANCH   6  18
TORSDOF 6
