REMARK  Name = ZINC51318512
REMARK  13 active torsions:
REMARK  status: ('A' for Active; 'I' for Inactive)
REMARK    1  A    between atoms: C_1  and  C_2
REMARK    2  A    between atoms: C_2  and  O_3
REMARK    3  A    between atoms: O_3  and  C_4
REMARK    4  A    between atoms: C_4  and  C_6
REMARK    5  A    between atoms: C_7  and  C_21
REMARK    6  A    between atoms: C_12  and  C_14
REMARK    7  A    between atoms: C_17  and  C_20
REMARK    8  A    between atoms: C_21  and  N_22
REMARK    9  A    between atoms: C_28  and  O_30
REMARK   10  A    between atoms: O_30  and  C_31
REMARK   11  A    between atoms: C_31  and  C_32
REMARK   12  A    between atoms: C_31  and  C_33
REMARK   13  A    between atoms: C_31  and  C_34
REMARK                            x       y       z     vdW  Elec       q    Type
REMARK                         _______ _______ _______ _____ _____    ______ ____
ROOT
ATOM      1  C   UNL     1      -2.795  -2.407   0.102  0.00  0.00    +0.079 C 
ATOM      2  C   UNL     1      -2.985  -3.731  -0.085  0.00  0.00    +0.038 C 
ATOM      3  N   UNL     1      -4.241  -4.259  -0.162  0.00  0.00    -0.271 N 
ATOM      4  C   UNL     1      -5.360  -3.530  -0.063  0.00  0.00    +0.304 C 
ATOM      5  O   UNL     1      -6.436  -4.091  -0.144  0.00  0.00    -0.252 OA
ATOM      6  N   UNL     1      -5.333  -2.196   0.125  0.00  0.00    -0.288 N 
ATOM      7  C   UNL     1      -4.024  -1.529   0.228  0.00  0.00    +0.144 C 
ATOM      8  H   UNL     1      -4.329  -5.215  -0.297  0.00  0.00    +0.156 HD
ATOM      9  H   UNL     1      -6.156  -1.687   0.194  0.00  0.00    +0.151 HD
ENDROOT
BRANCH   7  10
ATOM     10  C   UNL     1      -3.957  -0.478  -0.850  0.00  0.00    -0.022 A 
ATOM     11  C   UNL     1      -4.337  -0.788  -2.142  0.00  0.00    +0.006 A 
ATOM     12  C   UNL     1      -4.275   0.176  -3.131  0.00  0.00    +0.004 A 
ATOM     13  C   UNL     1      -3.834   1.450  -2.827  0.00  0.00    -0.050 A 
ATOM     14  C   UNL     1      -3.456   1.761  -1.534  0.00  0.00    +0.004 A 
ATOM     15  C   UNL     1      -3.521   0.798  -0.544  0.00  0.00    +0.006 A 
ATOM     16  C   UNL     1      -3.766   2.502  -3.905  0.00  0.00    +0.044 C 
ENDBRANCH   7  10
BRANCH   1  17
ATOM     17  C   UNL     1      -1.494  -1.858   0.183  0.00  0.00    +0.339 C 
ATOM     18  O   UNL     1      -1.019  -1.575   1.267  0.00  0.00    -0.245 OA
BRANCH  17  19
ATOM     19  O   UNL     1      -0.778  -1.650  -0.942  0.00  0.00    -0.462 OA
BRANCH  19  21
ATOM     20  C   UNL     1       1.181  -0.930  -2.160  0.00  0.00    +0.048 C 
ATOM     21  C   UNL     1       0.529  -1.093  -0.786  0.00  0.00    +0.229 C 
ENDBRANCH  19  21
ENDBRANCH  17  19
ENDBRANCH   1  17
BRANCH   2  22
ATOM     22  C   UNL     1      -1.789  -4.640  -0.210  0.00  0.00    +0.136 C 
BRANCH  22  23
ATOM     23  N   UNL     1      -1.770  -5.582   0.917  0.00  0.00    -0.294 NA
ATOM     24  C   UNL     1      -1.552  -4.878   2.188  0.00  0.00    +0.104 C 
ATOM     25  C   UNL     1      -1.719  -5.864   3.349  0.00  0.00    +0.126 C 
ATOM     26  N   UNL     1      -0.834  -7.016   3.116  0.00  0.00    -0.265 N 
ATOM     27  C   UNL     1      -0.899  -7.689   1.810  0.00  0.00    +0.126 C 
ATOM     28  C   UNL     1      -0.764  -6.632   0.709  0.00  0.00    +0.104 C 
ATOM     29  C   UNL     1       0.013  -7.442   4.073  0.00  0.00    +0.403 C 
ATOM     30  O   UNL     1       0.054  -6.874   5.146  0.00  0.00    -0.226 OA
BRANCH  29  31
ATOM     31  O   UNL     1       0.815  -8.498   3.840  0.00  0.00    -0.445 OA
BRANCH  31  32
ATOM     32  C   UNL     1       1.688  -8.896   4.899  0.00  0.00    +0.107 C 
ATOM     33  C   UNL     1       0.860  -9.273   6.129  0.00  0.00    +0.055 C 
ATOM     34  C   UNL     1       2.515 -10.104   4.452  0.00  0.00    +0.055 C 
ATOM     35  C   UNL     1       2.625  -7.738   5.250  0.00  0.00    +0.055 C 
ENDBRANCH  31  32
ENDBRANCH  29  31
ENDBRANCH  22  23
ENDBRANCH   2  22
TORSDOF 8
