REMARK  Name = ZINC01922748
REMARK  5 active torsions:
REMARK  status: ('A' for Active; 'I' for Inactive)
REMARK    1  A    between atoms: C_4  and  C_7
REMARK    2  A    between atoms: C_7  and  S_8
REMARK    3  A    between atoms: S_8  and  C_9
REMARK    4  A    between atoms: N_13  and  C_14
REMARK    5  A    between atoms: C_14  and  C_15
REMARK                            x       y       z     vdW  Elec       q    Type
REMARK                         _______ _______ _______ _____ _____    ______ ____
ROOT
ATOM      1  C   UNL     1       5.754  -1.850  -1.609  0.00  0.00    +0.193 A 
ATOM      2  N   UNL     1       6.346  -2.182  -0.488  0.00  0.00    -0.121 NA
ATOM      3  N   UNL     1       7.536  -2.848  -0.808  0.00  0.00    -0.113 NA
ATOM      4  C   UNL     1       7.632  -2.901  -2.114  0.00  0.00    +0.215 A 
ATOM      5  N   UNL     1       6.531  -2.291  -2.643  0.00  0.00    -0.286 N 
ATOM      6  N   UNL     1       8.669  -3.482  -2.833  0.00  0.00    -0.328 N 
ATOM      7  H   UNL     1       9.410  -3.897  -2.366  0.00  0.00    +0.145 HD
ATOM      8  H   UNL     1       8.651  -3.472  -3.803  0.00  0.00    +0.145 HD
ENDROOT
BRANCH   1   9
ATOM      9  S   UNL     1       4.221  -0.993  -1.756  0.00  0.00    -0.081 S 
BRANCH   9  10
ATOM     10  C   UNL     1       3.711  -0.707  -0.039  0.00  0.00    +0.112 C 
BRANCH  10  14
ATOM     11  C   UNL     1      -0.017   1.378   0.010  0.00  0.00    +0.000 A 
ATOM     12  C   UNL     1       1.171   2.086   0.002  0.00  0.00    +0.000 A 
ATOM     13  C   UNL     1       2.377   1.411  -0.014  0.00  0.00    +0.004 A 
ATOM     14  C   UNL     1       2.396   0.029  -0.022  0.00  0.00    -0.037 A 
ATOM     15  C   UNL     1       1.208  -0.679  -0.014  0.00  0.00    +0.004 A 
ATOM     16  C   UNL     1       0.002  -0.004   0.002  0.00  0.00    +0.000 A 
ENDBRANCH  10  14
ENDBRANCH   9  10
ENDBRANCH   1   9
BRANCH   5  17
ATOM     17  C   UNL     1       6.236  -2.134  -4.070  0.00  0.00    +0.166 C 
BRANCH  17  18
ATOM     18  C   UNL     1       6.829  -0.840  -4.566  0.00  0.00    +0.016 A 
ATOM     19  C   UNL     1       6.050   0.300  -4.622  0.00  0.00    +0.029 A 
ATOM     20  C   UNL     1       6.596   1.489  -5.072  0.00  0.00    +0.042 A 
ATOM     21  C   UNL     1       7.918   1.535  -5.478  0.00  0.00    +0.029 A 
ATOM     22  C   UNL     1       8.698   0.395  -5.430  0.00  0.00    +0.022 A 
ATOM     23  C   UNL     1       8.155  -0.795  -4.971  0.00  0.00    +0.134 A 
ATOM     24  O   UNL     1       8.915  -1.922  -4.910  0.00  0.00    -0.465 OA
ATOM     25  C   UNL     1      10.132  -1.922  -5.661  0.00  0.00    +0.394 C 
ATOM     26  O   UNL     1      10.830  -0.699  -5.401  0.00  0.00    -0.339 OA
ATOM     27  C   UNL     1      10.135   0.456  -5.882  0.00  0.00    +0.202 C 
ATOM     28 CL   UNL     1       5.619   2.923  -5.134  0.00  0.00    -0.084 Cl
ENDBRANCH  17  18
ENDBRANCH   5  17
TORSDOF 5
