REMARK  Name = ZINC09061675
REMARK  9 active torsions:
REMARK  status: ('A' for Active; 'I' for Inactive)
REMARK    1  A    between atoms: C_4  and  C_7
REMARK    2  A    between atoms: C_9  and  C_12
REMARK    3  A    between atoms: C_12  and  C_13
REMARK    4  A    between atoms: C_13  and  C_14
REMARK    5  A    between atoms: C_20  and  S_22
REMARK    6  A    between atoms: S_22  and  C_23
REMARK    7  A    between atoms: C_23  and  C_24
REMARK    8  A    between atoms: C_24  and  C_25
REMARK    9  A    between atoms: N_27  and  C_28
REMARK                            x       y       z     vdW  Elec       q    Type
REMARK                         _______ _______ _______ _____ _____    ______ ____
ROOT
ATOM      1  C   UNL     1       0.296  -2.910  -0.026  0.00  0.00    +0.219 C 
ATOM      2  O   UNL     1      -0.835  -2.471  -0.020  0.00  0.00    -0.275 OA
ATOM      3  N   UNL     1       1.346  -2.066  -0.022  0.00  0.00    -0.263 N 
ATOM      4  C   UNL     1       1.134  -0.690  -0.011  0.00  0.00    +0.189 A 
ATOM      5  N   UNL     1       0.003  -0.004  -0.003  0.00  0.00    -0.125 NA
ATOM      6  N   UNL     1      -0.014   1.257   0.007  0.00  0.00    -0.133 NA
ATOM      7  C   UNL     1       1.101   1.973   0.009  0.00  0.00    +0.160 A 
ATOM      8  S   UNL     1       2.314   0.657  -0.004  0.00  0.00    -0.024 S 
ATOM      9  H   UNL     1       2.251  -2.417  -0.027  0.00  0.00    +0.157 HD
ENDROOT
BRANCH   1  10
ATOM     10  C   UNL     1       0.525  -4.399  -0.038  0.00  0.00    +0.105 C 
BRANCH  10  11
ATOM     11  C   UNL     1      -0.823  -5.123  -0.040  0.00  0.00    +0.108 C 
BRANCH  11  14
ATOM     12  C   UNL     1      -0.281  -8.635   0.504  0.00  0.00    +0.202 A 
ATOM     13  N   UNL     1      -0.472  -7.389   0.995  0.00  0.00    -0.191 NA
ATOM     14  C   UNL     1      -0.593  -6.613  -0.052  0.00  0.00    +0.228 A 
ATOM     15  O   UNL     1      -0.480  -7.390  -1.134  0.00  0.00    -0.338 OA
ATOM     16  N   UNL     1      -0.297  -8.542  -0.800  0.00  0.00    -0.056 NA
BRANCH  12  20
ATOM     17  C   UNL     1       0.266 -12.188   2.775  0.00  0.00    +0.000 A 
ATOM     18  C   UNL     1       0.274 -12.245   1.393  0.00  0.00    +0.001 A 
ATOM     19  C   UNL     1       0.097 -11.095   0.651  0.00  0.00    +0.012 A 
ATOM     20  C   UNL     1      -0.090  -9.875   1.297  0.00  0.00    +0.022 A 
ATOM     21  C   UNL     1      -0.091  -9.822   2.689  0.00  0.00    +0.012 A 
ATOM     22  C   UNL     1       0.081 -10.979   3.421  0.00  0.00    +0.001 A 
ENDBRANCH  12  20
ENDBRANCH  11  14
ENDBRANCH  10  11
ENDBRANCH   1  10
BRANCH   7  23
ATOM     23  S   UNL     1       1.325   3.721   0.022  0.00  0.00    -0.096 S 
BRANCH  23  24
ATOM     24  C   UNL     1      -0.365   4.380   0.031  0.00  0.00    +0.085 C 
BRANCH  24  25
ATOM     25  C   UNL     1      -0.316   5.909   0.042  0.00  0.00    +0.107 C 
BRANCH  25  26
ATOM     26  C   UNL     1      -1.720   6.457   0.050  0.00  0.00    +0.218 C 
ATOM     27  O   UNL     1      -2.667   5.699   0.046  0.00  0.00    -0.275 OA
ATOM     28  N   UNL     1      -1.923   7.789   0.060  0.00  0.00    -0.285 N 
ATOM     29  H   UNL     1      -1.169   8.395   0.130  0.00  0.00    +0.155 HD
BRANCH  28  30
ATOM     30  C   UNL     1      -3.224   8.299  -0.031  0.00  0.00    +0.033 A 
ATOM     31  C   UNL     1      -3.460   9.485  -0.714  0.00  0.00    +0.025 A 
ATOM     32  C   UNL     1      -4.745   9.983  -0.806  0.00  0.00    +0.022 A 
ATOM     33  C   UNL     1      -5.794   9.308  -0.209  0.00  0.00    +0.041 A 
ATOM     34  C   UNL     1      -5.561   8.129   0.477  0.00  0.00    +0.022 A 
ATOM     35  C   UNL     1      -4.279   7.623   0.568  0.00  0.00    +0.025 A 
ATOM     36 CL   UNL     1      -7.407   9.940  -0.321  0.00  0.00    -0.084 Cl
ENDBRANCH  28  30
ENDBRANCH  25  26
ENDBRANCH  24  25
ENDBRANCH  23  24
ENDBRANCH   7  23
TORSDOF 9
