REMARK  Name = ZINC06101381
REMARK  10 active torsions:
REMARK  status: ('A' for Active; 'I' for Inactive)
REMARK    1  A    between atoms: C_1  and  C_2
REMARK    2  A    between atoms: C_2  and  C_3
REMARK    3  A    between atoms: C_13  and  C_15
REMARK    4  A    between atoms: C_15  and  C_17
REMARK    5  A    between atoms: C_15  and  N_24
REMARK    6  A    between atoms: C_17  and  C_18
REMARK    7  A    between atoms: N_24  and  S_25
REMARK    8  A    between atoms: S_25  and  C_28
REMARK    9  A    between atoms: C_31  and  O_34
REMARK   10  A    between atoms: O_34  and  C_35
REMARK                            x       y       z     vdW  Elec       q    Type
REMARK                         _______ _______ _______ _____ _____    ______ ____
ROOT
ATOM      1  C   UNL     1      -0.049  11.570   1.781  0.00  0.00    +0.168 C 
ENDROOT
BRANCH   1  12
ATOM      2  C   UNL     1      -0.749   3.086   1.275  0.00  0.00    -0.046 A 
ATOM      3  C   UNL     1      -1.801   3.776   0.690  0.00  0.00    +0.006 A 
ATOM      4  C   UNL     1      -1.844   5.146   0.684  0.00  0.00    +0.029 A 
ATOM      5  C   UNL     1      -0.809   5.904   1.278  0.00  0.00    +0.080 A 
ATOM      6  C   UNL     1       0.246   5.167   1.864  0.00  0.00    +0.041 A 
ATOM      7  C   UNL     1       0.278   3.795   1.871  0.00  0.00    +0.021 A 
ATOM      8  S   UNL     1       1.307   6.452   2.480  0.00  0.00    -0.052 S 
ATOM      9  C   UNL     1       0.318   7.839   1.939  0.00  0.00    +0.165 A 
ATOM     10  N   UNL     1      -0.699   7.247   1.357  0.00  0.00    -0.225 NA
ATOM     11  N   UNL     1       0.562   9.194   2.095  0.00  0.00    -0.263 N 
ATOM     12  C   UNL     1      -0.315  10.097   1.611  0.00  0.00    +0.238 C 
ATOM     13  O   UNL     1      -1.317   9.723   1.040  0.00  0.00    -0.274 OA
ATOM     14  H   UNL     1       1.471   9.533   2.612  0.00  0.00    +0.157 HD
BRANCH   2  16
ATOM     15  C   UNL     1      -0.013   1.086   0.008  0.00  0.00    +0.009 C 
ATOM     16  C   UNL     1      -0.729   1.579   1.267  0.00  0.00    +0.032 C 
ENDBRANCH   2  16
ENDBRANCH   1  12
BRANCH   1  17
ATOM     17  N   UNL     1      -1.141  12.336   1.174  0.00  0.00    -0.178 NA
ATOM     18  H   UNL     1      -2.137  11.883   1.068  0.00  0.00    +0.149 HD
BRANCH  17  19
ATOM     19  S   UNL     1      -0.824  13.780   0.427  0.00  0.00    +0.059 S 
ATOM     20  O   UNL     1      -2.064  14.257  -0.076  0.00  0.00    -0.153 OA
ATOM     21  O   UNL     1      -0.025  14.536   1.326  0.00  0.00    -0.153 OA
BRANCH  19  22
ATOM     22  C   UNL     1       0.187  13.431  -0.974  0.00  0.00    +0.105 A 
ATOM     23  C   UNL     1       1.564  13.434  -0.849  0.00  0.00    +0.032 A 
ATOM     24  C   UNL     1       2.358  13.155  -1.944  0.00  0.00    +0.047 A 
ATOM     25  C   UNL     1       1.773  12.883  -3.173  0.00  0.00    +0.120 A 
ATOM     26  C   UNL     1       0.392  12.886  -3.296  0.00  0.00    +0.047 A 
ATOM     27  C   UNL     1      -0.399  13.160  -2.197  0.00  0.00    +0.032 A 
BRANCH  25  28
ATOM     28  O   UNL     1       2.553  12.613  -4.253  0.00  0.00    -0.495 OA
ATOM     29  C   UNL     1       3.967  12.627  -4.052  0.00  0.00    +0.277 C 
ENDBRANCH  25  28
ENDBRANCH  19  22
ENDBRANCH  17  19
ENDBRANCH   1  17
BRANCH   1  30
ATOM     30  C   UNL     1       0.042  11.904   3.271  0.00  0.00    +0.086 C 
BRANCH  30  31
ATOM     31  C   UNL     1       0.428  13.351   3.439  0.00  0.00    +0.061 A 
ATOM     32  C   UNL     1      -0.251  14.275   4.144  0.00  0.00    +0.107 A 
ATOM     33  N   UNL     1       0.446  15.448   4.037  0.00  0.00    -0.351 N 
ATOM     34  H   UNL     1       0.081  16.354   4.543  0.00  0.00    +0.166 HD
ATOM     35  C   UNL     1       1.524  15.202   3.261  0.00  0.00    +0.196 A 
ATOM     36  N   UNL     1       1.506  13.946   2.907  0.00  0.00    -0.241 NA
ENDBRANCH  30  31
ENDBRANCH   1  30
TORSDOF 8
