REMARK  Name = ZINC22362171
REMARK  13 active torsions:
REMARK  status: ('A' for Active; 'I' for Inactive)
REMARK    1  A    between atoms: C_1  and  C_2
REMARK    2  A    between atoms: C_2  and  C_3
REMARK    3  A    between atoms: N_9  and  C_10
REMARK    4  A    between atoms: C_10  and  C_11
REMARK    5  A    between atoms: C_11  and  C_12
REMARK    6  A    between atoms: C_12  and  N_13
REMARK    7  A    between atoms: C_14  and  C_16
REMARK    8  A    between atoms: C_16  and  N_17
REMARK    9  A    between atoms: N_17  and  C_18
REMARK   10  A    between atoms: N_17  and  S_26
REMARK   11  A    between atoms: C_22  and  C_25
REMARK   12  A    between atoms: C_23  and  C_24
REMARK   13  A    between atoms: S_26  and  C_29
REMARK                            x       y       z     vdW  Elec       q    Type
REMARK                         _______ _______ _______ _____ _____    ______ ____
ROOT
ATOM      1  N   UNL     1      -2.223   0.577   2.944  0.00  0.00    -0.194 N 
ENDROOT
BRANCH   1   2
ATOM      2  C   UNL     1      -3.164  -0.213   3.609  0.00  0.00    +0.055 A 
ATOM      3  C   UNL     1      -4.519  -0.043   3.355  0.00  0.00    +0.025 A 
ATOM      4  C   UNL     1      -5.446  -0.829   4.011  0.00  0.00    +0.002 A 
ATOM      5  C   UNL     1      -5.028  -1.776   4.928  0.00  0.00    +0.004 A 
ATOM      6  C   UNL     1      -3.680  -1.944   5.187  0.00  0.00    -0.046 A 
ATOM      7  C   UNL     1      -2.747  -1.165   4.530  0.00  0.00    -0.025 A 
ATOM      8  C   UNL     1      -1.278  -1.349   4.813  0.00  0.00    +0.046 C 
ATOM      9  C   UNL     1      -3.228  -2.977   6.186  0.00  0.00    +0.044 C 
ENDBRANCH   1   2
BRANCH   1  10
ATOM     10  S   UNL     1      -1.537   0.038   1.536  0.00  0.00    +0.075 S 
ATOM     11  O   UNL     1      -1.042   1.186   0.861  0.00  0.00    -0.150 OA
ATOM     12  O   UNL     1      -2.473  -0.851   0.943  0.00  0.00    -0.150 OA
BRANCH  10  13
ATOM     13  C   UNL     1      -0.133  -0.931   1.979  0.00  0.00    +0.109 A 
ATOM     14  C   UNL     1       1.074  -0.315   2.249  0.00  0.00    +0.029 A 
ATOM     15  C   UNL     1       2.177  -1.075   2.590  0.00  0.00    +0.002 A 
ATOM     16  C   UNL     1       2.072  -2.452   2.661  0.00  0.00    +0.000 A 
ATOM     17  C   UNL     1       0.865  -3.068   2.390  0.00  0.00    +0.002 A 
ATOM     18  C   UNL     1      -0.238  -2.307   2.049  0.00  0.00    +0.029 A 
ENDBRANCH  10  13
ENDBRANCH   1  10
BRANCH   1  19
ATOM     19  C   UNL     1      -1.843   1.881   3.492  0.00  0.00    +0.227 C 
BRANCH  19  21
ATOM     20  N   UNL     1      -2.679   4.208   3.416  0.00  0.00    -0.314 N 
ATOM     21  C   UNL     1      -2.829   2.925   3.033  0.00  0.00    +0.232 C 
ATOM     22  O   UNL     1      -3.758   2.610   2.320  0.00  0.00    -0.274 OA
ATOM     23  H   UNL     1      -1.837   4.494   4.064  0.00  0.00    +0.149 HD
BRANCH  20  24
ATOM     24  C   UNL     1      -3.638   5.223   2.971  0.00  0.00    +0.102 C 
BRANCH  24  25
ATOM     25  C   UNL     1      -3.241   6.585   3.542  0.00  0.00    +0.000 C 
BRANCH  25  26
ATOM     26  C   UNL     1      -4.242   7.644   3.077  0.00  0.00    -0.077 C 
BRANCH  26  32
ATOM     27  C   UNL     1      -4.747  10.012   3.124  0.00  0.00    -0.069 C 
ATOM     28  C   UNL     1      -4.415  11.331   3.826  0.00  0.00    -0.015 C 
ATOM     29  C   UNL     1      -2.951  11.692   3.557  0.00  0.00    -0.003 C 
ATOM     30  C   UNL     1      -2.054  10.552   4.045  0.00  0.00    -0.019 C 
ATOM     31  C   UNL     1      -2.454   9.255   3.337  0.00  0.00    -0.078 C 
ATOM     32  N   UNL     1      -3.862   8.953   3.626  0.00  0.00    +0.382 N 
ATOM     33  H   UNL     1      -3.977   8.909   4.719  0.00  0.00    -0.081 HD
BRANCH  27  35
ATOM     34  C   UNL     1      -7.130  10.670   2.765  0.00  0.00    +0.002 C 
ATOM     35  C   UNL     1      -6.202   9.636   3.407  0.00  0.00    -0.019 C 
ENDBRANCH  27  35
ENDBRANCH  26  32
ENDBRANCH  25  26
ENDBRANCH  24  25
ENDBRANCH  20  24
ENDBRANCH  19  21
ENDBRANCH   1  19
TORSDOF 10
