REMARK  Name = ZINC36024769
REMARK  5 active torsions:
REMARK  status: ('A' for Active; 'I' for Inactive)
REMARK    1  A    between atoms: C_4  and  C_7
REMARK    2  A    between atoms: C_7  and  C_8
REMARK    3  A    between atoms: N_12  and  C_29
REMARK    4  A    between atoms: C_20  and  C_22
REMARK    5  A    between atoms: C_29  and  C_30
REMARK                            x       y       z     vdW  Elec       q    Type
REMARK                         _______ _______ _______ _____ _____    ______ ____
ROOT
ATOM      1  C   UNL     1       4.188  -0.217   1.354  0.00  0.00    +0.023 C 
ATOM      2  C   UNL     1       5.160  -1.376   1.384  0.00  0.00    +0.201 C 
ATOM      3  O   UNL     1       5.029  -2.426   0.791  0.00  0.00    -0.277 OA
ATOM      4  N   UNL     1       6.197  -1.045   2.181  0.00  0.00    -0.309 N 
ATOM      5  C   UNL     1       5.989   0.302   2.719  0.00  0.00    +0.006 C 
ATOM      6  N   UNL     1       4.959   0.940   1.869  0.00  0.00    +0.401 N 
ATOM      7  C   UNL     1       5.490   0.224   4.160  0.00  0.00    +0.025 C 
ATOM      8  C   UNL     1       6.545  -0.473   5.026  0.00  0.00    +0.108 C 
ATOM      9  N   UNL     1       7.828   0.223   4.859  0.00  0.00    -0.298 N 
ATOM     10  C   UNL     1       8.357   0.416   3.502  0.00  0.00    +0.108 C 
ATOM     11  C   UNL     1       7.287   1.106   2.649  0.00  0.00    +0.025 C 
ATOM     12  C   UNL     1       8.507   0.676   5.931  0.00  0.00    +0.247 C 
ATOM     13  O   UNL     1       9.517   1.336   5.777  0.00  0.00    -0.270 OA
ATOM     14  H   UNL     1       5.388   1.449   1.111  0.00  0.00    -0.082 HD
ATOM     15  H   UNL     1       4.368   1.546   2.418  0.00  0.00    -0.082 HD
ENDROOT
BRANCH  12  16
ATOM     16  C   UNL     1       8.025   0.371   7.294  0.00  0.00    +0.037 A 
ATOM     17  C   UNL     1       7.496  -0.887   7.585  0.00  0.00    +0.014 A 
ATOM     18  C   UNL     1       7.048  -1.166   8.859  0.00  0.00    +0.021 A 
ATOM     19  C   UNL     1       7.122  -0.200   9.849  0.00  0.00    +0.041 A 
ATOM     20  C   UNL     1       7.646   1.050   9.567  0.00  0.00    +0.021 A 
ATOM     21  C   UNL     1       8.102   1.339   8.298  0.00  0.00    +0.014 A 
ATOM     22 CL   UNL     1       6.555  -0.558  11.450  0.00  0.00    -0.084 Cl
ENDBRANCH  12  16
BRANCH   1  23
ATOM     23  C   UNL     1       3.720   0.049  -0.078  0.00  0.00    +0.028 C 
BRANCH  23  27
ATOM     24  C   UNL     1       0.874   3.234  -0.080  0.00  0.00    +0.000 A 
ATOM     25  C   UNL     1       2.220   3.511  -0.220  0.00  0.00    +0.000 A 
ATOM     26  C   UNL     1       3.142   2.480  -0.220  0.00  0.00    +0.003 A 
ATOM     27  C   UNL     1       2.716   1.173  -0.078  0.00  0.00    -0.048 A 
ATOM     28  C   UNL     1       1.369   0.896   0.064  0.00  0.00    +0.003 A 
ATOM     29  C   UNL     1       0.448   1.927   0.062  0.00  0.00    +0.000 A 
ENDBRANCH  23  27
ENDBRANCH   1  23
BRANCH   4  30
ATOM     30  C   UNL     1       7.353  -1.899   2.465  0.00  0.00    +0.141 C 
BRANCH  30  31
ATOM     31  C   UNL     1       8.303  -1.864   1.295  0.00  0.00    -0.026 A 
ATOM     32  C   UNL     1       8.453  -2.982   0.495  0.00  0.00    +0.009 A 
ATOM     33  C   UNL     1       9.323  -2.954  -0.579  0.00  0.00    +0.050 A 
ATOM     34  C   UNL     1      10.047  -1.806  -0.856  0.00  0.00    +0.166 A 
ATOM     35  C   UNL     1       9.896  -0.681  -0.050  0.00  0.00    +0.167 A 
ATOM     36  C   UNL     1       9.018  -0.713   1.022  0.00  0.00    +0.054 A 
ATOM     37  O   UNL     1      10.708   0.308  -0.524  0.00  0.00    -0.453 OA
ATOM     38  C   UNL     1      11.660  -0.353  -1.379  0.00  0.00    +0.466 C 
ATOM     39  O   UNL     1      10.954  -1.522  -1.835  0.00  0.00    -0.453 OA
ENDBRANCH  30  31
ENDBRANCH   4  30
TORSDOF 5
