REMARK  Name = ZINC60099653
REMARK  6 active torsions:
REMARK  status: ('A' for Active; 'I' for Inactive)
REMARK    1  A    between atoms: C_1  and  C_2
REMARK    2  A    between atoms: C_5  and  C_8
REMARK    3  A    between atoms: C_8  and  C_10
REMARK    4  A    between atoms: C_8  and  N_15
REMARK    5  A    between atoms: C_16  and  C_18
REMARK    6  A    between atoms: C_18  and  N_19
REMARK                            x       y       z     vdW  Elec       q    Type
REMARK                         _______ _______ _______ _____ _____    ______ ____
ROOT
ATOM      1  N   UNL     1      -0.816  -4.781   1.039  0.00  0.00    -0.306 N 
ATOM      2  C   UNL     1      -1.361  -6.009   0.935  0.00  0.00    +0.197 C 
ATOM      3  O   UNL     1      -1.125  -6.696  -0.037  0.00  0.00    -0.278 OA
ATOM      4  H   UNL     1      -1.004  -4.231   1.816  0.00  0.00    +0.150 HD
ENDROOT
BRANCH   1   5
ATOM      5  C   UNL     1       0.059  -4.275  -0.021  0.00  0.00    +0.140 C 
BRANCH   5  10
ATOM      6  C   UNL     1      -0.018   1.503   0.010  0.00  0.00    +0.044 C 
ATOM      7  C   UNL     1       0.002  -0.004   0.002  0.00  0.00    -0.050 A 
ATOM      8  C   UNL     1       0.006  -0.689  -1.199  0.00  0.00    +0.004 A 
ATOM      9  C   UNL     1       0.025  -2.071  -1.206  0.00  0.00    +0.006 A 
ATOM     10  C   UNL     1       0.040  -2.768  -0.013  0.00  0.00    -0.022 A 
ATOM     11  C   UNL     1       0.037  -2.084   1.188  0.00  0.00    +0.006 A 
ATOM     12  C   UNL     1       0.023  -0.702   1.195  0.00  0.00    +0.004 A 
ENDBRANCH   5  10
BRANCH   5  13
ATOM     13  C   UNL     1       1.466  -4.761   0.215  0.00  0.00    +0.014 A 
ATOM     14  C   UNL     1       2.382  -5.196  -0.685  0.00  0.00    +0.013 A 
ATOM     15  C   UNL     1       3.626  -5.597  -0.236  0.00  0.00    +0.008 A 
ATOM     16  C   UNL     1       3.893  -5.544   1.092  0.00  0.00    +0.045 A 
ATOM     17  S   UNL     1       2.363  -4.905   1.752  0.00  0.00    -0.099 S 
ENDBRANCH   5  13
ENDBRANCH   1   5
BRANCH   2  18
ATOM     18  C   UNL     1      -2.261  -6.529   2.025  0.00  0.00    +0.019 C 
BRANCH  18  19
ATOM     19  N   UNL     1      -2.722  -7.880   1.677  0.00  0.00    +0.386 N 
ATOM     20  C   UNL     1      -3.777  -8.262   2.613  0.00  0.00    -0.077 C 
ATOM     21  C   UNL     1      -4.729  -9.218   1.928  0.00  0.00    +0.000 C 
ATOM     22  C   UNL     1      -4.298 -10.667   2.217  0.00  0.00    +0.105 C 
ATOM     23  N   UNL     1      -2.828 -10.801   2.174  0.00  0.00    -0.311 N 
ATOM     24  C   UNL     1      -2.018 -10.148   1.167  0.00  0.00    +0.088 C 
ATOM     25  C   UNL     1      -1.603  -8.742   1.658  0.00  0.00    -0.059 C 
ATOM     26  C   UNL     1      -2.200 -11.581   3.133  0.00  0.00    +0.161 A 
ATOM     27  N   UNL     1      -0.914 -11.824   3.276  0.00  0.00    -0.233 NA
ATOM     28  C   UNL     1      -0.471 -12.596   4.253  0.00  0.00    +0.120 A 
ATOM     29  C   UNL     1      -1.396 -13.120   5.092  0.00  0.00    +0.068 A 
ATOM     30  S   UNL     1      -2.896 -12.440   4.402  0.00  0.00    -0.061 S 
ATOM     31  H   UNL     1      -3.117  -7.851   0.749  0.00  0.00    -0.081 HD
ENDBRANCH  18  19
ENDBRANCH   2  18
TORSDOF 5
