REMARK  Name = ZINC12473606
REMARK  9 active torsions:
REMARK  status: ('A' for Active; 'I' for Inactive)
REMARK    1  A    between atoms: C_3  and  C_6
REMARK    2  A    between atoms: C_6  and  N_7
REMARK    3  A    between atoms: N_7  and  C_8
REMARK    4  A    between atoms: C_8  and  C_10
REMARK    5  A    between atoms: C_8  and  C_17
REMARK    6  A    between atoms: N_19  and  C_20
REMARK    7  A    between atoms: C_25  and  C_27
REMARK    8  A    between atoms: C_28  and  N_35
REMARK    9  A    between atoms: C_29  and  C_32
REMARK                            x       y       z     vdW  Elec       q    Type
REMARK                         _______ _______ _______ _____ _____    ______ ____
ROOT
ATOM      1  N   UNL     1      -1.246   1.656  -0.788  0.00  0.00    -0.277 N 
ATOM      2  C   UNL     1      -2.576   1.487  -0.922  0.00  0.00    +0.258 C 
ATOM      3  O   UNL     1      -3.135   0.574  -0.343  0.00  0.00    -0.269 OA
ENDROOT
BRANCH   2   4
ATOM      4  C   UNL     1      -3.350   2.401  -1.765  0.00  0.00    +0.115 A 
ATOM      5  C   UNL     1      -4.700   2.352  -2.116  0.00  0.00    +0.076 A 
ATOM      6  C   UNL     1      -5.075   3.410  -2.944  0.00  0.00    +0.155 A 
ATOM      7  N   UNL     1      -4.176   4.302  -3.296  0.00  0.00    -0.203 NA
ATOM      8  S   UNL     1      -2.821   3.876  -2.611  0.00  0.00    +0.019 S 
BRANCH   6   9
ATOM      9  C   UNL     1      -6.466   3.527  -3.420  0.00  0.00    +0.262 C 
ATOM     10  O   UNL     1      -7.293   2.699  -3.091  0.00  0.00    -0.269 OA
ATOM     11  N   UNL     1      -6.821   4.553  -4.219  0.00  0.00    -0.324 N 
ATOM     12  H   UNL     1      -6.161   5.214  -4.481  0.00  0.00    +0.145 HD
ATOM     13  H   UNL     1      -7.735   4.630  -4.532  0.00  0.00    +0.145 HD
ENDBRANCH   6   9
BRANCH   5  14
ATOM     14  N   UNL     1      -5.573   1.360  -1.689  0.00  0.00    -0.355 N 
ATOM     15  H   UNL     1      -5.253   0.648  -1.113  0.00  0.00    +0.142 HD
ATOM     16  H   UNL     1      -6.502   1.379  -1.966  0.00  0.00    +0.142 HD
ENDBRANCH   5  14
ENDBRANCH   2   4
BRANCH   1  17
ATOM     17  C   UNL     1      -0.548   2.648  -1.609  0.00  0.00    +0.151 C 
BRANCH  17  20
ATOM     18  C   UNL     1      -0.773   1.491  -5.231  0.00  0.00    +0.008 A 
ATOM     19  C   UNL     1      -1.192   2.056  -4.041  0.00  0.00    +0.013 A 
ATOM     20  C   UNL     1      -0.333   2.093  -2.993  0.00  0.00    +0.007 A 
ATOM     21  S   UNL     1       1.122   1.320  -3.681  0.00  0.00    -0.100 S 
ATOM     22  C   UNL     1       0.484   0.992  -5.316  0.00  0.00    +0.045 A 
ENDBRANCH  17  20
ENDBRANCH   1  17
BRANCH   1  23
ATOM     23  C   UNL     1      -0.499   0.849   0.179  0.00  0.00    +0.193 C 
BRANCH  23  24
ATOM     24  C   UNL     1      -0.859   1.279   1.578  0.00  0.00    -0.018 A 
ATOM     25  C   UNL     1      -0.972   2.623   1.880  0.00  0.00    +0.009 A 
ATOM     26  C   UNL     1      -1.308   3.018   3.161  0.00  0.00    +0.038 A 
ATOM     27  C   UNL     1      -1.520   2.068   4.145  0.00  0.00    +0.123 A 
ATOM     28  C   UNL     1      -1.402   0.722   3.843  0.00  0.00    +0.038 A 
ATOM     29  C   UNL     1      -1.071   0.329   2.559  0.00  0.00    +0.009 A 
ATOM     30  F   UNL     1      -1.843   2.453   5.399  0.00  0.00    -0.205 F 
ENDBRANCH  23  24
BRANCH  23  31
ATOM     31  C   UNL     1       0.980   1.043  -0.040  0.00  0.00    +0.238 C 
ATOM     32  O   UNL     1       1.394   1.355  -1.137  0.00  0.00    -0.273 OA
ATOM     33  N   UNL     1       1.841   0.870   0.982  0.00  0.00    -0.311 N 
ATOM     34  H   UNL     1       1.510   0.621   1.859  0.00  0.00    +0.149 HD
BRANCH  33  35
ATOM     35  C   UNL     1       3.278   1.059   0.768  0.00  0.00    +0.073 C 
ATOM     36  C   UNL     1       3.919  -0.261   0.290  0.00  0.00    +0.022 C 
ATOM     37  C   UNL     1       5.305  -0.282   0.983  0.00  0.00    +0.002 C 
ATOM     38  C   UNL     1       4.999   0.317   2.378  0.00  0.00    +0.002 C 
ATOM     39  C   UNL     1       3.965   1.426   2.095  0.00  0.00    +0.022 C 
ENDBRANCH  33  35
ENDBRANCH  23  31
ENDBRANCH   1  23
TORSDOF 9
