REMARK  Name = ZINC52855666
REMARK  3 active torsions:
REMARK  status: ('A' for Active; 'I' for Inactive)
REMARK    1  A    between atoms: N_3  and  C_9
REMARK    2  A    between atoms: C_5  and  C_6
REMARK    3  A    between atoms: C_14  and  N_15
REMARK                            x       y       z     vdW  Elec       q    Type
REMARK                         _______ _______ _______ _____ _____    ______ ____
ROOT
ATOM      1  C   UNL     1       3.471   0.753   0.002  0.00  0.00    +0.088 A 
ATOM      2  C   UNL     1       4.153   1.954  -0.098  0.00  0.00    +0.053 A 
ATOM      3  C   UNL     1       5.545   1.967  -0.141  0.00  0.00    +0.039 A 
ATOM      4  C   UNL     1       6.235   0.762  -0.083  0.00  0.00    -0.016 A 
ATOM      5  C   UNL     1       5.563  -0.436   0.017  0.00  0.00    +0.030 A 
ATOM      6  C   UNL     1       4.175  -0.449   0.065  0.00  0.00    +0.051 A 
ATOM      7  C   UNL     1       7.705   1.110  -0.150  0.00  0.00    +0.133 C 
ATOM      8  C   UNL     1       7.722   2.620  -0.250  0.00  0.00    +0.222 C 
ATOM      9  O   UNL     1       8.706   3.326  -0.326  0.00  0.00    -0.275 OA
ATOM     10  N   UNL     1       6.444   3.033  -0.238  0.00  0.00    -0.285 N 
ATOM     11  H   UNL     1       6.175   3.964  -0.291  0.00  0.00    +0.155 HD
ENDROOT
BRANCH   1  14
ATOM     12  C   UNL     1      -0.029   1.151  -0.412  0.00  0.00    +0.045 A 
ATOM     13  C   UNL     1       1.244   1.423  -0.784  0.00  0.00    +0.115 A 
ATOM     14  N   UNL     1       2.069   0.746   0.045  0.00  0.00    -0.238 N 
ATOM     15  N   UNL     1       1.276   0.035   0.955  0.00  0.00    -0.171 NA
ATOM     16  C   UNL     1       0.019   0.279   0.680  0.00  0.00    +0.066 A 
BRANCH  16  17
ATOM     17  C   UNL     1      -1.171  -0.284   1.415  0.00  0.00    +0.040 C 
ATOM     18  C   UNL     1      -2.533  -0.196   0.724  0.00  0.00    +0.010 C 
ATOM     19  C   UNL     1      -1.822  -1.545   0.844  0.00  0.00    +0.010 C 
ENDBRANCH  16  17
ENDBRANCH   1  14
BRANCH   6  20
ATOM     20  N   UNL     1       3.486  -1.664   0.171  0.00  0.00    -0.356 N 
ATOM     21  H   UNL     1       2.518  -1.679   0.107  0.00  0.00    +0.142 HD
ATOM     22  H   UNL     1       3.977  -2.489   0.307  0.00  0.00    +0.142 HD
ENDBRANCH   6  20
TORSDOF 3
