REMARK  Name = ZINC55393819
REMARK  3 active torsions:
REMARK  status: ('A' for Active; 'I' for Inactive)
REMARK    1  A    between atoms: C_1  and  C_2
REMARK    2  A    between atoms: C_5  and  C_8
REMARK    3  A    between atoms: C_8  and  N_9
REMARK                            x       y       z     vdW  Elec       q    Type
REMARK                         _______ _______ _______ _____ _____    ______ ____
ROOT
ATOM      1  N   UNL     1       1.451  -4.747  -0.032  0.00  0.00    -0.262 NA
ATOM      2  C   UNL     1       1.515  -6.201   0.172  0.00  0.00    +0.130 C 
ATOM      3  C   UNL     1       2.932  -6.677  -0.026  0.00  0.00    +0.051 A 
ATOM      4  C   UNL     1       3.861  -5.889  -0.683  0.00  0.00    +0.130 A 
ATOM      5  C   UNL     1       5.169  -6.342  -0.862  0.00  0.00    +0.047 A 
ATOM      6  C   UNL     1       5.552  -7.564  -0.392  0.00  0.00    +0.015 A 
ATOM      7  C   UNL     1       4.624  -8.372   0.275  0.00  0.00    +0.022 A 
ATOM      8  C   UNL     1       3.305  -7.923   0.458  0.00  0.00    +0.147 A 
ATOM      9  O   UNL     1       2.416  -8.709   1.100  0.00  0.00    -0.422 OA
ATOM     10  C   UNL     1       2.767  -9.910   1.580  0.00  0.00    +0.341 A 
ATOM     11  O   UNL     1       1.931 -10.579   2.161  0.00  0.00    -0.245 OA
ATOM     12  C   UNL     1       4.078 -10.426   1.433  0.00  0.00    +0.041 A 
ATOM     13  C   UNL     1       5.011  -9.692   0.790  0.00  0.00    -0.027 A 
ATOM     14  C   UNL     1       6.422 -10.164   0.569  0.00  0.00    +0.036 C 
ATOM     15  C   UNL     1       6.758 -11.316   1.514  0.00  0.00    +0.005 C 
ATOM     16  C   UNL     1       5.646 -12.367   1.408  0.00  0.00    +0.005 C 
ATOM     17  C   UNL     1       4.373 -11.783   2.017  0.00  0.00    +0.042 C 
ATOM     18  O   UNL     1       3.518  -4.663  -1.160  0.00  0.00    -0.476 OA
ATOM     19  C   UNL     1       2.123  -4.381  -1.290  0.00  0.00    +0.319 C 
ENDROOT
BRANCH   1  20
ATOM     20  C   UNL     1       0.059  -4.275  -0.021  0.00  0.00    +0.123 C 
BRANCH  20  25
ATOM     21  C   UNL     1      -0.018   1.503   0.010  0.00  0.00    +0.044 C 
ATOM     22  C   UNL     1       0.002  -0.004   0.002  0.00  0.00    -0.050 A 
ATOM     23  C   UNL     1       0.006  -0.689  -1.199  0.00  0.00    +0.003 A 
ATOM     24  C   UNL     1       0.025  -2.071  -1.206  0.00  0.00    +0.005 A 
ATOM     25  C   UNL     1       0.040  -2.768  -0.013  0.00  0.00    -0.033 A 
ATOM     26  C   UNL     1       0.037  -2.084   1.188  0.00  0.00    +0.005 A 
ATOM     27  C   UNL     1       0.023  -0.702   1.195  0.00  0.00    +0.003 A 
ENDBRANCH  20  25
ENDBRANCH   1  20
TORSDOF 2
