REMARK  Name = ZINC58794402
REMARK  14 active torsions:
REMARK  status: ('A' for Active; 'I' for Inactive)
REMARK    1  A    between atoms: C_1  and  C_2
REMARK    2  A    between atoms: C_2  and  N_3
REMARK    3  A    between atoms: N_3  and  C_4
REMARK    4  A    between atoms: N_3  and  C_6
REMARK    5  A    between atoms: C_4  and  C_5
REMARK    6  A    between atoms: C_6  and  C_8
REMARK    7  A    between atoms: C_6  and  C_29
REMARK    8  A    between atoms: C_8  and  N_9
REMARK    9  A    between atoms: N_15  and  C_18
REMARK   10  A    between atoms: C_18  and  C_19
REMARK   11  A    between atoms: C_22  and  O_27
REMARK   12  A    between atoms: C_23  and  O_25
REMARK   13  A    between atoms: O_25  and  C_26
REMARK   14  A    between atoms: O_27  and  C_28
REMARK                            x       y       z     vdW  Elec       q    Type
REMARK                         _______ _______ _______ _____ _____    ______ ____
ROOT
ATOM      1  N   UNL     1       2.554  -1.996  -2.283  0.00  0.00    -0.300 N 
ATOM      2  C   UNL     1       3.150  -2.123  -3.486  0.00  0.00    +0.302 C 
ATOM      3  O   UNL     1       2.501  -2.474  -4.452  0.00  0.00    -0.253 OA
ATOM      4  N   UNL     1       4.466  -1.862  -3.617  0.00  0.00    -0.283 N 
ATOM      5  C   UNL     1       5.295  -1.555  -2.442  0.00  0.00    +0.124 C 
ATOM      6  C   UNL     1       6.529  -2.462  -2.466  0.00  0.00    +0.104 C 
ATOM      7  N   UNL     1       7.210  -2.323  -3.761  0.00  0.00    -0.295 NA
ATOM      8  C   UNL     1       6.352  -2.772  -4.865  0.00  0.00    +0.104 C 
ATOM      9  C   UNL     1       5.111  -1.883  -4.938  0.00  0.00    +0.124 C 
ATOM     10  H   UNL     1       3.054  -1.645  -1.530  0.00  0.00    +0.150 HD
ENDROOT
BRANCH   1  11
ATOM     11  C   UNL     1       1.152  -2.387  -2.115  0.00  0.00    +0.095 C 
BRANCH  11  12
ATOM     12  C   UNL     1       0.688  -2.024  -0.703  0.00  0.00    -0.020 C 
BRANCH  12  13
ATOM     13  C   UNL     1      -0.775  -2.356  -0.555  0.00  0.00    -0.052 A 
ATOM     14  C   UNL     1      -1.218  -3.109   0.516  0.00  0.00    +0.009 A 
ATOM     15  C   UNL     1      -2.540  -3.390   0.620  0.00  0.00    +0.045 A 
ATOM     16  S   UNL     1      -3.204  -2.580  -0.826  0.00  0.00    -0.105 S 
ATOM     17  C   UNL     1      -1.676  -1.917  -1.468  0.00  0.00    +0.047 A 
ENDBRANCH  12  13
BRANCH  12  18
ATOM     18  N   UNL     1       0.889  -0.587  -0.476  0.00  0.00    +0.385 N 
ATOM     19  H   UNL     1       1.860  -0.356  -0.624  0.00  0.00    -0.081 HD
BRANCH  18  21
ATOM     20  C   UNL     1       0.402   1.665  -1.306  0.00  0.00    -0.017 C 
ATOM     21  C   UNL     1       0.054   0.179  -1.411  0.00  0.00    -0.081 C 
ENDBRANCH  18  21
BRANCH  18  22
ATOM     22  C   UNL     1       0.511  -0.252   0.904  0.00  0.00    -0.081 C 
ATOM     23  C   UNL     1       1.461  -0.953   1.877  0.00  0.00    -0.017 C 
ENDBRANCH  18  22
ENDBRANCH  12  18
ENDBRANCH  11  12
ENDBRANCH   1  11
BRANCH   7  24
ATOM     24  C   UNL     1       8.490  -3.043  -3.763  0.00  0.00    +0.119 C 
BRANCH  24  25
ATOM     25  C   UNL     1       9.268  -2.682  -5.002  0.00  0.00    -0.030 A 
ATOM     26  C   UNL     1       9.108  -3.422  -6.158  0.00  0.00    +0.009 A 
ATOM     27  C   UNL     1       9.819  -3.094  -7.297  0.00  0.00    +0.050 A 
ATOM     28  C   UNL     1      10.696  -2.021  -7.281  0.00  0.00    +0.162 A 
ATOM     29  C   UNL     1      10.857  -1.275  -6.117  0.00  0.00    +0.162 A 
ATOM     30  C   UNL     1      10.137  -1.606  -4.981  0.00  0.00    +0.054 A 
BRANCH  29  31
ATOM     31  O   UNL     1      11.716  -0.221  -6.097  0.00  0.00    -0.491 OA
ATOM     32  C   UNL     1      11.831   0.498  -4.867  0.00  0.00    +0.277 C 
ENDBRANCH  29  31
BRANCH  28  33
ATOM     33  O   UNL     1      11.397  -1.697  -8.400  0.00  0.00    -0.491 OA
ATOM     34  C   UNL     1      11.181  -2.506  -9.558  0.00  0.00    +0.277 C 
ENDBRANCH  28  33
ENDBRANCH  24  25
ENDBRANCH   7  24
TORSDOF 10
