REMARK  Name = ZINC25228158
REMARK  7 active torsions:
REMARK  status: ('A' for Active; 'I' for Inactive)
REMARK    1  A    between atoms: C_1  and  C_2
REMARK    2  A    between atoms: C_2  and  C_3
REMARK    3  A    between atoms: C_2  and  C_4
REMARK    4  A    between atoms: C_7  and  N_10
REMARK    5  A    between atoms: C_14  and  C_29
REMARK    6  A    between atoms: C_15  and  N_23
REMARK    7  A    between atoms: C_19  and  N_21
REMARK                            x       y       z     vdW  Elec       q    Type
REMARK                         _______ _______ _______ _____ _____    ______ ____
ROOT
ATOM      1  N   UNL     1      -3.493   2.942   4.260  0.00  0.00    -0.224 N 
ATOM      2  C   UNL     1      -3.675   4.285   4.579  0.00  0.00    +0.138 A 
ATOM      3  C   UNL     1      -4.087   4.410   5.894  0.00  0.00    +0.011 A 
ATOM      4  C   UNL     1      -4.329   5.671   6.426  0.00  0.00    +0.016 A 
ATOM      5  C   UNL     1      -4.766   5.894   7.803  0.00  0.00    +0.100 A 
ATOM      6  C   UNL     1      -4.975   7.221   8.213  0.00  0.00    +0.142 A 
ATOM      7  N   UNL     1      -4.784   8.235   7.380  0.00  0.00    -0.216 NA
ATOM      8  C   UNL     1      -4.390   8.087   6.127  0.00  0.00    +0.129 A 
ATOM      9  C   UNL     1      -4.145   6.807   5.594  0.00  0.00    +0.063 A 
ATOM     10  C   UNL     1      -3.725   6.600   4.268  0.00  0.00    +0.129 A 
ATOM     11  N   UNL     1      -3.512   5.377   3.822  0.00  0.00    -0.216 NA
ATOM     12  N   UNL     1      -4.217   9.200   5.332  0.00  0.00    -0.343 N 
ATOM     13  C   UNL     1      -4.170   3.010   6.455  0.00  0.00    +0.136 C 
ATOM     14  C   UNL     1      -3.763   2.128   5.293  0.00  0.00    +0.230 C 
ATOM     15  O   UNL     1      -3.693   0.917   5.296  0.00  0.00    -0.275 OA
ATOM     16  H   UNL     1      -3.889   9.084   4.288  0.00  0.00    +0.144 HD
ATOM     17  H   UNL     1      -4.405  10.203   5.742  0.00  0.00    +0.144 HD
ENDROOT
BRANCH   1  21
ATOM     18  C   UNL     1      -2.262   1.598   0.512  0.00  0.00    -0.045 A 
ATOM     19  C   UNL     1      -2.413   2.953   0.744  0.00  0.00    +0.006 A 
ATOM     20  C   UNL     1      -2.825   3.401   1.983  0.00  0.00    +0.024 A 
ATOM     21  C   UNL     1      -3.079   2.490   3.001  0.00  0.00    +0.043 A 
ATOM     22  C   UNL     1      -2.921   1.131   2.766  0.00  0.00    +0.024 A 
ATOM     23  C   UNL     1      -2.513   0.688   1.523  0.00  0.00    +0.006 A 
BRANCH  18  25
ATOM     24  C   UNL     1      -0.445   1.704  -1.172  0.00  0.00    +0.012 C 
ATOM     25  C   UNL     1      -1.816   1.111  -0.843  0.00  0.00    +0.013 C 
ATOM     26  C   UNL     1      -2.829   1.552  -1.901  0.00  0.00    +0.012 C 
ENDBRANCH  18  25
ENDBRANCH   1  21
BRANCH   6  27
ATOM     27  N   UNL     1      -5.388   7.474   9.507  0.00  0.00    -0.314 N 
ATOM     28  C   UNL     1      -6.669   8.193   9.520  0.00  0.00    +0.106 C 
ATOM     29  C   UNL     1      -7.166   8.328  10.961  0.00  0.00    +0.019 C 
ATOM     30  C   UNL     1      -6.124   9.089  11.786  0.00  0.00    +0.003 C 
ATOM     31  C   UNL     1      -4.787   8.345  11.716  0.00  0.00    +0.019 C 
ATOM     32  C   UNL     1      -4.359   8.210  10.253  0.00  0.00    +0.106 C 
ENDBRANCH   6  27
BRANCH  10  33
ATOM     33  N   UNL     1      -3.536   7.682   3.428  0.00  0.00    -0.343 N 
ATOM     34  H   UNL     1      -3.208   7.522   2.390  0.00  0.00    +0.144 HD
ATOM     35  H   UNL     1      -3.714   8.703   3.798  0.00  0.00    +0.144 HD
ENDBRANCH  10  33
BRANCH   5  36
ATOM     36  C   UNL     1      -4.973   4.799   8.703  0.00  0.00    +0.103 C 
ATOM     37  N   UNL     1      -5.138   3.930   9.416  0.00  0.00    -0.191 NA
ENDBRANCH   5  36
TORSDOF 5
