REMARK  Name = ZINC05343230
REMARK  7 active torsions:
REMARK  status: ('A' for Active; 'I' for Inactive)
REMARK    1  A    between atoms: C_1  and  C_2
REMARK    2  A    between atoms: C_5  and  C_10
REMARK    3  A    between atoms: C_6  and  O_9
REMARK    4  A    between atoms: C_7  and  C_8
REMARK    5  A    between atoms: C_12  and  C_16
REMARK    6  A    between atoms: N_18  and  C_19
REMARK    7  A    between atoms: C_24  and  C_25
REMARK                            x       y       z     vdW  Elec       q    Type
REMARK                         _______ _______ _______ _____ _____    ______ ____
ROOT
ATOM      1  C   UNL     1       0.029  -4.260  -0.032  0.00  0.00    +0.097 A 
ATOM      2  C   UNL     1       0.051  -5.081  -1.174  0.00  0.00    +0.062 A 
ATOM      3  C   UNL     1       0.072  -6.376  -0.692  0.00  0.00    +0.121 A 
ATOM      4  N   UNL     1       0.063  -6.282   0.671  0.00  0.00    -0.272 N 
ATOM      5  H   UNL     1       0.073  -7.035   1.282  0.00  0.00    +0.189 HD
ATOM      6  N   UNL     1       0.043  -5.047   1.023  0.00  0.00    -0.173 NA
ENDROOT
BRANCH   1  11
ATOM      7  C   UNL     1      -0.082   1.502   0.012  0.00  0.00    +0.044 C 
ATOM      8  C   UNL     1      -0.053  -0.005   0.004  0.00  0.00    -0.044 A 
ATOM      9  C   UNL     1      -0.038  -0.687  -1.200  0.00  0.00    +0.004 A 
ATOM     10  C   UNL     1      -0.012  -2.067  -1.217  0.00  0.00    +0.014 A 
ATOM     11  C   UNL     1       0.001  -2.776  -0.019  0.00  0.00    +0.044 A 
ATOM     12  C   UNL     1      -0.014  -2.085   1.196  0.00  0.00    +0.129 A 
ATOM     13  C   UNL     1      -0.035  -0.700   1.198  0.00  0.00    -0.005 A 
ATOM     14  C   UNL     1      -0.044   0.050   2.505  0.00  0.00    +0.048 C 
BRANCH  12  15
ATOM     15  O   UNL     1      -0.002  -2.769   2.369  0.00  0.00    -0.506 OA
ATOM     16  H   UNL     1       0.884  -2.950   2.710  0.00  0.00    +0.292 HD
ENDBRANCH  12  15
ENDBRANCH   1  11
BRANCH   3  17
ATOM     17  C   UNL     1       0.101  -7.613  -1.489  0.00  0.00    +0.266 C 
ATOM     18  O   UNL     1       0.107  -7.553  -2.704  0.00  0.00    -0.268 OA
ATOM     19  N   UNL     1       0.119  -8.812  -0.873  0.00  0.00    -0.280 N 
ATOM     20  H   UNL     1       0.196  -8.859   0.093  0.00  0.00    +0.155 HD
BRANCH  19  21
ATOM     21  C   UNL     1       0.029  -9.986  -1.627  0.00  0.00    +0.045 A 
ATOM     22  C   UNL     1      -0.577  -9.967  -2.876  0.00  0.00    +0.024 A 
ATOM     23  C   UNL     1      -0.664 -11.129  -3.617  0.00  0.00    +0.002 A 
ATOM     24  C   UNL     1      -0.149 -12.311  -3.117  0.00  0.00    +0.001 A 
ATOM     25  C   UNL     1       0.455 -12.333  -1.873  0.00  0.00    +0.014 A 
ATOM     26  C   UNL     1       0.551 -11.173  -1.129  0.00  0.00    +0.076 A 
BRANCH  26  27
ATOM     27  C   UNL     1       1.216 -11.197   0.223  0.00  0.00    +0.419 C 
ATOM     28  F   UNL     1       1.657 -12.495   0.502  0.00  0.00    -0.166 F 
ATOM     29  F   UNL     1       2.308 -10.323   0.221  0.00  0.00    -0.166 F 
ATOM     30  F   UNL     1       0.299 -10.796   1.200  0.00  0.00    -0.166 F 
ENDBRANCH  26  27
ENDBRANCH  19  21
ENDBRANCH   3  17
TORSDOF 5
