REMARK  Name = ZINC58192817
REMARK  9 active torsions:
REMARK  status: ('A' for Active; 'I' for Inactive)
REMARK    1  A    between atoms: C_1  and  C_2
REMARK    2  A    between atoms: C_7  and  N_12
REMARK    3  A    between atoms: C_9  and  C_11
REMARK    4  A    between atoms: N_12  and  C_13
REMARK    5  A    between atoms: N_12  and  C_23
REMARK    6  A    between atoms: C_13  and  C_14
REMARK    7  A    between atoms: C_23  and  C_24
REMARK    8  A    between atoms: N_26  and  C_27
REMARK    9  A    between atoms: C_30  and  C_33
REMARK                            x       y       z     vdW  Elec       q    Type
REMARK                         _______ _______ _______ _____ _____    ______ ____
ROOT
ATOM      1  N   UNL     1       1.516  -1.934   3.729  0.00  0.00    +0.390 N 
ATOM      2  H   UNL     1       0.962  -1.547   4.479  0.00  0.00    -0.080 HD
ENDROOT
BRANCH   1   8
ATOM      3  C   UNL     1      -0.748   1.897   1.567  0.00  0.00    +0.008 C 
ATOM      4  C   UNL     1      -0.091   0.535   1.338  0.00  0.00    -0.013 C 
ATOM      5  C   UNL     1      -1.109  -0.424   0.719  0.00  0.00    +0.003 C 
ATOM      6  C   UNL     1      -0.452  -1.787   0.489  0.00  0.00    -0.001 C 
ATOM      7  C   UNL     1       0.032  -2.351   1.826  0.00  0.00    -0.015 C 
ATOM      8  C   UNL     1       1.050  -1.392   2.446  0.00  0.00    -0.064 C 
ATOM      9  C   UNL     1       0.394  -0.029   2.675  0.00  0.00    -0.025 C 
ATOM     10  C   UNL     1      -0.797  -0.190   3.622  0.00  0.00    +0.006 C 
ENDBRANCH   1   8
BRANCH   1  11
ATOM     11  C   UNL     1       1.377  -3.396   3.723  0.00  0.00    -0.042 C 
BRANCH  11  12
ATOM     12  C   UNL     1      -0.069  -3.764   3.937  0.00  0.00    -0.060 A 
ATOM     13  C   UNL     1      -0.780  -3.191   4.974  0.00  0.00    +0.005 A 
ATOM     14  C   UNL     1      -2.107  -3.525   5.174  0.00  0.00    +0.050 A 
ATOM     15  C   UNL     1      -2.726  -4.437   4.335  0.00  0.00    +0.166 A 
ATOM     16  C   UNL     1      -2.010  -5.015   3.291  0.00  0.00    +0.166 A 
ATOM     17  C   UNL     1      -0.682  -4.671   3.093  0.00  0.00    +0.051 A 
ATOM     18  O   UNL     1      -2.833  -5.870   2.617  0.00  0.00    -0.453 OA
ATOM     19  C   UNL     1      -3.939  -6.117   3.505  0.00  0.00    +0.466 C 
ATOM     20  O   UNL     1      -3.999  -4.929   4.316  0.00  0.00    -0.453 OA
ENDBRANCH  11  12
ENDBRANCH   1  11
BRANCH   1  21
ATOM     21  C   UNL     1       2.927  -1.577   3.929  0.00  0.00    +0.020 C 
BRANCH  21  22
ATOM     22  C   UNL     1       3.024  -0.136   4.359  0.00  0.00    +0.201 C 
ATOM     23  O   UNL     1       2.025   0.468   4.686  0.00  0.00    -0.278 OA
ATOM     24  N   UNL     1       4.222   0.482   4.380  0.00  0.00    -0.287 N 
ATOM     25  H   UNL     1       5.011   0.021   4.053  0.00  0.00    +0.155 HD
BRANCH  24  26
ATOM     26  C   UNL     1       4.327   1.783   4.870  0.00  0.00    +0.033 A 
ATOM     27  C   UNL     1       3.493   2.206   5.900  0.00  0.00    +0.024 A 
ATOM     28  C   UNL     1       3.595   3.490   6.387  0.00  0.00    +0.015 A 
ATOM     29  C   UNL     1       4.537   4.368   5.845  0.00  0.00    +0.037 A 
ATOM     30  C   UNL     1       5.374   3.940   4.811  0.00  0.00    +0.015 A 
ATOM     31  C   UNL     1       5.271   2.653   4.332  0.00  0.00    +0.024 A 
BRANCH  29  32
ATOM     32  C   UNL     1       4.649   5.745   6.364  0.00  0.00    +0.242 C 
ATOM     33  O   UNL     1       3.920   6.117   7.264  0.00  0.00    -0.270 OA
ATOM     34  N   UNL     1       5.558   6.591   5.841  0.00  0.00    -0.325 N 
ATOM     35  H   UNL     1       6.139   6.295   5.123  0.00  0.00    +0.145 HD
ATOM     36  H   UNL     1       5.631   7.496   6.182  0.00  0.00    +0.145 HD
ENDBRANCH  29  32
ENDBRANCH  24  26
ENDBRANCH  21  22
ENDBRANCH   1  21
TORSDOF 7
