REMARK  Name = ZINC63778270
REMARK  12 active torsions:
REMARK  status: ('A' for Active; 'I' for Inactive)
REMARK    1  A    between atoms: C_1  and  C_2
REMARK    2  A    between atoms: C_2  and  N_3
REMARK    3  A    between atoms: N_3  and  C_4
REMARK    4  A    between atoms: N_3  and  S_6
REMARK    5  A    between atoms: C_4  and  C_5
REMARK    6  A    between atoms: S_6  and  C_9
REMARK    7  A    between atoms: C_12  and  O_29
REMARK    8  A    between atoms: C_13  and  N_15
REMARK    9  A    between atoms: C_16  and  C_18
REMARK   10  A    between atoms: C_18  and  C_19
REMARK   11  A    between atoms: C_19  and  C_20
REMARK   12  A    between atoms: O_29  and  C_30
REMARK                            x       y       z     vdW  Elec       q    Type
REMARK                         _______ _______ _______ _____ _____    ______ ____
ROOT
ATOM      1  C   UNL     1      -2.893   0.525   2.029  0.00  0.00    +0.107 A 
ATOM      2  C   UNL     1      -2.204   1.399   2.849  0.00  0.00    +0.032 A 
ATOM      3  C   UNL     1      -2.829   2.530   3.340  0.00  0.00    +0.049 A 
ATOM      4  C   UNL     1      -4.149   2.791   3.010  0.00  0.00    +0.141 A 
ATOM      5  C   UNL     1      -4.844   1.911   2.183  0.00  0.00    +0.077 A 
ATOM      6  C   UNL     1      -4.208   0.781   1.690  0.00  0.00    +0.055 A 
ENDROOT
BRANCH   5   7
ATOM      7  N   UNL     1      -6.179   2.170   1.846  0.00  0.00    -0.283 N 
ATOM      8  C   UNL     1      -6.993   1.156   1.492  0.00  0.00    +0.218 C 
ATOM      9  O   UNL     1      -6.601   0.011   1.562  0.00  0.00    -0.275 OA
ATOM     10  H   UNL     1      -6.517   3.079   1.867  0.00  0.00    +0.155 HD
BRANCH   8  11
ATOM     11  C   UNL     1      -8.392   1.446   1.009  0.00  0.00    +0.100 C 
BRANCH  11  12
ATOM     12  C   UNL     1      -9.098   0.131   0.675  0.00  0.00    +0.042 C 
BRANCH  12  13
ATOM     13  C   UNL     1     -10.496   0.420   0.193  0.00  0.00    -0.041 C 
ATOM     14  C   UNL     1     -10.905   0.541  -1.091  0.00  0.00    -0.001 A 
ATOM     15  C   UNL     1     -10.197   0.445  -2.373  0.00  0.00    +0.010 A 
ATOM     16  C   UNL     1     -10.892   0.618  -3.520  0.00  0.00    +0.001 A 
ATOM     17  C   UNL     1     -12.267   0.887  -3.516  0.00  0.00    +0.002 A 
ATOM     18  C   UNL     1     -12.986   0.991  -2.378  0.00  0.00    +0.026 A 
ATOM     19  C   UNL     1     -12.358   0.827  -1.113  0.00  0.00    +0.043 A 
ATOM     20  N   UNL     1     -12.829   0.880   0.109  0.00  0.00    -0.380 N 
ATOM     21  C   UNL     1     -11.728   0.628   1.046  0.00  0.00    +0.144 C 
ATOM     22  H   UNL     1     -13.751   1.053   0.353  0.00  0.00    +0.160 HD
ENDBRANCH  12  13
ENDBRANCH  11  12
ENDBRANCH   8  11
ENDBRANCH   5   7
BRANCH   1  23
ATOM     23  S   UNL     1      -2.091  -0.915   1.407  0.00  0.00    +0.061 S 
ATOM     24  O   UNL     1      -3.115  -1.851   1.100  0.00  0.00    -0.153 OA
ATOM     25  O   UNL     1      -1.034  -1.212   2.310  0.00  0.00    -0.153 OA
BRANCH  23  26
ATOM     26  N   UNL     1      -1.382  -0.499  -0.030  0.00  0.00    -0.177 NA
BRANCH  26  28
ATOM     27  C   UNL     1      -0.032   1.540  -0.038  0.00  0.00    +0.022 C 
ATOM     28  C   UNL     1      -0.009   0.010  -0.050  0.00  0.00    +0.106 C 
ENDBRANCH  26  28
BRANCH  26  29
ATOM     29  C   UNL     1      -2.129  -0.640  -1.283  0.00  0.00    +0.106 C 
ATOM     30  C   UNL     1      -1.795  -1.987  -1.927  0.00  0.00    +0.022 C 
ENDBRANCH  26  29
ENDBRANCH  23  26
ENDBRANCH   1  23
BRANCH   4  31
ATOM     31  O   UNL     1      -4.766   3.903   3.493  0.00  0.00    -0.493 OA
ATOM     32  C   UNL     1      -3.992   4.759   4.335  0.00  0.00    +0.277 C 
ENDBRANCH   4  31
TORSDOF 9
