REMARK  Name = ZINC39673237
REMARK  6 active torsions:
REMARK  status: ('A' for Active; 'I' for Inactive)
REMARK    1  A    between atoms: C_3  and  O_32
REMARK    2  A    between atoms: C_6  and  C_7
REMARK    3  A    between atoms: C_7  and  N_8
REMARK    4  A    between atoms: C_9  and  C_11
REMARK    5  A    between atoms: C_22  and  C_24
REMARK    6  A    between atoms: O_32  and  C_33
REMARK                            x       y       z     vdW  Elec       q    Type
REMARK                         _______ _______ _______ _____ _____    ______ ____
ROOT
ATOM      1  C   UNL     1      -3.303  -1.906  -3.714  0.00  0.00    +0.100 C 
ATOM      2  C   UNL     1      -2.099  -2.765  -4.162  0.00  0.00    +0.121 C 
ATOM      3  N   UNL     1      -2.546  -4.165  -3.971  0.00  0.00    -0.296 N 
ATOM      4  C   UNL     1      -3.964  -4.161  -4.403  0.00  0.00    +0.115 C 
ATOM      5  C   UNL     1      -4.525  -2.824  -3.878  0.00  0.00    -0.004 C 
ATOM      6  C   UNL     1      -5.502  -2.229  -4.887  0.00  0.00    -0.010 C 
ATOM      7  C   UNL     1      -6.737  -3.129  -4.989  0.00  0.00    -0.082 C 
ATOM      8  N   UNL     1      -7.372  -3.243  -3.671  0.00  0.00    +0.379 N 
ATOM      9  C   UNL     1      -6.458  -3.902  -2.729  0.00  0.00    -0.082 C 
ATOM     10  C   UNL     1      -5.212  -3.034  -2.532  0.00  0.00    -0.010 C 
ATOM     11  C   UNL     1      -1.826  -5.207  -3.509  0.00  0.00    +0.247 C 
ATOM     12  O   UNL     1      -0.706  -5.026  -3.074  0.00  0.00    -0.270 OA
ATOM     13  H   UNL     1      -7.599  -2.322  -3.328  0.00  0.00    -0.086 HD
ATOM     14  H   UNL     1      -8.218  -3.787  -3.752  0.00  0.00    -0.086 HD
ENDROOT
BRANCH  11  15
ATOM     15  C   UNL     1      -2.399  -6.569  -3.532  0.00  0.00    +0.038 A 
ATOM     16  C   UNL     1      -3.457  -6.870  -4.393  0.00  0.00    +0.014 A 
ATOM     17  C   UNL     1      -3.988  -8.142  -4.410  0.00  0.00    +0.022 A 
ATOM     18  C   UNL     1      -3.475  -9.121  -3.576  0.00  0.00    +0.059 A 
ATOM     19  C   UNL     1      -2.425  -8.829  -2.719  0.00  0.00    +0.060 A 
ATOM     20  C   UNL     1      -1.882  -7.561  -2.697  0.00  0.00    +0.034 A 
ATOM     21 CL   UNL     1      -1.789 -10.062  -1.676  0.00  0.00    -0.082 Cl
ATOM     22 CL   UNL     1      -4.150 -10.721  -3.603  0.00  0.00    -0.082 Cl
ENDBRANCH  11  15
BRANCH   1  24
ATOM     23  N   UNL     1      -3.780  -0.395  -1.815  0.00  0.00    -0.311 N 
ATOM     24  C   UNL     1      -3.146  -1.492  -2.274  0.00  0.00    +0.218 C 
ATOM     25  O   UNL     1      -2.449  -2.147  -1.527  0.00  0.00    -0.275 OA
ATOM     26  H   UNL     1      -4.337   0.128  -2.412  0.00  0.00    +0.149 HD
BRANCH  23  27
ATOM     27  C   UNL     1      -3.627   0.007  -0.414  0.00  0.00    +0.139 C 
BRANCH  27  33
ATOM     28  C   UNL     1      -5.748   1.155   0.253  0.00  0.00    +0.009 A 
ATOM     29  C   UNL     1      -6.488   2.298   0.487  0.00  0.00    +0.046 A 
ATOM     30  C   UNL     1      -5.909   3.547   0.309  0.00  0.00    +0.127 A 
ATOM     31  C   UNL     1      -4.589   3.644  -0.105  0.00  0.00    +0.046 A 
ATOM     32  C   UNL     1      -3.853   2.498  -0.338  0.00  0.00    +0.009 A 
ATOM     33  C   UNL     1      -4.432   1.255  -0.160  0.00  0.00    -0.030 A 
BRANCH  30  34
ATOM     34  O   UNL     1      -6.635   4.672   0.539  0.00  0.00    -0.434 OA
BRANCH  34  35
ATOM     35  C   UNL     1      -5.975   5.923   0.335  0.00  0.00    +0.541 C 
ATOM     36  F   UNL     1      -4.867   6.010   1.185  0.00  0.00    -0.166 F 
ATOM     37  F   UNL     1      -5.550   6.014  -0.995  0.00  0.00    -0.166 F 
ENDBRANCH  34  35
ENDBRANCH  30  34
ENDBRANCH  27  33
ENDBRANCH  23  27
ENDBRANCH   1  24
TORSDOF 6
