REMARK  Name = ZINC07511666
REMARK  7 active torsions:
REMARK  status: ('A' for Active; 'I' for Inactive)
REMARK    1  A    between atoms: C_1  and  C_2
REMARK    2  A    between atoms: C_5  and  N_16
REMARK    3  A    between atoms: C_6  and  C_8
REMARK    4  A    between atoms: C_8  and  C_10
REMARK    5  A    between atoms: C_17  and  C_19
REMARK    6  A    between atoms: C_19  and  S_20
REMARK    7  A    between atoms: S_20  and  C_21
REMARK                            x       y       z     vdW  Elec       q    Type
REMARK                         _______ _______ _______ _____ _____    ______ ____
ROOT
ATOM      1  C   UNL     1       3.740   9.927  -0.162  0.00  0.00    +0.044 C 
ATOM      2  C   UNL     1       3.572   8.430  -0.167  0.00  0.00    -0.050 A 
ATOM      3  C   UNL     1       2.300   7.879  -0.149  0.00  0.00    +0.005 A 
ATOM      4  C   UNL     1       2.130   6.509  -0.159  0.00  0.00    +0.024 A 
ATOM      5  C   UNL     1       3.237   5.672  -0.176  0.00  0.00    +0.044 A 
ATOM      6  C   UNL     1       4.527   6.225  -0.193  0.00  0.00    +0.044 A 
ATOM      7  C   UNL     1       4.682   7.615  -0.189  0.00  0.00    +0.017 A 
ENDROOT
BRANCH   5   8
ATOM      8  N   UNL     1       3.069   4.289  -0.181  0.00  0.00    -0.284 N 
ATOM      9  C   UNL     1       2.023   3.740  -0.829  0.00  0.00    +0.227 C 
ATOM     10  O   UNL     1       1.180   4.452  -1.333  0.00  0.00    -0.275 OA
ATOM     11  H   UNL     1       3.705   3.722   0.282  0.00  0.00    +0.155 HD
BRANCH   9  12
ATOM     12  C   UNL     1       1.899   2.242  -0.927  0.00  0.00    +0.170 C 
BRANCH  12  13
ATOM     13  S   UNL     1       0.397   1.818  -1.851  0.00  0.00    -0.116 S 
BRANCH  13  14
ATOM     14  C   UNL     1       0.396   0.056  -1.878  0.00  0.00    +0.009 A 
ATOM     15  C   UNL     1       1.425  -0.650  -1.267  0.00  0.00    +0.017 A 
ATOM     16  C   UNL     1       1.419  -2.031  -1.285  0.00  0.00    +0.039 A 
ATOM     17  C   UNL     1       0.395  -2.712  -1.921  0.00  0.00    +0.123 A 
ATOM     18  C   UNL     1      -0.629  -2.010  -2.536  0.00  0.00    +0.039 A 
ATOM     19  C   UNL     1      -0.630  -0.629  -2.516  0.00  0.00    +0.017 A 
ATOM     20  F   UNL     1       0.394  -4.063  -1.941  0.00  0.00    -0.205 F 
ENDBRANCH  13  14
ENDBRANCH  12  13
ENDBRANCH   9  12
ENDBRANCH   5   8
BRANCH   6  21
ATOM     21  C   UNL     1       5.711   5.348  -0.216  0.00  0.00    +0.195 C 
ATOM     22  O   UNL     1       6.370   5.188   0.793  0.00  0.00    -0.287 OA
BRANCH  21  23
ATOM     23  C   UNL     1       6.098   4.661  -1.467  0.00  0.00    +0.022 A 
ATOM     24  C   UNL     1       5.285   4.755  -2.599  0.00  0.00    +0.012 A 
ATOM     25  C   UNL     1       5.655   4.116  -3.764  0.00  0.00    +0.001 A 
ATOM     26  C   UNL     1       6.822   3.374  -3.809  0.00  0.00    +0.000 A 
ATOM     27  C   UNL     1       7.629   3.272  -2.690  0.00  0.00    +0.001 A 
ATOM     28  C   UNL     1       7.274   3.910  -1.520  0.00  0.00    +0.012 A 
ENDBRANCH  21  23
ENDBRANCH   6  21
TORSDOF 6
