REMARK  Name = ZINC06177895
REMARK  11 active torsions:
REMARK  status: ('A' for Active; 'I' for Inactive)
REMARK    1  A    between atoms: C_1  and  C_2
REMARK    2  A    between atoms: C_4  and  C_39
REMARK    3  A    between atoms: C_9  and  C_14
REMARK    4  A    between atoms: C_14  and  C_16
REMARK    5  A    between atoms: C_14  and  N_70
REMARK    6  A    between atoms: N_20  and  C_21
REMARK    7  A    between atoms: C_21  and  C_22
REMARK    8  A    between atoms: C_21  and  C_23
REMARK    9  A    between atoms: C_21  and  C_24
REMARK   10  A    between atoms: N_27  and  C_30
REMARK   11  A    between atoms: C_33  and  N_36
REMARK                            x       y       z     vdW  Elec       q    Type
REMARK                         _______ _______ _______ _____ _____    ______ ____
ROOT
ATOM      1  C   UNL     1       1.472   3.727   0.123  0.00  0.00    +0.039 C 
ENDROOT
BRANCH   1  10
ATOM      2  C   UNL     1      -1.648  -2.981  -0.820  0.00  0.00    +0.044 C 
ATOM      3  C   UNL     1      -0.430  -2.111  -0.638  0.00  0.00    -0.050 A 
ATOM      4  C   UNL     1       0.831  -2.691  -0.608  0.00  0.00    +0.008 A 
ATOM      5  C   UNL     1       1.958  -1.916  -0.443  0.00  0.00    -0.026 A 
ATOM      6  C   UNL     1       1.833  -0.537  -0.304  0.00  0.00    +0.052 A 
ATOM      7  C   UNL     1       0.552   0.047  -0.336  0.00  0.00    -0.001 A 
ATOM      8  C   UNL     1      -0.578  -0.760  -0.505  0.00  0.00    +0.013 A 
ATOM      9  C   UNL     1       0.431   1.499  -0.190  0.00  0.00    +0.017 A 
ATOM     10  C   UNL     1       1.561   2.230  -0.029  0.00  0.00    +0.011 A 
ATOM     11  C   UNL     1       2.821   1.595  -0.006  0.00  0.00    +0.251 A 
ATOM     12  O   UNL     1       3.825   2.272   0.140  0.00  0.00    -0.268 OA
ATOM     13  N   UNL     1       2.943   0.263  -0.139  0.00  0.00    -0.322 N 
ATOM     14  H   UNL     1       3.824  -0.141  -0.117  0.00  0.00    +0.169 HD
ATOM     15  C   UNL     1       3.320  -2.558  -0.412  0.00  0.00    +0.046 C 
ENDBRANCH   1  10
BRANCH   1  21
ATOM     16  C   UNL     1       2.389   5.826  -0.662  0.00  0.00    -0.058 C 
ATOM     17  C   UNL     1       3.357   6.451  -1.669  0.00  0.00    +0.086 C 
ATOM     18  N   UNL     1       2.910   6.138  -3.033  0.00  0.00    -0.333 N 
ATOM     19  C   UNL     1       2.856   4.685  -3.246  0.00  0.00    +0.086 C 
ATOM     20  C   UNL     1       1.887   4.060  -2.239  0.00  0.00    -0.058 C 
ATOM     21  N   UNL     1       2.360   4.364  -0.872  0.00  0.00    +0.391 N 
ATOM     22  H   UNL     1       3.310   3.991  -0.758  0.00  0.00    -0.080 HD
BRANCH  18  23
ATOM     23  C   UNL     1       3.730   6.753  -3.982  0.00  0.00    +0.030 A 
ATOM     24  C   UNL     1       4.367   5.988  -4.952  0.00  0.00    +0.025 A 
ATOM     25  C   UNL     1       5.172   6.600  -5.892  0.00  0.00    +0.034 A 
ATOM     26  C   UNL     1       5.355   7.970  -5.862  0.00  0.00    +0.126 A 
ATOM     27  C   UNL     1       4.727   8.734  -4.895  0.00  0.00    +0.034 A 
ATOM     28  C   UNL     1       3.915   8.129  -3.955  0.00  0.00    +0.025 A 
BRANCH  26  29
ATOM     29  N   UNL     1       6.223   8.622  -6.868  0.00  0.00    +0.056 N 
ATOM     30  O   UNL     1       6.385   9.829  -6.843  0.00  0.00    -0.126 OA
ATOM     31  O   UNL     1       6.777   7.951  -7.721  0.00  0.00    -0.126 OA
ENDBRANCH  26  29
ENDBRANCH  18  23
ENDBRANCH   1  21
BRANCH   1  32
ATOM     32  C   UNL     1       1.923   4.119   1.507  0.00  0.00    +0.143 A 
ATOM     33  N   UNL     1       3.140   4.036   1.986  0.00  0.00    -0.115 NA
ATOM     34  N   UNL     1       3.121   4.468   3.199  0.00  0.00    -0.023 NA
ATOM     35  N   UNL     1       1.921   4.817   3.510  0.00  0.00    -0.043 NA
ATOM     36  N   UNL     1       1.153   4.617   2.492  0.00  0.00    -0.225 N 
BRANCH  36  37
ATOM     37  C   UNL     1      -0.286   4.882   2.422  0.00  0.00    +0.059 C 
ATOM     38  C   UNL     1      -1.026   3.591   2.070  0.00  0.00    +0.036 C 
ATOM     39  C   UNL     1      -0.776   5.397   3.777  0.00  0.00    +0.036 C 
ATOM     40  C   UNL     1      -0.558   5.936   1.348  0.00  0.00    +0.036 C 
ENDBRANCH  36  37
ENDBRANCH   1  32
TORSDOF 6
