REMARK  Name = ZINC28444876
REMARK  8 active torsions:
REMARK  status: ('A' for Active; 'I' for Inactive)
REMARK    1  A    between atoms: C_1  and  C_2
REMARK    2  A    between atoms: C_2  and  C_3
REMARK    3  A    between atoms: C_2  and  C_4
REMARK    4  A    between atoms: C_2  and  C_5
REMARK    5  A    between atoms: C_12  and  C_20
REMARK    6  A    between atoms: C_13  and  N_15
REMARK    7  A    between atoms: C_20  and  C_21
REMARK    8  A    between atoms: C_21  and  N_22
REMARK                            x       y       z     vdW  Elec       q    Type
REMARK                         _______ _______ _______ _____ _____    ______ ____
ROOT
ATOM      1  C   UNL     1       3.547   3.383   0.436  0.00  0.00    -0.041 A 
ATOM      2  C   UNL     1       2.334   4.046   0.607  0.00  0.00    +0.006 A 
ATOM      3  C   UNL     1       1.151   3.379   0.518  0.00  0.00    +0.029 A 
ATOM      4  C   UNL     1       1.147   1.999   0.250  0.00  0.00    +0.073 A 
ATOM      5  C   UNL     1       2.381   1.328   0.076  0.00  0.00    +0.001 A 
ATOM      6  C   UNL     1       3.582   2.047   0.174  0.00  0.00    +0.014 A 
ATOM      7  C   UNL     1       2.377  -0.056  -0.193  0.00  0.00    +0.017 A 
ATOM      8  C   UNL     1       1.177  -0.695  -0.276  0.00  0.00    -0.009 A 
ATOM      9  C   UNL     1      -0.012   0.027  -0.095  0.00  0.00    +0.125 A 
ATOM     10  N   UNL     1      -0.002   1.319   0.157  0.00  0.00    -0.232 NA
ENDROOT
BRANCH   9  11
ATOM     11  N   UNL     1      -1.227  -0.637  -0.182  0.00  0.00    -0.315 N 
ATOM     12  C   UNL     1      -1.756  -0.957   1.169  0.00  0.00    +0.106 C 
ATOM     13  C   UNL     1      -3.268  -1.183   0.912  0.00  0.00    +0.020 C 
ATOM     14  C   UNL     1      -3.599  -0.120  -0.160  0.00  0.00    +0.020 C 
ATOM     15  C   UNL     1      -2.251   0.214  -0.825  0.00  0.00    +0.106 C 
ENDBRANCH   9  11
BRANCH   1  17
ATOM     16  C   UNL     1       5.603   4.050  -0.780  0.00  0.00    +0.015 C 
ATOM     17  C   UNL     1       4.838   4.154   0.541  0.00  0.00    -0.013 C 
ATOM     18  C   UNL     1       4.531   5.624   0.838  0.00  0.00    +0.015 C 
ATOM     19  C   UNL     1       5.689   3.573   1.671  0.00  0.00    +0.015 C 
ENDBRANCH   1  17
BRANCH   8  20
ATOM     20  C   UNL     1       1.126  -2.173  -0.562  0.00  0.00    +0.019 C 
BRANCH  20  21
ATOM     21  C   UNL     1       0.950  -2.397  -2.065  0.00  0.00    -0.082 C 
BRANCH  21  22
ATOM     22  N   UNL     1       0.901  -3.838  -2.344  0.00  0.00    +0.378 N 
ATOM     23  H   UNL     1       0.775  -3.998  -3.425  0.00  0.00    -0.090 HD
ATOM     24  H   UNL     1       0.054  -4.287  -1.805  0.00  0.00    -0.090 HD
ATOM     25  H   UNL     1       1.838  -4.308  -2.011  0.00  0.00    -0.090 HD
ENDBRANCH  21  22
ENDBRANCH  20  21
ENDBRANCH   8  20
TORSDOF 5
