REMARK  Name = ZINC05566066
REMARK  5 active torsions:
REMARK  status: ('A' for Active; 'I' for Inactive)
REMARK    1  A    between atoms: C_1  and  C_2
REMARK    2  A    between atoms: C_2  and  C_24
REMARK    3  A    between atoms: N_3  and  N_4
REMARK    4  A    between atoms: P_13  and  N_16
REMARK    5  A    between atoms: N_16  and  N_17
REMARK                            x       y       z     vdW  Elec       q    Type
REMARK                         _______ _______ _______ _____ _____    ______ ____
ROOT
ATOM      1  N   UNL     1       2.320   0.085  -0.117  0.00  0.00    -0.215 N 
ATOM      2  C   UNL     1       3.509  -0.575  -0.339  0.00  0.00    +0.178 C 
ATOM      3  N   UNL     1       3.616  -1.837  -0.548  0.00  0.00    -0.245 NA
ATOM      4  C   UNL     1       4.757  -2.702  -0.797  0.00  0.00    +0.140 C 
ATOM      5  C   UNL     1       4.666  -3.362  -2.168  0.00  0.00    +0.040 C 
ATOM      6  C   UNL     1       3.474  -4.323  -2.196  0.00  0.00    +0.003 C 
ATOM      7  C   UNL     1       3.652  -5.385  -1.109  0.00  0.00    +0.000 C 
ATOM      8  C   UNL     1       3.719  -4.709   0.262  0.00  0.00    +0.003 C 
ATOM      9  C   UNL     1       4.912  -3.750   0.299  0.00  0.00    +0.040 C 
ATOM     10  P   UNL     1       6.245  -1.589  -0.770  0.00  0.00    +0.251 P 
ATOM     11  O   UNL     1       7.175  -1.924   0.331  0.00  0.00    -0.289 OA
ATOM     12  S   UNL     1       5.122   0.213  -0.383  0.00  0.00    -0.006 S 
ATOM     13  H   UNL     1       2.318   1.043   0.034  0.00  0.00    +0.176 HD
ENDROOT
BRANCH   1  16
ATOM     14  C   UNL     1      -1.286  -0.775   0.127  0.00  0.00    +0.063 C 
ATOM     15  C   UNL     1       0.002  -0.004  -0.001  0.00  0.00    +0.048 C 
ATOM     16  N   UNL     1       1.114  -0.628  -0.109  0.00  0.00    -0.189 NA
BRANCH  15  17
ATOM     17  C   UNL     1      -0.019   1.503  -0.001  0.00  0.00    +0.160 C 
ATOM     18 CL   UNL     1      -1.727   2.080  -0.008  0.00  0.00    -0.119 Cl
ENDBRANCH  15  17
ENDBRANCH   1  16
BRANCH  10  19
ATOM     19  N   UNL     1       7.029  -1.538  -2.259  0.00  0.00    -0.177 NA
ATOM     20  H   UNL     1       7.290  -2.464  -2.562  0.00  0.00    +0.153 HD
BRANCH  19  21
ATOM     21  N   UNL     1       8.117  -0.714  -2.211  0.00  0.00    -0.243 N 
ATOM     22  C   UNL     1       9.363  -1.191  -2.578  0.00  0.00    +0.229 A 
ATOM     23  N   UNL     1       9.484  -2.452  -2.967  0.00  0.00    -0.222 NA
ATOM     24  C   UNL     1      10.659  -2.938  -3.330  0.00  0.00    +0.116 A 
ATOM     25  C   UNL     1      11.774  -2.115  -3.287  0.00  0.00    +0.039 A 
ATOM     26  C   UNL     1      11.613  -0.803  -2.869  0.00  0.00    +0.116 A 
ATOM     27  N   UNL     1      10.408  -0.378  -2.525  0.00  0.00    -0.222 NA
ATOM     28  H   UNL     1       8.017   0.206  -1.920  0.00  0.00    +0.170 HD
ENDBRANCH  19  21
ENDBRANCH  10  19
TORSDOF 4
