REMARK  Name = ZINC40762777
REMARK  4 active torsions:
REMARK  status: ('A' for Active; 'I' for Inactive)
REMARK    1  A    between atoms: C_6  and  C_7
REMARK    2  A    between atoms: N_15  and  C_18
REMARK    3  A    between atoms: C_27  and  N_30
REMARK    4  A    between atoms: N_30  and  N_31
REMARK                            x       y       z     vdW  Elec       q    Type
REMARK                         _______ _______ _______ _____ _____    ______ ____
ROOT
ATOM      1  C   UNL     1      -6.028  -5.025   0.039  0.00  0.00    +0.085 A 
ATOM      2  C   UNL     1      -7.264  -4.387   0.148  0.00  0.00    +0.032 A 
ATOM      3  C   UNL     1      -8.407  -5.164   0.151  0.00  0.00    +0.044 A 
ATOM      4  C   UNL     1      -8.289  -6.546   0.046  0.00  0.00    +0.099 A 
ATOM      5  N   UNL     1      -7.099  -7.118  -0.056  0.00  0.00    -0.348 N 
ATOM      6  C   UNL     1      -5.987  -6.407  -0.067  0.00  0.00    +0.112 A 
ATOM      7  N   UNL     1      -9.433  -7.337   0.048  0.00  0.00    -0.315 N 
ATOM      8  C   UNL     1     -10.819  -6.843   0.148  0.00  0.00    +0.108 C 
ATOM      9  C   UNL     1     -11.683  -7.953  -0.500  0.00  0.00    +0.040 C 
ATOM     10  C   UNL     1     -10.944  -9.235  -0.036  0.00  0.00    +0.088 C 
ATOM     11  C   UNL     1      -9.462  -8.803  -0.056  0.00  0.00    +0.126 C 
ATOM     12  H   UNL     1      -7.043  -8.083  -0.128  0.00  0.00    +0.167 HD
ENDROOT
BRANCH   1  21
ATOM     13  C   UNL     1      -1.034  -1.132   0.866  0.00  0.00    -0.017 A 
ATOM     14  C   UNL     1      -1.981  -0.870   1.864  0.00  0.00    +0.009 A 
ATOM     15  C   UNL     1      -3.152  -1.569   1.915  0.00  0.00    +0.014 A 
ATOM     16  C   UNL     1      -3.412  -2.558   0.965  0.00  0.00    +0.050 A 
ATOM     17  C   UNL     1      -2.463  -2.833  -0.048  0.00  0.00    +0.008 A 
ATOM     18  C   UNL     1      -1.273  -2.107  -0.093  0.00  0.00    +0.018 A 
ATOM     19  C   UNL     1      -2.767  -3.876  -1.028  0.00  0.00    +0.142 A 
ATOM     20  N   UNL     1      -3.890  -4.528  -0.956  0.00  0.00    -0.171 NA
ATOM     21  N   UNL     1      -4.843  -4.278   0.032  0.00  0.00    -0.195 N 
ATOM     22  C   UNL     1      -4.655  -3.337   0.980  0.00  0.00    +0.280 A 
ATOM     23  O   UNL     1      -5.502  -3.137   1.832  0.00  0.00    -0.265 OA
BRANCH  13  29
ATOM     24  C   UNL     1       0.478   0.622   1.789  0.00  0.00    +0.010 A 
ATOM     25  C   UNL     1       1.657   1.339   1.752  0.00  0.00    +0.020 A 
ATOM     26  C   UNL     1       2.592   1.085   0.763  0.00  0.00    +0.041 A 
ATOM     27  C   UNL     1       2.351   0.113  -0.192  0.00  0.00    +0.020 A 
ATOM     28  C   UNL     1       1.176  -0.609  -0.163  0.00  0.00    +0.010 A 
ATOM     29  C   UNL     1       0.231  -0.358   0.830  0.00  0.00    -0.018 A 
ATOM     30 CL   UNL     1       4.073   1.991   0.722  0.00  0.00    -0.084 Cl
ENDBRANCH  13  29
ENDBRANCH   1  21
BRANCH  10  31
ATOM     31  N   UNL     1     -11.177 -10.339  -0.976  0.00  0.00    -0.249 NA
ATOM     32  H   UNL     1     -12.148 -10.612  -0.980  0.00  0.00    +0.141 HD
BRANCH  31  33
ATOM     33  N   UNL     1     -10.729  -9.986  -2.314  0.00  0.00    -0.238 NA
ATOM     34  C   UNL     1     -11.858  -9.954  -3.256  0.00  0.00    +0.130 C 
ATOM     35  C   UNL     1     -11.353  -9.522  -4.635  0.00  0.00    +0.176 C 
ATOM     36  O   UNL     1     -10.319 -10.414  -5.059  0.00  0.00    -0.377 OA
ATOM     37  C   UNL     1      -9.204 -10.470  -4.166  0.00  0.00    +0.176 C 
ATOM     38  C   UNL     1      -9.687 -10.912  -2.782  0.00  0.00    +0.130 C 
ENDBRANCH  31  33
ENDBRANCH  10  31
TORSDOF 4
