REMARK  Name = ZINC40985931
REMARK  10 active torsions:
REMARK  status: ('A' for Active; 'I' for Inactive)
REMARK    1  A    between atoms: C_1  and  N_2
REMARK    2  A    between atoms: N_2  and  C_3
REMARK    3  A    between atoms: N_2  and  C_4
REMARK    4  A    between atoms: C_4  and  C_6
REMARK    5  A    between atoms: C_4  and  C_26
REMARK    6  A    between atoms: C_6  and  N_7
REMARK    7  A    between atoms: C_8  and  C_10
REMARK    8  A    between atoms: C_13  and  S_17
REMARK    9  A    between atoms: S_17  and  C_18
REMARK   10  A    between atoms: C_18  and  C_19
REMARK                            x       y       z     vdW  Elec       q    Type
REMARK                         _______ _______ _______ _____ _____    ______ ____
ROOT
ATOM      1  C   UNL     1      -1.793   3.359  -2.723  0.00  0.00    +0.092 A 
ATOM      2  C   UNL     1      -1.131   4.093  -1.730  0.00  0.00    +0.129 A 
ATOM      3  N   UNL     1      -0.896   5.375  -1.932  0.00  0.00    -0.229 NA
ATOM      4  C   UNL     1      -1.278   5.971  -3.056  0.00  0.00    +0.190 A 
ATOM      5  N   UNL     1      -1.906   5.312  -4.021  0.00  0.00    -0.209 NA
ATOM      6  C   UNL     1      -2.174   4.024  -3.899  0.00  0.00    +0.146 A 
ATOM      7 CL   UNL     1      -2.992   3.170  -5.170  0.00  0.00    -0.061 Cl
ENDROOT
BRANCH   1   9
ATOM      8  N   UNL     1      -1.702   1.302  -1.405  0.00  0.00    -0.312 N 
ATOM      9  C   UNL     1      -2.076   1.923  -2.541  0.00  0.00    +0.248 C 
ATOM     10  O   UNL     1      -2.647   1.300  -3.416  0.00  0.00    -0.270 OA
ATOM     11  H   UNL     1      -1.246   1.799  -0.708  0.00  0.00    +0.149 HD
BRANCH   8  12
ATOM     12  C   UNL     1      -1.983  -0.125  -1.224  0.00  0.00    +0.097 C 
BRANCH  12  13
ATOM     13  C   UNL     1      -1.371  -0.601   0.095  0.00  0.00    +0.016 C 
BRANCH  13  14
ATOM     14  C   UNL     1       0.130  -0.488   0.023  0.00  0.00    +0.093 A 
ATOM     15  C   UNL     1       0.983  -1.497  -0.231  0.00  0.00    +0.043 A 
ATOM     16  C   UNL     1       2.285  -0.948  -0.204  0.00  0.00    +0.041 A 
ATOM     17  C   UNL     1       2.150   0.363   0.065  0.00  0.00    +0.195 A 
ATOM     18  O   UNL     1       0.842   0.637   0.196  0.00  0.00    -0.469 OA
ENDBRANCH  13  14
BRANCH  13  20
ATOM     19  C   UNL     1      -3.338   0.143   1.249  0.00  0.00    -0.096 C 
ATOM     20  N   UNL     1      -1.873   0.232   1.196  0.00  0.00    +0.384 N 
ATOM     21  C   UNL     1      -1.308  -0.244   2.466  0.00  0.00    -0.096 C 
ATOM     22  H   UNL     1      -1.599   1.191   1.044  0.00  0.00    -0.082 HD
ENDBRANCH  13  20
ENDBRANCH  12  13
ENDBRANCH   8  12
ENDBRANCH   1   9
BRANCH   4  23
ATOM     23  S   UNL     1      -0.939   7.686  -3.272  0.00  0.00    -0.081 S 
BRANCH  23  24
ATOM     24  C   UNL     1      -1.620   8.065  -4.910  0.00  0.00    +0.112 C 
BRANCH  24  25
ATOM     25  C   UNL     1      -1.394   9.522  -5.223  0.00  0.00    -0.037 A 
ATOM     26  C   UNL     1      -2.341  10.461  -4.861  0.00  0.00    +0.006 A 
ATOM     27  C   UNL     1      -2.135  11.797  -5.149  0.00  0.00    +0.020 A 
ATOM     28  C   UNL     1      -0.980  12.194  -5.799  0.00  0.00    +0.041 A 
ATOM     29  C   UNL     1      -0.032  11.254  -6.161  0.00  0.00    +0.020 A 
ATOM     30  C   UNL     1      -0.237   9.918  -5.868  0.00  0.00    +0.006 A 
ATOM     31 CL   UNL     1      -0.720  13.872  -6.160  0.00  0.00    -0.084 Cl
ENDBRANCH  24  25
ENDBRANCH  23  24
ENDBRANCH   4  23
TORSDOF 8
