REMARK  Name = ZINC39280347
REMARK  6 active torsions:
REMARK  status: ('A' for Active; 'I' for Inactive)
REMARK    1  A    between atoms: C_1  and  C_2
REMARK    2  A    between atoms: C_2  and  C_3
REMARK    3  A    between atoms: C_6  and  C_9
REMARK    4  A    between atoms: C_11  and  C_15
REMARK    5  A    between atoms: C_19  and  S_23
REMARK    6  A    between atoms: N_21  and  N_22
REMARK                            x       y       z     vdW  Elec       q    Type
REMARK                         _______ _______ _______ _____ _____    ______ ____
ROOT
ATOM      1  C   UNL     1      -5.401  -1.997   0.043  0.00  0.00    +0.091 C 
ATOM      2  C   UNL     1      -6.129  -2.266  -1.058  0.00  0.00    +0.034 C 
ATOM      3  C   UNL     1      -7.456  -2.755  -0.505  0.00  0.00    +0.187 C 
ATOM      4  N   UNL     1      -7.261  -2.682   0.952  0.00  0.00    -0.176 NA
ATOM      5  N   UNL     1      -6.120  -2.267   1.164  0.00  0.00    -0.154 NA
ENDROOT
BRANCH   3   6
ATOM      6  C   UNL     1      -7.727  -4.195  -0.946  0.00  0.00    +0.185 C 
ATOM      7  N   UNL     1      -7.705  -4.287  -2.424  0.00  0.00    -0.234 NA
ATOM      8  N   UNL     1      -8.764  -5.256  -2.748  0.00  0.00    -0.228 NA
ATOM      9  C   UNL     1      -9.825  -4.939  -1.756  0.00  0.00    +0.211 C 
ATOM     10  N   UNL     1      -9.079  -4.610  -0.518  0.00  0.00    -0.197 NA
ATOM     11  H   UNL     1      -7.895  -3.390  -2.844  0.00  0.00    +0.143 HD
ATOM     12  H   UNL     1      -8.434  -6.203  -2.634  0.00  0.00    +0.143 HD
BRANCH  10  13
ATOM     13  N   UNL     1      -9.015  -5.758   0.372  0.00  0.00    -0.264 NA
ATOM     14  H   UNL     1      -9.938  -6.041   0.665  0.00  0.00    +0.137 HD
ATOM     15  H   UNL     1      -8.521  -6.524  -0.061  0.00  0.00    +0.137 HD
ENDBRANCH  10  13
BRANCH   9  16
ATOM     16  S   UNL     1     -10.804  -3.515  -2.309  0.00  0.00    -0.142 S 
ATOM     17  H   UNL     1     -11.350  -3.926  -3.467  0.00  0.00    +0.105 HD
ENDBRANCH   9  16
ENDBRANCH   3   6
BRANCH   1  21
ATOM     18  C   UNL     1      -1.412  -0.526   0.013  0.00  0.00    -0.048 A 
ATOM     19  C   UNL     1      -2.049  -0.765   1.217  0.00  0.00    +0.004 A 
ATOM     20  C   UNL     1      -3.344  -1.242   1.233  0.00  0.00    +0.010 A 
ATOM     21  C   UNL     1      -4.009  -1.483   0.032  0.00  0.00    +0.002 A 
ATOM     22  C   UNL     1      -3.363  -1.240  -1.178  0.00  0.00    +0.010 A 
ATOM     23  C   UNL     1      -2.070  -0.758  -1.182  0.00  0.00    +0.004 A 
BRANCH  18  25
ATOM     24  C   UNL     1      -0.019   1.526   0.010  0.00  0.00    +0.009 C 
ATOM     25  C   UNL     1       0.002  -0.004   0.002  0.00  0.00    +0.032 C 
ENDBRANCH  18  25
ENDBRANCH   1  21
TORSDOF 5
