REMARK  Name = ZINC25213333
REMARK  6 active torsions:
REMARK  status: ('A' for Active; 'I' for Inactive)
REMARK    1  A    between atoms: C_4  and  N_7
REMARK    2  A    between atoms: C_11  and  C_13
REMARK    3  A    between atoms: C_13  and  O_14
REMARK    4  A    between atoms: O_14  and  C_15
REMARK    5  A    between atoms: C_15  and  C_17
REMARK    6  A    between atoms: C_23  and  C_25
REMARK                            x       y       z     vdW  Elec       q    Type
REMARK                         _______ _______ _______ _____ _____    ______ ____
ROOT
ATOM      1  C   UNL     1      -1.144   5.125   9.375  0.00  0.00    +0.328 C 
ATOM      2  O   UNL     1      -2.333   5.247   9.554  0.00  0.00    -0.249 OA
ENDROOT
BRANCH   1   3
ATOM      3  C   UNL     1      -0.178   5.461  10.482  0.00  0.00    +0.185 C 
ATOM      4  C   UNL     1       0.750   6.611  10.037  0.00  0.00    +0.035 C 
ATOM      5  C   UNL     1       0.900   7.457  11.329  0.00  0.00    +0.021 C 
ATOM      6  C   UNL     1      -0.509   7.315  11.958  0.00  0.00    +0.109 C 
ATOM      7  N   UNL     1      -0.915   5.928  11.665  0.00  0.00    -0.288 N 
ATOM      8  C   UNL     1      -1.814   5.208  12.365  0.00  0.00    +0.222 C 
ATOM      9  O   UNL     1      -2.144   4.107  11.977  0.00  0.00    -0.275 OA
BRANCH   8  10
ATOM     10  C   UNL     1      -2.409   5.771  13.630  0.00  0.00    +0.048 C 
ATOM     11  C   UNL     1      -1.316   5.904  14.693  0.00  0.00    +0.019 C 
ATOM     12  C   UNL     1      -1.919   6.475  15.977  0.00  0.00    -0.009 C 
ATOM     13  C   UNL     1      -3.015   5.536  16.487  0.00  0.00    +0.007 C 
ATOM     14  C   UNL     1      -4.108   5.403  15.425  0.00  0.00    -0.009 C 
ATOM     15  C   UNL     1      -3.504   4.832  14.140  0.00  0.00    +0.019 C 
ATOM     16  C   UNL     1      -4.710   6.780  15.137  0.00  0.00    +0.007 C 
ATOM     17  C   UNL     1      -3.614   7.719  14.627  0.00  0.00    -0.009 C 
ATOM     18  C   UNL     1      -2.521   7.852  15.690  0.00  0.00    +0.007 C 
ATOM     19  C   UNL     1      -3.010   7.148  13.343  0.00  0.00    +0.019 C 
ENDBRANCH   8  10
ENDBRANCH   1   3
BRANCH   1  20
ATOM     20  O   UNL     1      -0.684   4.691   8.191  0.00  0.00    -0.454 OA
BRANCH  20  21
ATOM     21  C   UNL     1      -1.673   4.387   7.172  0.00  0.00    +0.328 C 
BRANCH  21  26
ATOM     22  N   UNL     1      -1.795   2.815   2.630  0.00  0.00    -0.296 N 
ATOM     23  C   UNL     1      -1.074   3.156   3.716  0.00  0.00    +0.306 C 
ATOM     24  O   UNL     1       0.139   3.085   3.687  0.00  0.00    -0.252 OA
ATOM     25  N   UNL     1      -1.697   3.576   4.835  0.00  0.00    -0.237 N 
ATOM     26  C   UNL     1      -0.976   3.917   5.921  0.00  0.00    +0.258 C 
ATOM     27  O   UNL     1       0.234   3.846   5.892  0.00  0.00    -0.272 OA
ATOM     28  H   UNL     1      -2.893   2.880   2.657  0.00  0.00    +0.151 HD
ATOM     29  H   UNL     1      -2.795   3.641   4.862  0.00  0.00    +0.159 HD
BRANCH  22  33
ATOM     30  C   UNL     1      -1.024   0.651  -0.964  0.00  0.00    +0.000 C 
ATOM     31  C   UNL     1      -0.131   0.381   0.249  0.00  0.00    +0.002 C 
ATOM     32  C   UNL     1      -0.839   0.858   1.519  0.00  0.00    +0.022 C 
ATOM     33  C   UNL     1      -1.118   2.359   1.414  0.00  0.00    +0.074 C 
ATOM     34  C   UNL     1      -2.010   2.628   0.201  0.00  0.00    +0.022 C 
ATOM     35  C   UNL     1      -1.302   2.152  -1.069  0.00  0.00    +0.002 C 
ENDBRANCH  22  33
ENDBRANCH  21  26
ENDBRANCH  20  21
ENDBRANCH   1  20
TORSDOF 6
