REMARK  Name = ZINC32608112
REMARK  4 active torsions:
REMARK  status: ('A' for Active; 'I' for Inactive)
REMARK    1  A    between atoms: C_1  and  C_2
REMARK    2  A    between atoms: C_3  and  C_23
REMARK    3  A    between atoms: N_7  and  C_8
REMARK    4  A    between atoms: C_8  and  C_10
REMARK                            x       y       z     vdW  Elec       q    Type
REMARK                         _______ _______ _______ _____ _____    ______ ____
ROOT
ATOM      1  C   UNL     1      -3.638   3.110   0.055  0.00  0.00    +0.102 A 
ATOM      2  C   UNL     1      -3.551   1.708   0.046  0.00  0.00    +0.100 A 
ATOM      3  N   UNL     1      -2.397   1.092   0.031  0.00  0.00    -0.360 N 
ATOM      4  C   UNL     1      -1.236   1.762   0.018  0.00  0.00    +0.056 A 
ATOM      5  C   UNL     1      -0.013   1.076   0.008  0.00  0.00    +0.064 A 
ATOM      6  C   UNL     1       1.160   1.776   0.001  0.00  0.00    +0.128 A 
ATOM      7  C   UNL     1       1.164   3.169   0.008  0.00  0.00    +0.077 A 
ATOM      8  C   UNL     1      -0.007   3.870   0.023  0.00  0.00    +0.139 A 
ATOM      9  C   UNL     1      -1.230   3.178   0.031  0.00  0.00    +0.081 A 
ATOM     10  C   UNL     1      -2.461   3.869   0.047  0.00  0.00    +0.204 A 
ATOM     11  O   UNL     1      -2.502   5.221   0.054  0.00  0.00    -0.286 OA
ATOM     12  F   UNL     1       0.009   5.221   0.031  0.00  0.00    -0.205 F 
ATOM     13  F   UNL     1       2.333   1.107  -0.015  0.00  0.00    -0.205 F 
ATOM     14  H   UNL     1      -2.360  -0.007   0.029  0.00  0.00    +0.165 HD
ENDROOT
BRANCH   1  15
ATOM     15  C   UNL     1      -4.952   3.774   0.072  0.00  0.00    +0.275 C 
ATOM     16  O   UNL     1      -5.019   4.988   0.080  0.00  0.00    -0.268 OA
BRANCH  15  23
ATOM     17  C   UNL     1      -9.146   6.860   0.135  0.00  0.00    +0.064 C 
ATOM     18  C   UNL     1      -8.842   5.384   0.122  0.00  0.00    +0.024 A 
ATOM     19  C   UNL     1      -9.842   4.469   0.127  0.00  0.00    +0.009 A 
ATOM     20  S   UNL     1      -8.902   2.950   0.108  0.00  0.00    -0.057 S 
ATOM     21  C   UNL     1      -7.319   3.663   0.096  0.00  0.00    +0.164 A 
ATOM     22  N   UNL     1      -7.596   4.952   0.112  0.00  0.00    -0.339 N 
ATOM     23  N   UNL     1      -6.079   3.036   0.079  0.00  0.00    -0.152 NA
ATOM     24  C   UNL     1     -11.334   4.676   0.143  0.00  0.00    +0.053 C 
ATOM     25  H   UNL     1      -6.764   5.673   0.117  0.00  0.00    +0.167 HD
ENDBRANCH  15  23
ENDBRANCH   1  15
TORSDOF 2
