REMARK  Name = ZINC02302950
REMARK  11 active torsions:
REMARK  status: ('A' for Active; 'I' for Inactive)
REMARK    1  A    between atoms: C_1  and  C_2
REMARK    2  A    between atoms: C_2  and  C_3
REMARK    3  A    between atoms: C_8  and  C_9
REMARK    4  A    between atoms: C_9  and  N_11
REMARK    5  A    between atoms: N_11  and  N_12
REMARK    6  A    between atoms: C_13  and  C_14
REMARK    7  A    between atoms: C_19  and  O_20
REMARK    8  A    between atoms: C_21  and  C_27
REMARK    9  A    between atoms: C_21  and  C_28
REMARK   10  A    between atoms: C_24  and  C_25
REMARK   11  A    between atoms: C_24  and  C_26
REMARK                            x       y       z     vdW  Elec       q    Type
REMARK                         _______ _______ _______ _____ _____    ______ ____
ROOT
ATOM      1  C   UNL     1       4.834   9.500  -0.113  0.00  0.00    -0.038 A 
ATOM      2  C   UNL     1       6.019  10.192  -0.234  0.00  0.00    +0.008 A 
ATOM      3  C   UNL     1       7.239   9.530  -0.166  0.00  0.00    -0.038 A 
ATOM      4  C   UNL     1       7.270   8.166   0.035  0.00  0.00    -0.037 A 
ATOM      5  C   UNL     1       6.083   7.461   0.160  0.00  0.00    +0.014 A 
ATOM      6  C   UNL     1       4.860   8.120   0.091  0.00  0.00    +0.000 A 
ATOM      7  C   UNL     1       8.558   7.391   0.137  0.00  0.00    -0.010 C 
ATOM      8  C   UNL     1       9.718   8.199  -0.441  0.00  0.00    +0.012 C 
ATOM      9  C   UNL     1       9.705   9.592   0.200  0.00  0.00    +0.012 C 
ATOM     10  C   UNL     1       8.491  10.353  -0.326  0.00  0.00    -0.010 C 
ATOM     11  C   UNL     1       8.698  10.672  -1.808  0.00  0.00    +0.016 C 
ATOM     12  C   UNL     1       8.338  11.661   0.453  0.00  0.00    +0.016 C 
ATOM     13  C   UNL     1       8.844   7.078   1.607  0.00  0.00    +0.016 C 
ATOM     14  C   UNL     1       8.420   6.080  -0.640  0.00  0.00    +0.016 C 
ENDROOT
BRANCH   1  16
ATOM     15  C   UNL     1       3.041  10.578   1.217  0.00  0.00    +0.009 C 
ATOM     16  C   UNL     1       3.518  10.229  -0.194  0.00  0.00    +0.032 C 
ENDBRANCH   1  16
BRANCH   6  17
ATOM     17  C   UNL     1       3.594   7.363   0.226  0.00  0.00    +0.049 C 
ATOM     18  C   UNL     1       3.364   6.639   1.324  0.00  0.00    +0.035 C 
BRANCH  17  19
ATOM     19  N   UNL     1       2.644   7.405  -0.792  0.00  0.00    -0.238 N 
ATOM     20  H   UNL     1       2.812   7.932  -1.590  0.00  0.00    +0.174 HD
BRANCH  19  21
ATOM     21  N   UNL     1       1.448   6.689  -0.664  0.00  0.00    -0.190 NA
ATOM     22  C   UNL     1       0.562   6.729  -1.613  0.00  0.00    +0.141 C 
BRANCH  22  23
ATOM     23  C   UNL     1      -0.697   5.974  -1.479  0.00  0.00    +0.036 A 
ATOM     24  C   UNL     1      -1.652   6.015  -2.497  0.00  0.00    +0.013 A 
ATOM     25  C   UNL     1      -2.828   5.306  -2.365  0.00  0.00    +0.001 A 
ATOM     26  C   UNL     1      -3.069   4.560  -1.225  0.00  0.00    +0.004 A 
ATOM     27  C   UNL     1      -2.129   4.507  -0.212  0.00  0.00    +0.046 A 
ATOM     28  C   UNL     1      -0.943   5.213  -0.329  0.00  0.00    +0.125 A 
BRANCH  28  29
ATOM     29  O   UNL     1      -0.021   5.166   0.668  0.00  0.00    -0.506 OA
ATOM     30  H   UNL     1      -0.132   5.853   1.340  0.00  0.00    +0.292 HD
ENDBRANCH  28  29
ENDBRANCH  22  23
ENDBRANCH  19  21
ENDBRANCH  17  19
ENDBRANCH   6  17
TORSDOF 6
