REMARK  Name = ZINC62280104
REMARK  6 active torsions:
REMARK  status: ('A' for Active; 'I' for Inactive)
REMARK    1  A    between atoms: C_1  and  C_2
REMARK    2  A    between atoms: C_8  and  C_10
REMARK    3  A    between atoms: C_10  and  N_11
REMARK    4  A    between atoms: C_12  and  C_14
REMARK    5  A    between atoms: C_14  and  C_16
REMARK    6  A    between atoms: C_14  and  C_23
REMARK                            x       y       z     vdW  Elec       q    Type
REMARK                         _______ _______ _______ _____ _____    ______ ____
ROOT
ATOM      1  N   UNL     1      -5.380  -5.105  -1.170  0.00  0.00    -0.306 N 
ATOM      2  C   UNL     1      -6.021  -4.926   0.002  0.00  0.00    +0.221 C 
ATOM      3  O   UNL     1      -5.459  -5.181   1.046  0.00  0.00    -0.275 OA
ATOM      4  H   UNL     1      -5.853  -4.971  -2.007  0.00  0.00    +0.149 HD
ENDROOT
BRANCH   1   5
ATOM      5  C   UNL     1      -3.971  -5.503  -1.181  0.00  0.00    +0.200 C 
BRANCH   5  13
ATOM      6  C   UNL     1      -2.206  -5.993  -7.853  0.00  0.00    +0.089 C 
ATOM      7  C   UNL     1      -1.781  -6.114  -6.412  0.00  0.00    +0.136 A 
ATOM      8  C   UNL     1      -2.561  -5.896  -5.338  0.00  0.00    +0.091 A 
ATOM      9  C   UNL     1      -1.784  -6.117  -4.179  0.00  0.00    +0.168 A 
ATOM     10  N   UNL     1      -0.579  -6.456  -4.562  0.00  0.00    -0.063 NA
ATOM     11  O   UNL     1      -0.560  -6.465  -5.978  0.00  0.00    -0.358 OA
ATOM     12  N   UNL     1      -2.223  -5.994  -2.861  0.00  0.00    -0.266 N 
ATOM     13  C   UNL     1      -3.496  -5.635  -2.605  0.00  0.00    +0.236 C 
ATOM     14  O   UNL     1      -4.261  -5.418  -3.521  0.00  0.00    -0.274 OA
ATOM     15  H   UNL     1      -1.611  -6.168  -2.128  0.00  0.00    +0.156 HD
ENDBRANCH   5  13
ENDBRANCH   1   5
BRANCH   2  16
ATOM     16  C   UNL     1      -7.436  -4.407   0.015  0.00  0.00    +0.108 C 
BRANCH  16  17
ATOM     17  C   UNL     1      -8.396  -5.567   0.077  0.00  0.00    -0.035 A 
ATOM     18  C   UNL     1      -8.355  -6.441   1.147  0.00  0.00    +0.006 A 
ATOM     19  C   UNL     1      -9.235  -7.506   1.204  0.00  0.00    +0.020 A 
ATOM     20  C   UNL     1     -10.157  -7.697   0.190  0.00  0.00    +0.041 A 
ATOM     21  C   UNL     1     -10.197  -6.821  -0.881  0.00  0.00    +0.020 A 
ATOM     22  C   UNL     1      -9.320  -5.754  -0.934  0.00  0.00    +0.006 A 
ATOM     23 CL   UNL     1     -11.262  -9.034   0.261  0.00  0.00    -0.084 Cl
ENDBRANCH  16  17
BRANCH  16  24
ATOM     24  C   UNL     1      -7.640  -3.511   1.238  0.00  0.00    +0.005 C 
ATOM     25  C   UNL     1      -9.099  -3.015   1.293  0.00  0.00    +0.004 C 
ATOM     26  C   UNL     1      -8.987  -1.562   1.818  0.00  0.00    +0.000 C 
ATOM     27  C   UNL     1      -7.705  -1.045   1.119  0.00  0.00    +0.000 C 
ATOM     28  C   UNL     1      -6.753  -2.258   1.128  0.00  0.00    +0.004 C 
ENDBRANCH  16  24
ENDBRANCH   2  16
TORSDOF 5
