REMARK  Name = ZINC45336084
REMARK  4 active torsions:
REMARK  status: ('A' for Active; 'I' for Inactive)
REMARK    1  A    between atoms: C_3  and  N_20
REMARK    2  A    between atoms: C_5  and  O_7
REMARK    3  A    between atoms: O_7  and  C_8
REMARK    4  A    between atoms: N_23  and  C_24
REMARK                            x       y       z     vdW  Elec       q    Type
REMARK                         _______ _______ _______ _____ _____    ______ ____
ROOT
ATOM      1  C   UNL     1      -0.042   1.494  -0.183  0.00  0.00    +0.005 A 
ATOM      2  C   UNL     1       1.195   2.109  -0.211  0.00  0.00    +0.023 A 
ATOM      3  C   UNL     1       2.350   1.355  -0.045  0.00  0.00    +0.038 A 
ATOM      4  C   UNL     1       2.260  -0.016   0.148  0.00  0.00    +0.069 A 
ATOM      5  C   UNL     1       1.018  -0.630   0.175  0.00  0.00    +0.130 A 
ATOM      6  C   UNL     1      -0.134   0.129   0.009  0.00  0.00    +0.046 A 
ENDROOT
BRANCH   3   7
ATOM      7  N   UNL     1       3.603   1.978  -0.073  0.00  0.00    -0.269 N 
ATOM      8  C   UNL     1       4.658   1.346  -0.625  0.00  0.00    +0.308 C 
ATOM      9  O   UNL     1       4.542   0.202  -1.021  0.00  0.00    -0.252 OA
ATOM     10  N   UNL     1       5.841   1.981  -0.736  0.00  0.00    -0.269 N 
ATOM     11  H   UNL     1       3.712   2.865   0.304  0.00  0.00    +0.156 HD
ATOM     12  H   UNL     1       5.956   2.864  -0.351  0.00  0.00    +0.156 HD
BRANCH  10  13
ATOM     13  C   UNL     1       6.904   1.367  -1.408  0.00  0.00    +0.037 A 
ATOM     14  C   UNL     1       6.655   0.538  -2.494  0.00  0.00    +0.023 A 
ATOM     15  C   UNL     1       7.705  -0.067  -3.156  0.00  0.00    +0.005 A 
ATOM     16  C   UNL     1       9.005   0.151  -2.739  0.00  0.00    +0.038 A 
ATOM     17  C   UNL     1       9.258   0.977  -1.656  0.00  0.00    +0.125 A 
ATOM     18  C   UNL     1       8.210   1.589  -0.993  0.00  0.00    +0.061 A 
ATOM     19  F   UNL     1      10.530   1.188  -1.251  0.00  0.00    -0.205 F 
ENDBRANCH  10  13
ENDBRANCH   3   7
BRANCH   5  20
ATOM     20  O   UNL     1       0.926  -1.972   0.364  0.00  0.00    -0.454 OA
BRANCH  20  21
ATOM     21  C   UNL     1       1.110  -2.454   1.622  0.00  0.00    +0.154 A 
ATOM     22  C   UNL     1       1.268  -1.579   2.686  0.00  0.00    +0.048 A 
ATOM     23  C   UNL     1       1.456  -2.067   3.967  0.00  0.00    +0.006 A 
ATOM     24  C   UNL     1       1.486  -3.429   4.197  0.00  0.00    +0.028 A 
ATOM     25  C   UNL     1       1.329  -4.314   3.140  0.00  0.00    +0.070 A 
ATOM     26  C   UNL     1       1.134  -3.826   1.847  0.00  0.00    +0.110 A 
ATOM     27  N   UNL     1       1.003  -4.936   1.013  0.00  0.00    -0.303 N 
ATOM     28  H   UNL     1       0.861  -4.911   0.053  0.00  0.00    +0.171 HD
ATOM     29  C   UNL     1       1.107  -6.046   1.766  0.00  0.00    +0.325 A 
ATOM     30  O   UNL     1       1.038  -7.187   1.347  0.00  0.00    -0.247 OA
ATOM     31  N   UNL     1       1.313  -5.704   3.052  0.00  0.00    -0.306 N 
ATOM     32  H   UNL     1       1.421  -6.321   3.793  0.00  0.00    +0.170 HD
ENDBRANCH  20  21
ENDBRANCH   5  20
TORSDOF 4
