REMARK  Name = ZINC12706214
REMARK  10 active torsions:
REMARK  status: ('A' for Active; 'I' for Inactive)
REMARK    1  A    between atoms: C_1  and  C_2
REMARK    2  A    between atoms: C_5  and  C_8
REMARK    3  A    between atoms: C_8  and  C_10
REMARK    4  A    between atoms: C_8  and  N_20
REMARK    5  A    between atoms: N_12  and  C_13
REMARK    6  A    between atoms: C_13  and  C_14
REMARK    7  A    between atoms: N_20  and  C_21
REMARK    8  A    between atoms: C_28  and  C_30
REMARK    9  A    between atoms: C_31  and  N_38
REMARK   10  A    between atoms: C_32  and  C_35
REMARK                            x       y       z     vdW  Elec       q    Type
REMARK                         _______ _______ _______ _____ _____    ______ ____
ROOT
ATOM      1  N   UNL     1       3.624   3.488  -0.886  0.00  0.00    -0.251 N 
ATOM      2  C   UNL     1       4.794   3.814  -1.471  0.00  0.00    +0.262 C 
ATOM      3  O   UNL     1       5.827   3.289  -1.098  0.00  0.00    -0.269 OA
ENDROOT
BRANCH   1   4
ATOM      4  C   UNL     1       2.424   4.005  -1.387  0.00  0.00    +0.038 A 
ATOM      5  C   UNL     1       2.061   5.316  -1.106  0.00  0.00    +0.026 A 
ATOM      6  C   UNL     1       0.879   5.826  -1.607  0.00  0.00    +0.040 A 
ATOM      7  C   UNL     1       0.051   5.028  -2.378  0.00  0.00    +0.124 A 
ATOM      8  C   UNL     1       0.408   3.719  -2.654  0.00  0.00    +0.040 A 
ATOM      9  C   UNL     1       1.592   3.207  -2.161  0.00  0.00    +0.026 A 
ATOM     10  F   UNL     1      -1.108   5.527  -2.861  0.00  0.00    -0.205 F 
ENDBRANCH   1   4
BRANCH   2  11
ATOM     11  C   UNL     1       4.822   4.798  -2.554  0.00  0.00    +0.116 A 
ATOM     12  C   UNL     1       5.919   5.366  -3.205  0.00  0.00    +0.076 A 
ATOM     13  C   UNL     1       5.541   6.274  -4.195  0.00  0.00    +0.155 A 
ATOM     14  N   UNL     1       4.264   6.497  -4.409  0.00  0.00    -0.203 NA
ATOM     15  S   UNL     1       3.467   5.587  -3.398  0.00  0.00    +0.019 S 
BRANCH  13  16
ATOM     16  C   UNL     1       6.564   6.975  -4.992  0.00  0.00    +0.262 C 
ATOM     17  O   UNL     1       7.744   6.763  -4.789  0.00  0.00    -0.269 OA
ATOM     18  N   UNL     1       6.191   7.851  -5.946  0.00  0.00    -0.324 N 
ATOM     19  H   UNL     1       5.250   8.020  -6.108  0.00  0.00    +0.145 HD
ATOM     20  H   UNL     1       6.864   8.312  -6.471  0.00  0.00    +0.145 HD
ENDBRANCH  13  16
BRANCH  12  21
ATOM     21  N   UNL     1       7.239   5.060  -2.903  0.00  0.00    -0.355 N 
ATOM     22  H   UNL     1       7.441   4.419  -2.203  0.00  0.00    +0.142 HD
ATOM     23  H   UNL     1       7.960   5.487  -3.391  0.00  0.00    +0.142 HD
ENDBRANCH  12  21
ENDBRANCH   2  11
BRANCH   1  24
ATOM     24  C   UNL     1       3.608   2.593   0.273  0.00  0.00    +0.197 C 
BRANCH  24  29
ATOM     25  C   UNL     1      -1.856   1.299   1.636  0.00  0.00    +0.044 C 
ATOM     26  C   UNL     1      -0.431   1.637   1.280  0.00  0.00    -0.050 A 
ATOM     27  C   UNL     1      -0.016   2.955   1.264  0.00  0.00    +0.004 A 
ATOM     28  C   UNL     1       1.291   3.264   0.939  0.00  0.00    +0.006 A 
ATOM     29  C   UNL     1       2.183   2.255   0.628  0.00  0.00    -0.018 A 
ATOM     30  C   UNL     1       1.769   0.937   0.646  0.00  0.00    +0.006 A 
ATOM     31  C   UNL     1       0.462   0.627   0.971  0.00  0.00    +0.004 A 
ENDBRANCH  24  29
BRANCH  24  32
ATOM     32  C   UNL     1       4.270   3.274   1.443  0.00  0.00    +0.239 C 
ATOM     33  O   UNL     1       4.711   4.398   1.321  0.00  0.00    -0.273 OA
ATOM     34  N   UNL     1       4.371   2.636   2.626  0.00  0.00    -0.311 N 
ATOM     35  H   UNL     1       4.019   1.738   2.724  0.00  0.00    +0.149 HD
BRANCH  34  36
ATOM     36  C   UNL     1       5.014   3.299   3.763  0.00  0.00    +0.135 C 
BRANCH  36  37
ATOM     37  C   UNL     1       4.998   2.364   4.974  0.00  0.00    +0.135 C 
ATOM     38  C   UNL     1       5.672   3.052   6.177  0.00  0.00    +0.035 C 
ATOM     39  C   UNL     1       4.575   3.069   7.269  0.00  0.00    +0.031 C 
ATOM     40  C   UNL     1       3.623   1.944   6.789  0.00  0.00    +0.160 C 
ATOM     41  O   UNL     1       3.641   2.077   5.352  0.00  0.00    -0.375 OA
ENDBRANCH  36  37
ENDBRANCH  34  36
ENDBRANCH  24  32
ENDBRANCH   1  24
TORSDOF 9
