REMARK  Name = ZINC15844627
REMARK  7 active torsions:
REMARK  status: ('A' for Active; 'I' for Inactive)
REMARK    1  A    between atoms: C_1  and  C_2
REMARK    2  A    between atoms: C_6  and  N_9
REMARK    3  A    between atoms: C_7  and  C_8
REMARK    4  A    between atoms: N_9  and  C_10
REMARK    5  A    between atoms: C_10  and  N_12
REMARK    6  A    between atoms: N_12  and  N_13
REMARK    7  A    between atoms: C_14  and  C_16
REMARK                            x       y       z     vdW  Elec       q    Type
REMARK                         _______ _______ _______ _____ _____    ______ ____
ROOT
ATOM      1  N   UNL     1      -0.018   5.491  -0.173  0.00  0.00    -0.245 N 
ATOM      2  H   UNL     1      -0.861   5.967  -0.236  0.00  0.00    +0.172 HD
ENDROOT
BRANCH   1   3
ATOM      3  N   UNL     1       1.189   6.201  -0.180  0.00  0.00    -0.230 N 
ATOM      4  C   UNL     1       1.180   7.545  -0.275  0.00  0.00    +0.281 C 
ATOM      5  O   UNL     1       0.123   8.142  -0.354  0.00  0.00    -0.267 OA
ATOM      6  H   UNL     1       2.032   5.725  -0.117  0.00  0.00    +0.173 HD
BRANCH   4   7
ATOM      7  C   UNL     1       2.451   8.292  -0.283  0.00  0.00    +0.156 A 
ATOM      8  C   UNL     1       2.615   9.748  -0.385  0.00  0.00    +0.032 A 
ATOM      9  C   UNL     1       1.759  10.841  -0.486  0.00  0.00    +0.012 A 
ATOM     10  C   UNL     1       2.281  12.102  -0.556  0.00  0.00    +0.001 A 
ATOM     11  C   UNL     1       3.656  12.299  -0.521  0.00  0.00    +0.002 A 
ATOM     12  C   UNL     1       4.514  11.241  -0.417  0.00  0.00    +0.028 A 
ATOM     13  C   UNL     1       4.010   9.946  -0.344  0.00  0.00    +0.066 A 
ATOM     14  N   UNL     1       4.566   8.698  -0.238  0.00  0.00    -0.276 N 
ATOM     15  H   UNL     1       5.549   8.521  -0.191  0.00  0.00    +0.189 HD
ATOM     16  N   UNL     1       3.663   7.787  -0.205  0.00  0.00    -0.168 NA
ENDBRANCH   4   7
ENDBRANCH   1   3
BRANCH   1  17
ATOM     17  C   UNL     1      -0.009   4.146  -0.078  0.00  0.00    +0.151 C 
ATOM     18  S   UNL     1      -1.485   3.279  -0.069  0.00  0.00    -0.017 S 
BRANCH  17  19
ATOM     19  N   UNL     1       1.162   3.485   0.009  0.00  0.00    -0.296 N 
ATOM     20  H   UNL     1       1.993   3.979   0.084  0.00  0.00    +0.154 HD
BRANCH  19  26
ATOM     21  C   UNL     1       2.852  -0.750   1.846  0.00  0.00    +0.044 C 
ATOM     22  C   UNL     1       1.988   0.008   0.871  0.00  0.00    -0.046 A 
ATOM     23  C   UNL     1       1.211  -0.680  -0.043  0.00  0.00    +0.004 A 
ATOM     24  C   UNL     1       0.418   0.012  -0.940  0.00  0.00    +0.002 A 
ATOM     25  C   UNL     1       0.399   1.393  -0.925  0.00  0.00    +0.023 A 
ATOM     26  C   UNL     1       1.178   2.086  -0.008  0.00  0.00    +0.036 A 
ATOM     27  C   UNL     1       1.974   1.388   0.891  0.00  0.00    -0.026 A 
ATOM     28  C   UNL     1       2.821   2.137   1.888  0.00  0.00    +0.046 C 
ENDBRANCH  19  26
ENDBRANCH  17  19
ENDBRANCH   1  17
TORSDOF 5
