REMARK  Name = ZINC38574001
REMARK  9 active torsions:
REMARK  status: ('A' for Active; 'I' for Inactive)
REMARK    1  A    between atoms: C_1  and  C_2
REMARK    2  A    between atoms: C_2  and  C_3
REMARK    3  A    between atoms: C_3  and  N_4
REMARK    4  A    between atoms: C_11  and  O_36
REMARK    5  A    between atoms: C_13  and  C_17
REMARK    6  A    between atoms: N_19  and  N_20
REMARK    7  A    between atoms: C_21  and  C_22
REMARK    8  A    between atoms: C_21  and  C_23
REMARK    9  A    between atoms: C_25  and  O_35
REMARK                            x       y       z     vdW  Elec       q    Type
REMARK                         _______ _______ _______ _____ _____    ______ ____
ROOT
ATOM      1  C   UNL     1       3.239  -4.635   0.450  0.00  0.00    +0.247 C 
ATOM      2  O   UNL     1       3.766  -5.260   1.346  0.00  0.00    -0.273 OA
ATOM      3  N   UNL     1       3.935  -4.339  -0.665  0.00  0.00    -0.206 N 
ATOM      4  H   UNL     1       3.538  -3.780  -1.351  0.00  0.00    +0.177 HD
ENDROOT
BRANCH   1  13
ATOM      5  N   UNL     1       0.723  -2.054   1.226  0.00  0.00    -0.270 N 
ATOM      6  C   UNL     1      -0.311  -2.785   1.820  0.00  0.00    +0.042 A 
ATOM      7  C   UNL     1      -1.533  -2.179   2.082  0.00  0.00    +0.024 A 
ATOM      8  C   UNL     1      -2.550  -2.906   2.668  0.00  0.00    +0.002 A 
ATOM      9  C   UNL     1      -2.353  -4.236   2.994  0.00  0.00    +0.000 A 
ATOM     10  C   UNL     1      -1.137  -4.842   2.735  0.00  0.00    +0.008 A 
ATOM     11  C   UNL     1      -0.117  -4.120   2.149  0.00  0.00    +0.003 A 
ATOM     12  C   UNL     1       1.209  -4.776   1.864  0.00  0.00    +0.167 C 
ATOM     13  C   UNL     1       1.805  -4.191   0.584  0.00  0.00    +0.195 C 
ATOM     14  C   UNL     1       1.750  -2.688   0.630  0.00  0.00    +0.235 C 
ATOM     15  O   UNL     1       2.643  -2.039   0.128  0.00  0.00    -0.274 OA
BRANCH  12  16
ATOM     16  O   UNL     1       2.101  -4.541   2.955  0.00  0.00    -0.386 OA
ATOM     17  H   UNL     1       1.787  -4.887   3.802  0.00  0.00    +0.210 HD
ENDBRANCH  12  16
BRANCH   5  18
ATOM     18  C   UNL     1       0.685  -0.590   1.248  0.00  0.00    +0.113 C 
BRANCH  18  20
ATOM     19  C   UNL     1      -0.092   1.449   0.031  0.00  0.00    +0.005 C 
ATOM     20  C   UNL     1      -0.052  -0.080   0.008  0.00  0.00    +0.016 C 
ENDBRANCH  18  20
ENDBRANCH   5  18
ENDBRANCH   1  13
BRANCH   3  21
ATOM     21  N   UNL     1       5.233  -4.839  -0.835  0.00  0.00    -0.188 NA
ATOM     22  C   UNL     1       5.934  -4.471  -1.840  0.00  0.00    +0.053 C 
ATOM     23  C   UNL     1       7.366  -4.925  -1.967  0.00  0.00    +0.063 C 
BRANCH  22  24
ATOM     24  C   UNL     1       5.329  -3.584  -2.897  0.00  0.00    +0.186 C 
ATOM     25  C   UNL     1       5.082  -4.431  -4.131  0.00  0.00    +0.120 C 
ATOM     26  C   UNL     1       5.701  -4.023  -5.314  0.00  0.00    +0.035 A 
ATOM     27  C   UNL     1       5.524  -4.754  -6.508  0.00  0.00    +0.013 A 
ATOM     28  C   UNL     1       6.138  -4.335  -7.648  0.00  0.00    +0.001 A 
ATOM     29  C   UNL     1       6.939  -3.197  -7.662  0.00  0.00    +0.002 A 
ATOM     30  C   UNL     1       7.147  -2.451  -6.541  0.00  0.00    +0.024 A 
ATOM     31  C   UNL     1       6.544  -2.825  -5.327  0.00  0.00    +0.044 A 
ATOM     32  N   UNL     1       6.749  -2.090  -4.227  0.00  0.00    -0.284 N 
ATOM     33  C   UNL     1       6.221  -2.374  -3.054  0.00  0.00    +0.233 C 
ATOM     34  O   UNL     1       6.452  -1.660  -2.096  0.00  0.00    -0.274 OA
ATOM     35  H   UNL     1       7.318  -1.307  -4.298  0.00  0.00    +0.155 HD
BRANCH  25  36
ATOM     36  O   UNL     1       4.308  -5.520  -4.087  0.00  0.00    -0.509 OA
ATOM     37  H   UNL     1       4.288  -6.022  -4.912  0.00  0.00    +0.292 HD
ENDBRANCH  25  36
ENDBRANCH  22  24
ENDBRANCH   3  21
TORSDOF 7
