REMARK  Name = ZINC39637462
REMARK  5 active torsions:
REMARK  status: ('A' for Active; 'I' for Inactive)
REMARK    1  A    between atoms: C_1  and  C_2
REMARK    2  A    between atoms: C_7  and  N_12
REMARK    3  A    between atoms: C_9  and  C_11
REMARK    4  A    between atoms: C_13  and  C_15
REMARK    5  A    between atoms: C_26  and  C_28
REMARK                            x       y       z     vdW  Elec       q    Type
REMARK                         _______ _______ _______ _____ _____    ______ ____
ROOT
ATOM      1  C   UNL     1      -2.708  -4.700   1.220  0.00  0.00    +0.100 C 
ATOM      2  C   UNL     1      -3.332  -3.740   2.257  0.00  0.00    +0.121 C 
ATOM      3  N   UNL     1      -4.141  -4.615   3.138  0.00  0.00    -0.296 N 
ATOM      4  C   UNL     1      -3.317  -5.836   3.301  0.00  0.00    +0.115 C 
ATOM      5  C   UNL     1      -2.699  -6.074   1.909  0.00  0.00    -0.004 C 
ATOM      6  C   UNL     1      -1.268  -6.587   2.048  0.00  0.00    -0.010 C 
ATOM      7  C   UNL     1      -1.289  -7.980   2.683  0.00  0.00    -0.082 C 
ATOM      8  N   UNL     1      -2.077  -8.890   1.843  0.00  0.00    +0.379 N 
ATOM      9  C   UNL     1      -3.474  -8.441   1.791  0.00  0.00    -0.082 C 
ATOM     10  C   UNL     1      -3.545  -7.068   1.118  0.00  0.00    -0.010 C 
ATOM     11  C   UNL     1      -5.353  -4.359   3.670  0.00  0.00    +0.248 C 
ATOM     12  O   UNL     1      -5.857  -5.150   4.445  0.00  0.00    -0.270 OA
ATOM     13  H   UNL     1      -1.694  -8.902   0.910  0.00  0.00    -0.086 HD
ATOM     14  H   UNL     1      -2.039  -9.821   2.231  0.00  0.00    -0.086 HD
ENDROOT
BRANCH  11  15
ATOM     15  C   UNL     1      -6.064  -3.124   3.314  0.00  0.00    +0.052 A 
ATOM     16  C   UNL     1      -5.395  -1.955   3.143  0.00  0.00    +0.059 A 
ATOM     17  S   UNL     1      -6.569  -0.823   2.752  0.00  0.00    -0.096 S 
ATOM     18  C   UNL     1      -8.016  -1.843   2.796  0.00  0.00    +0.020 A 
ATOM     19  C   UNL     1      -7.517  -3.117   3.128  0.00  0.00    +0.001 A 
ATOM     20  C   UNL     1      -8.448  -4.168   3.235  0.00  0.00    +0.010 A 
ATOM     21  C   UNL     1      -9.784  -3.937   3.015  0.00  0.00    +0.001 A 
ATOM     22  C   UNL     1     -10.250  -2.673   2.685  0.00  0.00    +0.001 A 
ATOM     23  C   UNL     1      -9.360  -1.621   2.583  0.00  0.00    +0.015 A 
ENDBRANCH  11  15
BRANCH   1  25
ATOM     24  N   UNL     1      -0.799  -4.505  -0.342  0.00  0.00    -0.312 N 
ATOM     25  C   UNL     1      -1.302  -4.270   0.887  0.00  0.00    +0.218 C 
ATOM     26  O   UNL     1      -0.624  -3.714   1.724  0.00  0.00    -0.275 OA
ATOM     27  H   UNL     1      -1.342  -4.950  -1.011  0.00  0.00    +0.149 HD
BRANCH  24  33
ATOM     28  C   UNL     1       0.500  -4.982  -4.410  0.00  0.00    +0.008 C 
ATOM     29  C   UNL     1       0.375  -5.190  -2.899  0.00  0.00    -0.009 C 
ATOM     30  C   UNL     1       1.359  -6.272  -2.450  0.00  0.00    +0.003 C 
ATOM     31  C   UNL     1       1.233  -6.480  -0.939  0.00  0.00    +0.002 C 
ATOM     32  C   UNL     1       1.551  -5.170  -0.216  0.00  0.00    +0.022 C 
ATOM     33  C   UNL     1       0.567  -4.087  -0.665  0.00  0.00    +0.076 C 
ATOM     34  C   UNL     1       0.693  -3.879  -2.176  0.00  0.00    +0.009 C 
ATOM     35  C   UNL     1      -0.291  -2.797  -2.625  0.00  0.00    +0.009 C 
ENDBRANCH  24  33
ENDBRANCH   1  25
TORSDOF 3
