REMARK  Name = ZINC21155234
REMARK  12 active torsions:
REMARK  status: ('A' for Active; 'I' for Inactive)
REMARK    1  A    between atoms: C_1  and  C_2
REMARK    2  A    between atoms: C_2  and  C_3
REMARK    3  A    between atoms: C_3  and  C_4
REMARK    4  A    between atoms: N_6  and  C_7
REMARK    5  A    between atoms: C_10  and  S_13
REMARK    6  A    between atoms: S_13  and  N_16
REMARK    7  A    between atoms: N_16  and  C_17
REMARK    8  A    between atoms: C_17  and  C_18
REMARK    9  A    between atoms: C_18  and  C_20
REMARK   10  A    between atoms: C_18  and  N_26
REMARK   11  A    between atoms: N_24  and  C_25
REMARK   12  A    between atoms: N_29  and  C_32
REMARK                            x       y       z     vdW  Elec       q    Type
REMARK                         _______ _______ _______ _____ _____    ______ ____
ROOT
ATOM      1  N   UNL     1      -5.657   4.135   1.275  0.00  0.00    -0.188 NA
ATOM      2  H   UNL     1      -6.408   3.598   1.873  0.00  0.00    +0.148 HD
ENDROOT
BRANCH   1   3
ATOM      3  S   UNL     1      -5.547   3.830  -0.349  0.00  0.00    +0.058 S 
ATOM      4  O   UNL     1      -5.300   5.079  -0.981  0.00  0.00    -0.153 OA
ATOM      5  O   UNL     1      -6.660   3.013  -0.685  0.00  0.00    -0.153 OA
BRANCH   3   9
ATOM      6  C   UNL     1      -1.845   1.301  -0.987  0.00  0.00    +0.033 A 
ATOM      7  C   UNL     1      -1.756   2.686  -1.026  0.00  0.00    +0.025 A 
ATOM      8  C   UNL     1      -2.888   3.455  -0.837  0.00  0.00    +0.030 A 
ATOM      9  C   UNL     1      -4.107   2.846  -0.597  0.00  0.00    +0.105 A 
ATOM     10  C   UNL     1      -4.197   1.467  -0.552  0.00  0.00    +0.030 A 
ATOM     11  C   UNL     1      -3.070   0.693  -0.746  0.00  0.00    +0.025 A 
BRANCH   6  14
ATOM     12  C   UNL     1       0.319   0.993  -1.928  0.00  0.00    +0.217 C 
ATOM     13  O   UNL     1       0.211   2.059  -2.496  0.00  0.00    -0.275 OA
ATOM     14  N   UNL     1      -0.701   0.520  -1.184  0.00  0.00    -0.285 N 
ATOM     15  H   UNL     1      -0.634  -0.481  -0.732  0.00  0.00    +0.155 HD
BRANCH  12  16
ATOM     16  C   UNL     1       1.592   0.197  -2.054  0.00  0.00    +0.096 C 
BRANCH  16  18
ATOM     17  C   UNL     1       3.872   0.144  -3.074  0.00  0.00    +0.004 C 
ATOM     18  C   UNL     1       2.579   0.952  -2.946  0.00  0.00    +0.006 C 
ENDBRANCH  16  18
ENDBRANCH  12  16
ENDBRANCH   6  14
ENDBRANCH   3   9
ENDBRANCH   1   3
BRANCH   1  19
ATOM     19  C   UNL     1      -4.631   4.941   1.940  0.00  0.00    +0.131 C 
BRANCH  19  20
ATOM     20  C   UNL     1      -5.158   5.424   3.293  0.00  0.00    +0.119 C 
BRANCH  20  21
ATOM     21  N   UNL     1      -6.391   6.197   3.090  0.00  0.00    -0.296 NA
ATOM     22  C   UNL     1      -6.133   7.398   2.283  0.00  0.00    +0.066 C 
ATOM     23  C   UNL     1      -7.452   8.131   2.028  0.00  0.00    -0.064 C 
ATOM     24  N   UNL     1      -8.069   8.486   3.314  0.00  0.00    +0.379 N 
ATOM     25  C   UNL     1      -8.327   7.285   4.120  0.00  0.00    -0.064 C 
ATOM     26  C   UNL     1      -7.008   6.552   4.375  0.00  0.00    +0.066 C 
ATOM     27  C   UNL     1      -9.302   9.258   3.111  0.00  0.00    -0.096 C 
ATOM     28  H   UNL     1      -7.361   9.121   3.866  0.00  0.00    -0.082 HD
ENDBRANCH  20  21
BRANCH  20  29
ATOM     29  C   UNL     1      -4.122   6.296   3.954  0.00  0.00    +0.037 A 
ATOM     30  C   UNL     1      -4.317   7.551   4.407  0.00  0.00    +0.024 A 
ATOM     31  C   UNL     1      -3.097   7.998   4.950  0.00  0.00    +0.019 A 
ATOM     32  C   UNL     1      -2.202   7.000   4.808  0.00  0.00    +0.085 A 
ATOM     33  N   UNL     1      -2.827   5.950   4.203  0.00  0.00    -0.352 N 
ATOM     34  C   UNL     1      -2.208   4.664   3.871  0.00  0.00    +0.148 C 
ENDBRANCH  20  29
ENDBRANCH  19  20
ENDBRANCH   1  19
TORSDOF 9
