REMARK  Name = ZINC30978017
REMARK  13 active torsions:
REMARK  status: ('A' for Active; 'I' for Inactive)
REMARK    1  A    between atoms: C_1  and  C_2
REMARK    2  A    between atoms: C_5  and  C_9
REMARK    3  A    between atoms: C_7  and  C_8
REMARK    4  A    between atoms: C_9  and  C_11
REMARK    5  A    between atoms: C_9  and  N_12
REMARK    6  A    between atoms: C_13  and  C_15
REMARK    7  A    between atoms: N_18  and  C_21
REMARK    8  A    between atoms: C_21  and  C_22
REMARK    9  A    between atoms: C_24  and  C_27
REMARK   10  A    between atoms: C_30  and  C_33
REMARK   11  A    between atoms: C_33  and  C_34
REMARK   12  A    between atoms: C_33  and  C_35
REMARK   13  A    between atoms: C_33  and  C_36
REMARK                            x       y       z     vdW  Elec       q    Type
REMARK                         _______ _______ _______ _____ _____    ______ ____
ROOT
ATOM      1  C   UNL     1      -4.250   1.396   2.391  0.00  0.00    +0.071 C 
ATOM      2  C   UNL     1      -4.952   0.273   1.621  0.00  0.00    -0.006 C 
ATOM      3  C   UNL     1      -5.975  -0.404   2.537  0.00  0.00    -0.077 C 
ATOM      4  N   UNL     1      -6.956   0.588   2.995  0.00  0.00    +0.386 N 
ATOM      5  C   UNL     1      -6.312   1.651   3.776  0.00  0.00    -0.077 C 
ATOM      6  C   UNL     1      -5.299   2.389   2.898  0.00  0.00    -0.006 C 
ATOM      7  H   UNL     1      -7.405   1.052   2.104  0.00  0.00    -0.081 HD
ENDROOT
BRANCH   1   9
ATOM      8  N   UNL     1      -2.270   1.424   0.908  0.00  0.00    -0.309 N 
ATOM      9  C   UNL     1      -3.285   2.105   1.476  0.00  0.00    +0.216 C 
ATOM     10  O   UNL     1      -3.421   3.289   1.252  0.00  0.00    -0.276 OA
ATOM     11  H   UNL     1      -2.147   0.350   1.112  0.00  0.00    +0.149 HD
BRANCH   8  12
ATOM     12  C   UNL     1      -1.332   2.114   0.020  0.00  0.00    +0.100 C 
ATOM     13  C   UNL     1      -1.906   2.152  -1.398  0.00  0.00    +0.033 C 
BRANCH  12  18
ATOM     14  C   UNL     1       3.711  -0.707  -0.039  0.00  0.00    +0.044 C 
ATOM     15  C   UNL     1       2.396   0.029  -0.022  0.00  0.00    -0.048 A 
ATOM     16  C   UNL     1       1.208  -0.679  -0.014  0.00  0.00    +0.004 A 
ATOM     17  C   UNL     1       0.002  -0.004   0.002  0.00  0.00    +0.006 A 
ATOM     18  C   UNL     1      -0.017   1.378   0.010  0.00  0.00    -0.027 A 
ATOM     19  C   UNL     1       1.171   2.086   0.002  0.00  0.00    +0.009 A 
ATOM     20  C   UNL     1       2.377   1.411  -0.014  0.00  0.00    -0.047 A 
ATOM     21  C   UNL     1       3.672   2.182  -0.023  0.00  0.00    +0.044 C 
ENDBRANCH  12  18
ENDBRANCH   8  12
ENDBRANCH   1   9
BRANCH   4  22
ATOM     22  C   UNL     1      -8.032  -0.052   3.764  0.00  0.00    +0.022 C 
BRANCH  22  23
ATOM     23  C   UNL     1      -8.826  -0.958   2.858  0.00  0.00    +0.211 A 
ATOM     24  N   UNL     1      -8.592  -2.226   2.626  0.00  0.00    -0.193 NA
ATOM     25  C   UNL     1      -9.552  -2.620   1.760  0.00  0.00    +0.202 A 
ATOM     26  N   UNL     1     -10.306  -1.579   1.519  0.00  0.00    -0.056 NA
ATOM     27  O   UNL     1      -9.905  -0.621   2.145  0.00  0.00    -0.340 OA
BRANCH  25  28
ATOM     28  C   UNL     1      -9.719  -3.980   1.189  0.00  0.00    +0.022 A 
ATOM     29  C   UNL     1      -8.831  -4.997   1.533  0.00  0.00    +0.012 A 
ATOM     30  C   UNL     1      -8.994  -6.261   1.003  0.00  0.00    +0.005 A 
ATOM     31  C   UNL     1     -10.031  -6.516   0.124  0.00  0.00    -0.042 A 
ATOM     32  C   UNL     1     -10.912  -5.509  -0.225  0.00  0.00    +0.005 A 
ATOM     33  C   UNL     1     -10.762  -4.243   0.302  0.00  0.00    +0.012 A 
BRANCH  31  34
ATOM     34  C   UNL     1     -10.200  -7.896  -0.457  0.00  0.00    -0.013 C 
ATOM     35  C   UNL     1     -10.097  -7.825  -1.982  0.00  0.00    +0.015 C 
ATOM     36  C   UNL     1      -9.104  -8.816   0.086  0.00  0.00    +0.015 C 
ATOM     37  C   UNL     1     -11.571  -8.450  -0.064  0.00  0.00    +0.015 C 
ENDBRANCH  31  34
ENDBRANCH  25  28
ENDBRANCH  22  23
ENDBRANCH   4  22
TORSDOF 7
