REMARK  Name = ZINC61830744
REMARK  7 active torsions:
REMARK  status: ('A' for Active; 'I' for Inactive)
REMARK    1  A    between atoms: C_1  and  C_2
REMARK    2  A    between atoms: C_2  and  C_4
REMARK    3  A    between atoms: C_2  and  C_21
REMARK    4  A    between atoms: C_4  and  C_5
REMARK    5  A    between atoms: C_5  and  C_7
REMARK    6  A    between atoms: C_5  and  N_20
REMARK    7  A    between atoms: C_21  and  C_22
REMARK                            x       y       z     vdW  Elec       q    Type
REMARK                         _______ _______ _______ _____ _____    ______ ____
ROOT
ATOM      1  C   UNL     1      -2.050  -0.348  -1.381  0.00  0.00    -0.043 C 
ENDROOT
BRANCH   1   2
ATOM      2  C   UNL     1      -3.370  -1.006  -1.693  0.00  0.00    -0.046 A 
ATOM      3  C   UNL     1      -4.532  -0.260  -1.677  0.00  0.00    +0.031 A 
ATOM      4  C   UNL     1      -5.745  -0.865  -1.964  0.00  0.00    +0.067 A 
ATOM      5  C   UNL     1      -5.788  -2.228  -2.268  0.00  0.00    +0.068 A 
ATOM      6  C   UNL     1      -4.617  -2.969  -2.283  0.00  0.00    +0.043 A 
ATOM      7  C   UNL     1      -3.411  -2.356  -2.000  0.00  0.00    +0.022 A 
ATOM      8 BR   UNL     1      -1.812  -3.365  -2.027  0.00  0.00    -0.050 Br
ATOM      9  N   UNL     1      -7.123  -2.544  -2.508  0.00  0.00    -0.306 N 
ATOM     10  H   UNL     1      -7.465  -3.421  -2.744  0.00  0.00    +0.170 HD
ATOM     11  C   UNL     1      -7.859  -1.427  -2.356  0.00  0.00    +0.325 A 
ATOM     12  O   UNL     1      -9.066  -1.358  -2.494  0.00  0.00    -0.247 OA
ATOM     13  N   UNL     1      -7.056  -0.397  -2.028  0.00  0.00    -0.306 N 
ATOM     14  H   UNL     1      -7.341   0.515  -1.863  0.00  0.00    +0.170 HD
ENDBRANCH   1   2
BRANCH   1  15
ATOM     15  N   UNL     1      -2.174   1.105  -1.559  0.00  0.00    +0.383 N 
ATOM     16  H   UNL     1      -2.804   1.477  -0.865  0.00  0.00    -0.089 HD
ATOM     17  H   UNL     1      -1.267   1.534  -1.455  0.00  0.00    -0.089 HD
ATOM     18  H   UNL     1      -2.534   1.301  -2.481  0.00  0.00    -0.089 HD
ENDBRANCH   1  15
BRANCH   1  19
ATOM     19  C   UNL     1      -1.659  -0.652   0.067  0.00  0.00    -0.008 C 
BRANCH  19  21
ATOM     20  C   UNL     1       0.067  -0.263   1.831  0.00  0.00    +0.008 C 
ATOM     21  C   UNL     1      -0.266  -0.086   0.348  0.00  0.00    -0.007 C 
BRANCH  21  22
ATOM     22  C   UNL     1       0.768  -0.830  -0.499  0.00  0.00    +0.098 C 
BRANCH  22  23
ATOM     23  C   UNL     1       2.121  -0.192  -0.315  0.00  0.00    +0.211 C 
ATOM     24  O   UNL     1       2.246   0.764   0.421  0.00  0.00    -0.276 OA
ATOM     25  N   UNL     1       3.193  -0.684  -0.969  0.00  0.00    -0.329 N 
ATOM     26  H   UNL     1       3.093  -1.448  -1.558  0.00  0.00    +0.145 HD
ATOM     27  H   UNL     1       4.064  -0.273  -0.851  0.00  0.00    +0.145 HD
ENDBRANCH  22  23
ENDBRANCH  21  22
ENDBRANCH  19  21
ENDBRANCH   1  19
TORSDOF 6
