REMARK  Name = ZINC03309560
REMARK  7 active torsions:
REMARK  status: ('A' for Active; 'I' for Inactive)
REMARK    1  A    between atoms: C_1  and  C_2
REMARK    2  A    between atoms: C_5  and  N_9
REMARK    3  A    between atoms: C_6  and  C_8
REMARK    4  A    between atoms: C_13  and  S_15
REMARK    5  A    between atoms: S_15  and  C_16
REMARK    6  A    between atoms: C_16  and  C_17
REMARK    7  A    between atoms: C_20  and  C_22
REMARK                            x       y       z     vdW  Elec       q    Type
REMARK                         _______ _______ _______ _____ _____    ______ ____
ROOT
ATOM      1  C   UNL     1      -0.412  -7.053  -6.066  0.00  0.00    +0.172 C 
ENDROOT
BRANCH   1   2
ATOM      2  C   UNL     1      -0.531  -8.084  -7.158  0.00  0.00    +0.230 C 
ATOM      3  O   UNL     1      -0.597  -9.261  -6.875  0.00  0.00    -0.274 OA
ATOM      4  N   UNL     1      -0.564  -7.699  -8.449  0.00  0.00    -0.253 N 
ATOM      5  C   UNL     1      -0.670  -8.621  -9.425  0.00  0.00    +0.263 C 
ATOM      6  O   UNL     1      -0.736  -9.798  -9.143  0.00  0.00    -0.271 OA
ATOM      7  H   UNL     1      -0.511  -6.757  -8.675  0.00  0.00    +0.158 HD
BRANCH   5   8
ATOM      8  C   UNL     1      -0.707  -8.190 -10.869  0.00  0.00    +0.296 C 
ATOM      9  C   UNL     1      -1.985  -7.383 -11.135  0.00  0.00    +0.283 C 
ATOM     10  O   UNL     1      -1.994  -7.002 -12.515  0.00  0.00    -0.484 OA
ATOM     11  C   UNL     1      -1.690  -7.972 -13.420  0.00  0.00    +0.162 A 
ATOM     12  C   UNL     1      -2.025  -7.789 -14.753  0.00  0.00    +0.049 A 
ATOM     13  C   UNL     1      -1.719  -8.764 -15.684  0.00  0.00    +0.004 A 
ATOM     14  C   UNL     1      -1.079  -9.924 -15.289  0.00  0.00    +0.004 A 
ATOM     15  C   UNL     1      -0.744 -10.113 -13.961  0.00  0.00    +0.049 A 
ATOM     16  C   UNL     1      -1.049  -9.139 -13.022  0.00  0.00    +0.163 A 
ATOM     17  O   UNL     1      -0.719  -9.343 -11.717  0.00  0.00    -0.473 OA
ENDBRANCH   5   8
ENDBRANCH   1   2
BRANCH   1  18
ATOM     18  S   UNL     1      -0.394  -7.880  -4.452  0.00  0.00    -0.088 S 
BRANCH  18  23
ATOM     19  N   UNL     1       0.058  -4.168  -0.021  0.00  0.00    -0.292 N 
ATOM     20  C   UNL     1      -0.044  -4.858  -1.224  0.00  0.00    +0.187 A 
ATOM     21  N   UNL     1      -0.069  -4.389  -2.456  0.00  0.00    -0.125 NA
ATOM     22  N   UNL     1      -0.176  -5.259  -3.517  0.00  0.00    -0.133 NA
ATOM     23  C   UNL     1      -0.252  -6.557  -3.296  0.00  0.00    +0.160 A 
ATOM     24  S   UNL     1      -0.167  -6.616  -1.513  0.00  0.00    -0.024 S 
ATOM     25  H   UNL     1      -0.021  -4.645   0.820  0.00  0.00    +0.154 HD
BRANCH  19  30
ATOM     26  C   UNL     1       0.936   1.435  -0.032  0.00  0.00    +0.044 C 
ATOM     27  C   UNL     1       0.703  -0.054  -0.029  0.00  0.00    -0.050 A 
ATOM     28  C   UNL     1       0.799  -0.770  -1.208  0.00  0.00    +0.005 A 
ATOM     29  C   UNL     1       0.586  -2.134  -1.209  0.00  0.00    +0.024 A 
ATOM     30  C   UNL     1       0.275  -2.788  -0.024  0.00  0.00    +0.036 A 
ATOM     31  C   UNL     1       0.179  -2.066   1.159  0.00  0.00    -0.029 A 
ATOM     32  C   UNL     1       0.399  -0.702   1.154  0.00  0.00    +0.008 A 
ATOM     33  C   UNL     1      -0.159  -2.770   2.448  0.00  0.00    +0.045 C 
ENDBRANCH  19  30
ENDBRANCH  18  23
ENDBRANCH   1  18
TORSDOF 5
