REMARK  Name = ZINC33139392
REMARK  7 active torsions:
REMARK  status: ('A' for Active; 'I' for Inactive)
REMARK    1  A    between atoms: C_1  and  C_2
REMARK    2  A    between atoms: C_4  and  C_37
REMARK    3  A    between atoms: C_6  and  N_8
REMARK    4  A    between atoms: C_9  and  C_17
REMARK    5  A    between atoms: C_17  and  N_18
REMARK    6  A    between atoms: N_21  and  S_24
REMARK    7  A    between atoms: S_24  and  C_27
REMARK                            x       y       z     vdW  Elec       q    Type
REMARK                         _______ _______ _______ _____ _____    ______ ____
ROOT
ATOM      1  C   UNL     1       1.179   3.563   5.715  0.00  0.00    +0.157 C 
ENDROOT
BRANCH   1   3
ATOM      2  N   UNL     1      -0.545   4.792   7.131  0.00  0.00    -0.281 N 
ATOM      3  C   UNL     1      -0.172   3.729   6.363  0.00  0.00    +0.108 A 
ATOM      4  N   UNL     1      -1.151   2.877   6.274  0.00  0.00    -0.341 N 
ATOM      5  C   UNL     1      -2.219   3.337   6.974  0.00  0.00    +0.084 A 
ATOM      6  C   UNL     1      -1.848   4.574   7.532  0.00  0.00    +0.163 A 
ATOM      7  N   UNL     1      -2.705   5.257   8.273  0.00  0.00    -0.236 NA
ATOM      8  C   UNL     1      -3.920   4.808   8.514  0.00  0.00    +0.113 A 
ATOM      9  C   UNL     1      -4.356   3.598   7.999  0.00  0.00    +0.022 A 
ATOM     10  C   UNL     1      -3.503   2.842   7.217  0.00  0.00    +0.031 A 
ATOM     11  H   UNL     1      -1.024   1.952   5.693  0.00  0.00    +0.167 HD
BRANCH   2  17
ATOM     12  C   UNL     1       3.399   6.667   9.394  0.00  0.00    +0.044 C 
ATOM     13  C   UNL     1       2.163   6.839   8.548  0.00  0.00    -0.048 A 
ATOM     14  C   UNL     1       1.811   8.095   8.088  0.00  0.00    +0.006 A 
ATOM     15  C   UNL     1       0.678   8.257   7.312  0.00  0.00    -0.048 A 
ATOM     16  C   UNL     1      -0.105   7.164   6.993  0.00  0.00    +0.029 A 
ATOM     17  C   UNL     1       0.247   5.902   7.453  0.00  0.00    +0.050 A 
ATOM     18  C   UNL     1       1.382   5.743   8.236  0.00  0.00    +0.029 A 
ATOM     19  C   UNL     1       0.297   9.627   6.814  0.00  0.00    +0.044 C 
ENDBRANCH   2  17
ENDBRANCH   1   3
BRANCH   1  20
ATOM     20  N   UNL     1       1.155   4.159   4.373  0.00  0.00    -0.293 NA
ATOM     21  C   UNL     1       2.369   3.812   3.622  0.00  0.00    +0.102 C 
ATOM     22  C   UNL     1       2.391   4.595   2.304  0.00  0.00    +0.125 C 
ATOM     23  N   UNL     1       1.127   4.347   1.593  0.00  0.00    -0.174 NA
ATOM     24  C   UNL     1      -0.133   4.547   2.324  0.00  0.00    +0.125 C 
ATOM     25  C   UNL     1      -0.056   3.761   3.642  0.00  0.00    +0.102 C 
BRANCH  23  26
ATOM     26  S   UNL     1       1.124   3.864   0.009  0.00  0.00    +0.061 S 
ATOM     27  O   UNL     1       2.356   4.298  -0.551  0.00  0.00    -0.153 OA
ATOM     28  O   UNL     1      -0.134   4.245  -0.530  0.00  0.00    -0.153 OA
BRANCH  26  29
ATOM     29  C   UNL     1       1.161   2.102   0.002  0.00  0.00    +0.106 A 
ATOM     30  C   UNL     1       2.372   1.434  -0.011  0.00  0.00    +0.029 A 
ATOM     31  C   UNL     1       2.393   0.055  -0.019  0.00  0.00    +0.006 A 
ATOM     32  C   UNL     1       1.207  -0.669  -0.015  0.00  0.00    -0.044 A 
ATOM     33  C   UNL     1       0.002  -0.004   0.002  0.00  0.00    -0.042 A 
ATOM     34  C   UNL     1      -0.017   1.385   0.010  0.00  0.00    +0.032 A 
ATOM     35  C   UNL     1      -1.321  -0.724   0.018  0.00  0.00    +0.035 C 
ATOM     36  C   UNL     1      -1.148  -2.176  -0.422  0.00  0.00    +0.005 C 
ATOM     37  C   UNL     1      -0.019  -2.800   0.405  0.00  0.00    +0.005 C 
ATOM     38  C   UNL     1       1.303  -2.173  -0.032  0.00  0.00    +0.035 C 
ENDBRANCH  26  29
ENDBRANCH  23  26
ENDBRANCH   1  20
TORSDOF 5
