REMARK  Name = ZINC29165464
REMARK  14 active torsions:
REMARK  status: ('A' for Active; 'I' for Inactive)
REMARK    1  A    between atoms: C_1  and  C_2
REMARK    2  A    between atoms: C_2  and  N_3
REMARK    3  A    between atoms: N_3  and  C_4
REMARK    4  A    between atoms: N_3  and  C_6
REMARK    5  A    between atoms: C_4  and  C_5
REMARK    6  A    between atoms: C_6  and  C_8
REMARK    7  A    between atoms: C_6  and  C_29
REMARK    8  A    between atoms: C_8  and  N_9
REMARK    9  A    between atoms: C_10  and  C_12
REMARK   10  A    between atoms: C_12  and  N_13
REMARK   11  A    between atoms: C_16  and  C_20
REMARK   12  A    between atoms: C_16  and  C_21
REMARK   13  A    between atoms: C_24  and  O_27
REMARK   14  A    between atoms: O_27  and  C_28
REMARK                            x       y       z     vdW  Elec       q    Type
REMARK                         _______ _______ _______ _____ _____    ______ ____
ROOT
ATOM      1  N   UNL     1       4.223   1.934   5.073  0.00  0.00    -0.315 N 
ATOM      2  C   UNL     1       3.700   1.402   3.950  0.00  0.00    +0.231 C 
ATOM      3  O   UNL     1       4.433   0.957   3.093  0.00  0.00    -0.274 OA
ATOM      4  H   UNL     1       3.559   2.263   5.886  0.00  0.00    +0.149 HD
ENDROOT
BRANCH   1   5
ATOM      5  C   UNL     1       5.674   2.074   5.211  0.00  0.00    +0.093 C 
BRANCH   5   6
ATOM      6  C   UNL     1       6.007   2.583   6.615  0.00  0.00    -0.020 C 
BRANCH   6   7
ATOM      7  C   UNL     1       7.500   2.570   6.814  0.00  0.00    -0.059 A 
ATOM      8  C   UNL     1       8.239   1.468   6.427  0.00  0.00    +0.002 A 
ATOM      9  C   UNL     1       9.610   1.458   6.605  0.00  0.00    +0.000 A 
ATOM     10  C   UNL     1      10.241   2.546   7.179  0.00  0.00    +0.000 A 
ATOM     11  C   UNL     1       9.501   3.646   7.570  0.00  0.00    +0.000 A 
ATOM     12  C   UNL     1       8.131   3.658   7.388  0.00  0.00    +0.002 A 
ENDBRANCH   6   7
BRANCH   6  13
ATOM     13  N   UNL     1       5.372   1.713   7.614  0.00  0.00    +0.385 N 
ATOM     14  H   UNL     1       4.443   1.318   7.178  0.00  0.00    -0.081 HD
BRANCH  13  16
ATOM     15  C   UNL     1       6.050  -0.528   6.897  0.00  0.00    -0.017 C 
ATOM     16  C   UNL     1       6.237   0.572   7.944  0.00  0.00    -0.081 C 
ENDBRANCH  13  16
BRANCH  13  17
ATOM     17  C   UNL     1       5.017   2.470   8.822  0.00  0.00    -0.081 C 
ATOM     18  C   UNL     1       3.797   3.347   8.534  0.00  0.00    -0.017 C 
ENDBRANCH  13  17
ENDBRANCH   6  13
ENDBRANCH   5   6
ENDBRANCH   1   5
BRANCH   2  19
ATOM     19  C   UNL     1       2.206   1.361   3.760  0.00  0.00    +0.213 C 
BRANCH  19  20
ATOM     20  N   UNL     1       1.898   0.853   2.421  0.00  0.00    -0.215 N 
ATOM     21  C   UNL     1       1.716  -0.451   2.130  0.00  0.00    +0.251 C 
ATOM     22  O   UNL     1       1.775  -1.387   2.897  0.00  0.00    -0.272 OA
ATOM     23  C   UNL     1       1.423  -0.501   0.643  0.00  0.00    +0.135 C 
ATOM     24  N   UNL     1       1.478   0.912   0.231  0.00  0.00    -0.281 N 
ATOM     25  C   UNL     1       1.761   1.625   1.337  0.00  0.00    +0.310 C 
ATOM     26  O   UNL     1       1.880   2.834   1.349  0.00  0.00    -0.252 OA
ATOM     27  C   UNL     1       2.490  -1.317  -0.089  0.00  0.00    +0.047 C 
ATOM     28  H   UNL     1       1.301   1.186  -0.819  0.00  0.00    +0.152 HD
BRANCH  23  29
ATOM     29  C   UNL     1       0.052  -1.076   0.393  0.00  0.00    -0.015 A 
ATOM     30  C   UNL     1      -0.459  -2.038   1.244  0.00  0.00    +0.010 A 
ATOM     31  C   UNL     1      -1.716  -2.563   1.020  0.00  0.00    +0.046 A 
ATOM     32  C   UNL     1      -2.462  -2.132  -0.068  0.00  0.00    +0.120 A 
ATOM     33  C   UNL     1      -1.945  -1.171  -0.924  0.00  0.00    +0.046 A 
ATOM     34  C   UNL     1      -0.689  -0.645  -0.692  0.00  0.00    +0.010 A 
BRANCH  32  35
ATOM     35  O   UNL     1      -3.698  -2.652  -0.294  0.00  0.00    -0.495 OA
ATOM     36  C   UNL     1      -4.166  -3.637   0.629  0.00  0.00    +0.277 C 
ENDBRANCH  32  35
ENDBRANCH  23  29
ENDBRANCH  19  20
ENDBRANCH   2  19
TORSDOF 10
