REMARK  Name = ZINC48571970
REMARK  11 active torsions:
REMARK  status: ('A' for Active; 'I' for Inactive)
REMARK    1  A    between atoms: C_1  and  C_2
REMARK    2  A    between atoms: C_2  and  O_3
REMARK    3  A    between atoms: O_3  and  C_4
REMARK    4  A    between atoms: C_7  and  C_10
REMARK    5  A    between atoms: N_12  and  C_13
REMARK    6  A    between atoms: C_13  and  C_14
REMARK    7  A    between atoms: N_16  and  N_17
REMARK    8  A    between atoms: C_18  and  C_19
REMARK    9  A    between atoms: N_21  and  C_31
REMARK   10  A    between atoms: C_23  and  C_24
REMARK   11  A    between atoms: C_27  and  C_30
REMARK                            x       y       z     vdW  Elec       q    Type
REMARK                         _______ _______ _______ _____ _____    ______ ____
ROOT
ATOM      1  N   UNL     1      -6.640  -9.993   0.159  0.00  0.00    -0.188 NA
ATOM      2  C   UNL     1      -7.031 -11.214  -0.040  0.00  0.00    +0.142 C 
ENDROOT
BRANCH   2   3
ATOM      3  C   UNL     1      -8.468 -11.540  -0.018  0.00  0.00    +0.040 A 
ATOM      4  C   UNL     1      -9.025 -12.787  -0.107  0.00  0.00    +0.124 A 
ATOM      5  N   UNL     1     -10.366 -12.650  -0.048  0.00  0.00    -0.239 N 
ATOM      6  N   UNL     1     -10.691 -11.296   0.080  0.00  0.00    -0.166 NA
ATOM      7  C   UNL     1      -9.579 -10.593   0.108  0.00  0.00    +0.102 A 
BRANCH   7   8
ATOM      8  C   UNL     1      -9.471  -9.120   0.238  0.00  0.00    +0.003 A 
ATOM      9  C   UNL     1      -8.595  -8.408  -0.579  0.00  0.00    +0.010 A 
ATOM     10  C   UNL     1      -8.498  -7.037  -0.453  0.00  0.00    +0.004 A 
ATOM     11  C   UNL     1      -9.269  -6.370   0.482  0.00  0.00    -0.050 A 
ATOM     12  C   UNL     1     -10.140  -7.072   1.296  0.00  0.00    +0.004 A 
ATOM     13  C   UNL     1     -10.249  -8.442   1.175  0.00  0.00    +0.010 A 
ATOM     14  C   UNL     1      -9.158  -4.873   0.615  0.00  0.00    +0.044 C 
ENDBRANCH   7   8
BRANCH   5  15
ATOM     15  C   UNL     1     -11.289 -13.701  -0.107  0.00  0.00    +0.065 A 
ATOM     16  C   UNL     1     -10.845 -15.011  -0.230  0.00  0.00    +0.028 A 
ATOM     17  C   UNL     1     -11.758 -16.046  -0.287  0.00  0.00    +0.002 A 
ATOM     18  C   UNL     1     -13.114 -15.778  -0.222  0.00  0.00    +0.000 A 
ATOM     19  C   UNL     1     -13.559 -14.475  -0.100  0.00  0.00    +0.002 A 
ATOM     20  C   UNL     1     -12.651 -13.437  -0.036  0.00  0.00    +0.028 A 
ENDBRANCH   5  15
ENDBRANCH   2   3
BRANCH   1  23
ATOM     21  C   UNL     1      -4.867  -8.415   0.346  0.00  0.00    +0.249 C 
ATOM     22  O   UNL     1      -5.684  -7.542   0.549  0.00  0.00    -0.272 OA
ATOM     23  N   UNL     1      -5.274  -9.683   0.139  0.00  0.00    -0.206 N 
ATOM     24  H   UNL     1      -4.620 -10.382  -0.024  0.00  0.00    +0.177 HD
BRANCH  21  25
ATOM     25  C   UNL     1      -3.397  -8.082   0.324  0.00  0.00    +0.202 C 
BRANCH  25  28
ATOM     26  C   UNL     1      -1.979  -6.120   0.599  0.00  0.00    +0.244 C 
ATOM     27  O   UNL     1      -1.010  -6.831   0.416  0.00  0.00    -0.270 OA
ATOM     28  N   UNL     1      -3.218  -6.649   0.573  0.00  0.00    -0.303 N 
ATOM     29  H   UNL     1      -3.991  -6.082   0.719  0.00  0.00    +0.150 HD
BRANCH  26  33
ATOM     30  C   UNL     1      -1.458  -1.967   1.320  0.00  0.00    +0.121 A 
ATOM     31  C   UNL     1      -0.349  -2.779   1.112  0.00  0.00    +0.046 A 
ATOM     32  C   UNL     1      -0.514  -4.126   0.878  0.00  0.00    +0.016 A 
ATOM     33  C   UNL     1      -1.798  -4.677   0.850  0.00  0.00    +0.037 A 
ATOM     34  C   UNL     1      -2.910  -3.857   1.060  0.00  0.00    +0.016 A 
ATOM     35  C   UNL     1      -2.737  -2.512   1.298  0.00  0.00    +0.046 A 
BRANCH  30  36
ATOM     36  O   UNL     1      -1.292  -0.640   1.550  0.00  0.00    -0.492 OA
BRANCH  36  38
ATOM     37  C   UNL     1       0.036   1.359   1.832  0.00  0.00    +0.048 C 
ATOM     38  C   UNL     1       0.049  -0.147   1.559  0.00  0.00    +0.225 C 
ENDBRANCH  36  38
ENDBRANCH  30  36
ENDBRANCH  26  33
ENDBRANCH  25  28
ENDBRANCH  21  25
ENDBRANCH   1  23
TORSDOF 9
