REMARK  Name = ZINC05376752
REMARK  4 active torsions:
REMARK  status: ('A' for Active; 'I' for Inactive)
REMARK    1  A    between atoms: C_3  and  C_6
REMARK    2  A    between atoms: C_7  and  C_8
REMARK    3  A    between atoms: C_13  and  N_15
REMARK    4  A    between atoms: N_15  and  C_16
REMARK                            x       y       z     vdW  Elec       q    Type
REMARK                         _______ _______ _______ _____ _____    ______ ____
ROOT
ATOM      1  C   UNL     1       5.603  -0.726  -1.131  0.00  0.00    +0.020 C 
ATOM      2  C   UNL     1       6.248  -1.911  -0.847  0.00  0.00    +0.079 C 
ATOM      3  C   UNL     1       5.688  -3.245  -0.555  0.00  0.00    +0.276 C 
ATOM      4  O   UNL     1       4.483  -3.447  -0.536  0.00  0.00    -0.267 OA
ATOM      5  N   UNL     1       6.555  -4.205  -0.317  0.00  0.00    -0.152 NA
ATOM      6  C   UNL     1       7.862  -4.000  -0.335  0.00  0.00    +0.175 C 
ATOM      7  S   UNL     1       7.997  -2.265  -0.735  0.00  0.00    -0.050 S 
ENDROOT
BRANCH   1   9
ATOM      8  C   UNL     1       3.565   0.489  -1.448  0.00  0.00    +0.046 C 
ATOM      9  C   UNL     1       4.202  -0.681  -1.167  0.00  0.00    +0.005 C 
BRANCH   8  12
ATOM     10  C   UNL     1       0.042   1.232  -1.682  0.00  0.00    +0.042 A 
ATOM     11  C   UNL     1       1.380   1.648  -1.754  0.00  0.00    +0.049 A 
ATOM     12  C   UNL     1       2.153   0.535  -1.483  0.00  0.00    +0.128 A 
ATOM     13  O   UNL     1       1.317  -0.501  -1.259  0.00  0.00    -0.464 OA
ATOM     14  C   UNL     1       0.048  -0.085  -1.378  0.00  0.00    +0.195 A 
ENDBRANCH   8  12
ENDBRANCH   1   9
BRANCH   6  15
ATOM     15  N   UNL     1       8.870  -4.904  -0.107  0.00  0.00    -0.190 NA
BRANCH  15  16
ATOM     16  C   UNL     1       8.578  -6.268  -0.011  0.00  0.00    +0.074 A 
ATOM     17  C   UNL     1       7.431  -6.778  -0.605  0.00  0.00    +0.028 A 
ATOM     18  C   UNL     1       7.144  -8.125  -0.508  0.00  0.00    +0.022 A 
ATOM     19  C   UNL     1       7.999  -8.969   0.180  0.00  0.00    +0.042 A 
ATOM     20  C   UNL     1       9.143  -8.465   0.773  0.00  0.00    +0.042 A 
ATOM     21  C   UNL     1       9.438  -7.118   0.675  0.00  0.00    +0.065 A 
ATOM     22 CL   UNL     1      10.877  -6.487   1.413  0.00  0.00    -0.082 Cl
ATOM     23 CL   UNL     1       7.636 -10.662   0.299  0.00  0.00    -0.083 Cl
ENDBRANCH  15  16
ENDBRANCH   6  15
TORSDOF 4
