REMARK  Name = ZINC43734710
REMARK  7 active torsions:
REMARK  status: ('A' for Active; 'I' for Inactive)
REMARK    1  A    between atoms: C_1  and  C_2
REMARK    2  A    between atoms: C_2  and  C_4
REMARK    3  A    between atoms: C_2  and  S_18
REMARK    4  A    between atoms: C_4  and  C_6
REMARK    5  A    between atoms: C_6  and  C_16
REMARK    6  A    between atoms: S_18  and  C_19
REMARK    7  A    between atoms: C_22  and  C_24
REMARK                            x       y       z     vdW  Elec       q    Type
REMARK                         _______ _______ _______ _____ _____    ______ ____
ROOT
ATOM      1  C   UNL     1      -0.019   1.526   0.010  0.00  0.00    +0.028 C 
ATOM      2  C   UNL     1       0.002  -0.004   0.002  0.00  0.00    +0.124 C 
ENDROOT
BRANCH   2   3
ATOM      3  C   UNL     1       0.731  -0.503   1.223  0.00  0.00    +0.189 C 
ATOM      4  O   UNL     1       0.107  -0.806   2.222  0.00  0.00    -0.290 OA
BRANCH   3   5
ATOM      5  C   UNL     1       2.131  -0.618   1.207  0.00  0.00    +0.123 C 
ATOM      6  C   UNL     1       2.811  -1.085   2.347  0.00  0.00    +0.091 C 
ATOM      7  N   UNL     1       2.279  -1.469   3.534  0.00  0.00    -0.307 N 
ATOM      8  C   UNL     1       3.108  -1.903   4.551  0.00  0.00    +0.046 A 
ATOM      9  C   UNL     1       2.773  -2.340   5.840  0.00  0.00    +0.024 A 
ATOM     10  C   UNL     1       3.752  -2.737   6.721  0.00  0.00    +0.002 A 
ATOM     11  C   UNL     1       5.090  -2.717   6.363  0.00  0.00    +0.001 A 
ATOM     12  C   UNL     1       5.447  -2.290   5.096  0.00  0.00    +0.017 A 
ATOM     13  C   UNL     1       4.469  -1.893   4.215  0.00  0.00    +0.035 A 
ATOM     14  S   UNL     1       4.467  -1.298   2.544  0.00  0.00    -0.071 S 
ATOM     15  H   UNL     1       1.319  -1.439   3.670  0.00  0.00    +0.153 HD
BRANCH   5  16
ATOM     16  C   UNL     1       2.865  -0.261   0.031  0.00  0.00    +0.105 C 
ATOM     17  N   UNL     1       3.448   0.022  -0.902  0.00  0.00    -0.191 NA
ENDBRANCH   5  16
ENDBRANCH   3   5
ENDBRANCH   2   3
BRANCH   2  18
ATOM     18  S   UNL     1      -1.700  -0.632   0.015  0.00  0.00    -0.054 S 
BRANCH  18  19
ATOM     19  C   UNL     1      -2.365  -0.093  -1.525  0.00  0.00    +0.278 A 
ATOM     20  N   UNL     1      -1.733   0.597  -2.444  0.00  0.00    -0.101 NA
ATOM     21  N   UNL     1      -2.522   0.813  -3.437  0.00  0.00    -0.106 NA
ATOM     22  C   UNL     1      -3.690   0.270  -3.191  0.00  0.00    +0.251 A 
ATOM     23  O   UNL     1      -3.614  -0.320  -1.978  0.00  0.00    -0.411 OA
BRANCH  22  24
ATOM     24  C   UNL     1      -4.869   0.294  -4.078  0.00  0.00    +0.063 A 
ATOM     25  C   UNL     1      -6.084  -0.260  -3.829  0.00  0.00    +0.097 A 
ATOM     26  N   UNL     1      -6.920  -0.031  -4.883  0.00  0.00    -0.360 N 
ATOM     27  H   UNL     1      -7.841  -0.331  -4.936  0.00  0.00    +0.165 HD
ATOM     28  C   UNL     1      -6.266   0.687  -5.862  0.00  0.00    +0.047 A 
ATOM     29  C   UNL     1      -4.960   0.930  -5.404  0.00  0.00    +0.012 A 
ATOM     30  C   UNL     1      -4.066   1.649  -6.195  0.00  0.00    +0.011 A 
ATOM     31  C   UNL     1      -4.471   2.123  -7.423  0.00  0.00    +0.001 A 
ATOM     32  C   UNL     1      -5.762   1.887  -7.874  0.00  0.00    +0.002 A 
ATOM     33  C   UNL     1      -6.654   1.171  -7.107  0.00  0.00    +0.026 A 
ENDBRANCH  22  24
ENDBRANCH  18  19
ENDBRANCH   2  18
TORSDOF 6
