REMARK  Name = ZINC21082643
REMARK  13 active torsions:
REMARK  status: ('A' for Active; 'I' for Inactive)
REMARK    1  A    between atoms: C_1  and  C_2
REMARK    2  A    between atoms: C_2  and  C_3
REMARK    3  A    between atoms: C_3  and  C_5
REMARK    4  A    between atoms: C_3  and  N_6
REMARK    5  A    between atoms: N_6  and  S_7
REMARK    6  A    between atoms: S_7  and  C_10
REMARK    7  A    between atoms: C_13  and  N_16
REMARK    8  A    between atoms: C_17  and  C_19
REMARK    9  A    between atoms: C_19  and  S_20
REMARK   10  A    between atoms: S_20  and  C_21
REMARK   11  A    between atoms: N_26  and  N_27
REMARK   12  A    between atoms: C_28  and  C_29
REMARK   13  A    between atoms: C_28  and  C_30
REMARK                            x       y       z     vdW  Elec       q    Type
REMARK                         _______ _______ _______ _____ _____    ______ ____
ROOT
ATOM      1  N   UNL     1       2.468  -1.752   5.102  0.00  0.00    -0.285 N 
ATOM      2  C   UNL     1       3.785  -2.031   5.152  0.00  0.00    +0.227 C 
ATOM      3  O   UNL     1       4.484  -1.839   4.180  0.00  0.00    -0.275 OA
ATOM      4  H   UNL     1       1.851  -1.843   6.008  0.00  0.00    +0.155 HD
ENDROOT
BRANCH   1   8
ATOM      5  C   UNL     1       0.731  -0.542   1.514  0.00  0.00    +0.105 A 
ATOM      6  C   UNL     1       0.259  -0.039   2.712  0.00  0.00    +0.030 A 
ATOM      7  C   UNL     1       0.830  -0.442   3.904  0.00  0.00    +0.025 A 
ATOM      8  C   UNL     1       1.885  -1.345   3.897  0.00  0.00    +0.034 A 
ATOM      9  C   UNL     1       2.359  -1.844   2.691  0.00  0.00    +0.025 A 
ATOM     10  C   UNL     1       1.781  -1.441   1.503  0.00  0.00    +0.030 A 
BRANCH   5  11
ATOM     11  S   UNL     1      -0.004  -0.031  -0.004  0.00  0.00    +0.059 S 
ATOM     12  O   UNL     1       0.977  -0.221  -1.015  0.00  0.00    -0.153 OA
ATOM     13  O   UNL     1      -0.609   1.231   0.242  0.00  0.00    -0.153 OA
BRANCH  11  14
ATOM     14  N   UNL     1      -1.235  -1.089  -0.334  0.00  0.00    -0.187 NA
ATOM     15  H   UNL     1      -1.096  -1.848  -1.118  0.00  0.00    +0.148 HD
BRANCH  14  16
ATOM     16  C   UNL     1      -2.400  -1.156   0.552  0.00  0.00    +0.073 C 
ATOM     17  C   UNL     1      -2.200  -2.276   1.575  0.00  0.00    +0.025 C 
BRANCH  16  19
ATOM     18  C   UNL     1      -3.924  -0.261  -1.214  0.00  0.00    +0.005 C 
ATOM     19  C   UNL     1      -3.654  -1.440  -0.277  0.00  0.00    +0.017 C 
ENDBRANCH  16  19
ENDBRANCH  14  16
ENDBRANCH  11  14
ENDBRANCH   5  11
ENDBRANCH   1   8
BRANCH   2  20
ATOM     20  C   UNL     1       4.391  -2.582   6.418  0.00  0.00    +0.173 C 
BRANCH  20  21
ATOM     21  S   UNL     1       6.164  -2.851   6.171  0.00  0.00    -0.075 S 
BRANCH  21  22
ATOM     22  C   UNL     1       6.602  -3.478   7.758  0.00  0.00    +0.211 A 
ATOM     23  N   UNL     1       7.852  -3.861   8.153  0.00  0.00    -0.186 NA
ATOM     24  C   UNL     1       7.774  -4.287   9.450  0.00  0.00    +0.232 A 
ATOM     25  N   UNL     1       6.527  -4.171   9.840  0.00  0.00    -0.245 N 
ATOM     26  N   UNL     1       5.785  -3.654   8.770  0.00  0.00    -0.144 NA
ATOM     27  N   UNL     1       8.829  -4.757  10.219  0.00  0.00    -0.205 N 
ATOM     28  H   UNL     1       9.840  -4.812   9.790  0.00  0.00    +0.177 HD
ATOM     29  H   UNL     1       6.241  -4.465  10.861  0.00  0.00    +0.192 HD
BRANCH  27  30
ATOM     30  N   UNL     1       8.605  -5.163  11.541  0.00  0.00    -0.183 NA
ATOM     31  C   UNL     1       9.593  -5.604  12.261  0.00  0.00    +0.081 C 
ATOM     32  C   UNL     1      10.979  -5.679  11.674  0.00  0.00    +0.069 C 
BRANCH  31  33
ATOM     33  C   UNL     1       9.359  -6.030  13.652  0.00  0.00    +0.086 A 
ATOM     34  C   UNL     1       8.073  -5.952  14.193  0.00  0.00    +0.029 A 
ATOM     35  C   UNL     1       7.868  -6.362  15.498  0.00  0.00    +0.004 A 
ATOM     36  C   UNL     1       8.956  -6.825  16.226  0.00  0.00    +0.020 A 
ATOM     37  C   UNL     1      10.203  -6.870  15.631  0.00  0.00    +0.111 A 
ATOM     38  N   UNL     1      10.373  -6.480  14.384  0.00  0.00    -0.254 NA
ENDBRANCH  31  33
ENDBRANCH  27  30
ENDBRANCH  21  22
ENDBRANCH  20  21
ENDBRANCH   2  20
TORSDOF 10
