REMARK  Name = ZINC37282999
REMARK  7 active torsions:
REMARK  status: ('A' for Active; 'I' for Inactive)
REMARK    1  A    between atoms: C_1  and  C_2
REMARK    2  A    between atoms: C_2  and  C_4
REMARK    3  A    between atoms: C_2  and  N_10
REMARK    4  A    between atoms: N_10  and  C_11
REMARK    5  A    between atoms: C_15  and  S_17
REMARK    6  A    between atoms: S_17  and  N_20
REMARK    7  A    between atoms: N_20  and  C_21
REMARK                            x       y       z     vdW  Elec       q    Type
REMARK                         _______ _______ _______ _____ _____    ______ ____
ROOT
ATOM      1  C   UNL     1      -2.075  -0.647  -1.187  0.00  0.00    +0.029 A 
ATOM      2  C   UNL     1      -1.471  -0.308  -2.391  0.00  0.00    +0.023 A 
ATOM      3  C   UNL     1      -2.169  -0.445  -3.574  0.00  0.00    +0.004 A 
ATOM      4  C   UNL     1      -3.468  -0.918  -3.562  0.00  0.00    +0.028 A 
ATOM      5  C   UNL     1      -4.073  -1.256  -2.366  0.00  0.00    +0.107 A 
ATOM      6  C   UNL     1      -3.379  -1.128  -1.179  0.00  0.00    +0.051 A 
ENDROOT
BRANCH   5   7
ATOM      7  S   UNL     1      -5.729  -1.858  -2.356  0.00  0.00    +0.058 S 
ATOM      8  O   UNL     1      -6.252  -1.587  -1.062  0.00  0.00    -0.153 OA
ATOM      9  O   UNL     1      -6.344  -1.375  -3.542  0.00  0.00    -0.153 OA
BRANCH   7  10
ATOM     10  N   UNL     1      -5.652  -3.506  -2.500  0.00  0.00    -0.193 NA
ATOM     11  C   UNL     1      -5.040  -4.307  -1.437  0.00  0.00    +0.127 C 
ATOM     12  H   UNL     1      -6.012  -3.941  -3.289  0.00  0.00    +0.148 HD
ENDBRANCH   7  10
ENDBRANCH   5   7
BRANCH   1  13
ATOM     13  N   UNL     1      -1.372  -0.511   0.012  0.00  0.00    -0.341 N 
ATOM     14  H   UNL     1      -1.794  -0.752   0.852  0.00  0.00    +0.146 HD
BRANCH  13  16
ATOM     15  C   UNL     1      -0.019   1.526   0.010  0.00  0.00    +0.028 C 
ATOM     16  C   UNL     1       0.002  -0.004   0.002  0.00  0.00    +0.070 C 
BRANCH  16  17
ATOM     17  C   UNL     1       0.742  -0.511   1.242  0.00  0.00    +0.009 C 
ATOM     18  C   UNL     1       0.026  -0.018   2.500  0.00  0.00    +0.005 C 
ATOM     19  C   UNL     1       0.766  -0.524   3.740  0.00  0.00    +0.000 C 
ATOM     20  C   UNL     1       2.201   0.005   3.729  0.00  0.00    +0.000 C 
ATOM     21  C   UNL     1       2.917  -0.488   2.470  0.00  0.00    +0.000 C 
ATOM     22  C   UNL     1       2.178   0.019   1.231  0.00  0.00    +0.005 C 
ENDBRANCH  16  17
ENDBRANCH  13  16
ENDBRANCH   1  13
TORSDOF 5
