REMARK  Name = ZINC20327749
REMARK  12 active torsions:
REMARK  status: ('A' for Active; 'I' for Inactive)
REMARK    1  A    between atoms: C_1  and  N_2
REMARK    2  A    between atoms: C_4  and  C_9
REMARK    3  A    between atoms: C_9  and  O_10
REMARK    4  A    between atoms: O_10  and  C_11
REMARK    5  A    between atoms: C_17  and  C_18
REMARK    6  A    between atoms: C_18  and  O_20
REMARK    7  A    between atoms: O_20  and  C_21
REMARK    8  A    between atoms: N_24  and  C_27
REMARK    9  A    between atoms: C_27  and  C_28
REMARK   10  A    between atoms: C_33  and  O_34
REMARK   11  A    between atoms: O_34  and  C_35
REMARK   12  A    between atoms: C_35  and  C_36
REMARK                            x       y       z     vdW  Elec       q    Type
REMARK                         _______ _______ _______ _____ _____    ______ ____
ROOT
ATOM      1  C   UNL     1      -6.864  -0.097   3.005  0.00  0.00    +0.141 A 
ATOM      2  C   UNL     1      -6.189   0.339   4.128  0.00  0.00    +0.116 A 
ATOM      3  C   UNL     1      -4.804   0.175   4.191  0.00  0.00    +0.255 A 
ATOM      4  O   UNL     1      -4.208   0.573   5.179  0.00  0.00    -0.268 OA
ATOM      5  N   UNL     1      -4.101  -0.409   3.193  0.00  0.00    -0.310 N 
ATOM      6  C   UNL     1      -4.701  -0.812   2.067  0.00  0.00    +0.041 A 
ATOM      7  C   UNL     1      -6.077  -0.695   1.926  0.00  0.00    +0.120 A 
ATOM      8  C   UNL     1      -3.947  -1.392   0.895  0.00  0.00    +0.070 C 
ATOM      9  C   UNL     1      -2.682  -2.116   1.349  0.00  0.00    +0.091 C 
ATOM     10  N   UNL     1      -1.571  -1.154   1.339  0.00  0.00    -0.296 NA
ATOM     11  C   UNL     1      -1.847  -0.036   2.249  0.00  0.00    +0.106 C 
ATOM     12  C   UNL     1      -2.663  -0.579   3.424  0.00  0.00    +0.140 C 
ENDROOT
BRANCH   7  13
ATOM     13  C   UNL     1      -6.740  -1.168   0.700  0.00  0.00    +0.344 C 
ATOM     14  O   UNL     1      -7.318  -2.237   0.696  0.00  0.00    -0.245 OA
BRANCH  13  15
ATOM     15  O   UNL     1      -6.706  -0.416  -0.418  0.00  0.00    -0.464 OA
ATOM     16  C   UNL     1      -7.381  -0.945  -1.589  0.00  0.00    +0.280 C 
ENDBRANCH  13  15
ENDBRANCH   7  13
BRANCH   1  17
ATOM     17  O   UNL     1      -8.208   0.026   2.906  0.00  0.00    -0.491 OA
BRANCH  17  18
ATOM     18  C   UNL     1      -8.888   0.623   4.012  0.00  0.00    +0.234 C 
BRANCH  18  22
ATOM     19  C   UNL     1     -13.607   1.142   5.687  0.00  0.00    +0.132 C 
ATOM     20  N   UNL     1     -12.427   0.636   4.982  0.00  0.00    -0.304 N 
ATOM     21  C   UNL     1     -11.154   1.359   4.873  0.00  0.00    +0.114 C 
ATOM     22  C   UNL     1     -10.389   0.675   3.719  0.00  0.00    +0.053 C 
ATOM     23  C   UNL     1     -11.005  -0.743   3.728  0.00  0.00    +0.104 C 
ATOM     24  C   UNL     1     -12.369  -0.551   4.353  0.00  0.00    +0.216 C 
ATOM     25  O   UNL     1     -13.279  -1.351   4.295  0.00  0.00    -0.276 OA
ENDBRANCH  18  22
ENDBRANCH  17  18
ENDBRANCH   1  17
BRANCH  10  26
ATOM     26  C   UNL     1      -1.305  -0.671  -0.023  0.00  0.00    +0.123 C 
BRANCH  26  27
ATOM     27  C   UNL     1      -0.025   0.124  -0.033  0.00  0.00    +0.008 A 
ATOM     28  C   UNL     1      -0.069   1.505  -0.012  0.00  0.00    +0.008 A 
ATOM     29  C   UNL     1       1.105   2.235  -0.020  0.00  0.00    +0.001 A 
ATOM     30  C   UNL     1       2.326   1.585  -0.050  0.00  0.00    +0.004 A 
ATOM     31  C   UNL     1       2.375   0.205  -0.072  0.00  0.00    +0.046 A 
ATOM     32  C   UNL     1       1.198  -0.530  -0.063  0.00  0.00    +0.125 A 
BRANCH  32  33
ATOM     33  O   UNL     1       1.243  -1.888  -0.084  0.00  0.00    -0.488 OA
BRANCH  33  34
ATOM     34  C   UNL     1       2.538  -2.493  -0.115  0.00  0.00    +0.256 C 
BRANCH  34  35
ATOM     35  C   UNL     1       2.390  -3.993  -0.135  0.00  0.00    +0.006 C 
ATOM     36  C   UNL     1       3.111  -4.711  -0.961  0.00  0.00    +0.007 C 
ENDBRANCH  34  35
ENDBRANCH  33  34
ENDBRANCH  32  33
ENDBRANCH  26  27
ENDBRANCH  10  26
TORSDOF 10
