REMARK  Name = ZINC23648581
REMARK  7 active torsions:
REMARK  status: ('A' for Active; 'I' for Inactive)
REMARK    1  A    between atoms: C_15  and  C_17
REMARK    2  A    between atoms: C_17  and  S_18
REMARK    3  A    between atoms: S_18  and  C_19
REMARK    4  A    between atoms: C_22  and  C_25
REMARK    5  A    between atoms: N_23  and  N_24
REMARK    6  A    between atoms: C_28  and  O_31
REMARK    7  A    between atoms: O_31  and  C_32
REMARK                            x       y       z     vdW  Elec       q    Type
REMARK                         _______ _______ _______ _____ _____    ______ ____
ROOT
ATOM      1  S   UNL     1       5.982   3.241   1.767  0.00  0.00    -0.075 S 
ENDROOT
BRANCH   1   2
ATOM      2  C   UNL     1       7.405   4.202   1.368  0.00  0.00    +0.209 A 
ATOM      3  N   UNL     1       7.452   5.215   0.533  0.00  0.00    -0.121 NA
ATOM      4  N   UNL     1       8.645   5.689   0.480  0.00  0.00    -0.127 NA
ATOM      5  C   UNL     1       9.436   5.001   1.271  0.00  0.00    +0.182 A 
ATOM      6  N   UNL     1       8.665   4.027   1.865  0.00  0.00    -0.224 N 
BRANCH   5   7
ATOM      7  C   UNL     1      10.880   5.229   1.484  0.00  0.00    +0.021 A 
ATOM      8  C   UNL     1      11.462   6.439   1.099  0.00  0.00    +0.015 A 
ATOM      9  C   UNL     1      12.809   6.650   1.304  0.00  0.00    +0.046 A 
ATOM     10  C   UNL     1      13.589   5.657   1.882  0.00  0.00    +0.127 A 
ATOM     11  C   UNL     1      13.015   4.451   2.262  0.00  0.00    +0.046 A 
ATOM     12  C   UNL     1      11.668   4.234   2.066  0.00  0.00    +0.015 A 
BRANCH  10  13
ATOM     13  O   UNL     1      14.917   5.867   2.077  0.00  0.00    -0.434 OA
BRANCH  13  14
ATOM     14  C   UNL     1      15.442   7.130   1.664  0.00  0.00    +0.541 C 
ATOM     15  F   UNL     1      15.233   7.295   0.290  0.00  0.00    -0.166 F 
ATOM     16  F   UNL     1      14.793   8.155   2.361  0.00  0.00    -0.166 F 
ENDBRANCH  13  14
ENDBRANCH  10  13
ENDBRANCH   5   7
BRANCH   6  17
ATOM     17  N   UNL     1       9.076   3.083   2.762  0.00  0.00    -0.295 N 
ATOM     18  H   UNL     1      10.128   3.050   3.083  0.00  0.00    +0.163 HD
ATOM     19  H   UNL     1       8.355   2.356   3.164  0.00  0.00    +0.163 HD
ENDBRANCH   6  17
ENDBRANCH   1   2
BRANCH   1  20
ATOM     20  C   UNL     1       4.745   4.068   0.737  0.00  0.00    +0.174 C 
BRANCH  20  35
ATOM     21  C   UNL     1      -0.241   1.354   0.459  0.00  0.00    +0.002 A 
ATOM     22  C   UNL     1      -1.378   2.037   0.851  0.00  0.00    +0.001 A 
ATOM     23  C   UNL     1      -1.306   3.385   1.157  0.00  0.00    +0.017 A 
ATOM     24  C   UNL     1      -0.096   4.046   1.060  0.00  0.00    +0.035 A 
ATOM     25  C   UNL     1       1.054   3.363   0.658  0.00  0.00    +0.055 A 
ATOM     26  C   UNL     1       0.972   2.011   0.359  0.00  0.00    +0.025 A 
ATOM     27  N   UNL     1       2.279   4.035   0.557  0.00  0.00    -0.237 N 
ATOM     28  C   UNL     1       2.361   5.353   0.088  0.00  0.00    +0.055 A 
ATOM     29  C   UNL     1       3.424   5.746  -0.710  0.00  0.00    +0.025 A 
ATOM     30  C   UNL     1       3.498   7.048  -1.170  0.00  0.00    +0.002 A 
ATOM     31  C   UNL     1       2.518   7.965  -0.840  0.00  0.00    +0.001 A 
ATOM     32  C   UNL     1       1.452   7.584  -0.043  0.00  0.00    +0.017 A 
ATOM     33  C   UNL     1       1.373   6.283   0.420  0.00  0.00    +0.035 A 
ATOM     34  S   UNL     1       0.026   5.767   1.438  0.00  0.00    -0.086 S 
ATOM     35  C   UNL     1       3.409   3.397   0.920  0.00  0.00    +0.234 C 
ATOM     36  O   UNL     1       3.350   2.282   1.394  0.00  0.00    -0.274 OA
ENDBRANCH  20  35
ENDBRANCH   1  20
TORSDOF 7
