REMARK  Name = ZINC22896897
REMARK  8 active torsions:
REMARK  status: ('A' for Active; 'I' for Inactive)
REMARK    1  A    between atoms: C_1  and  C_2
REMARK    2  A    between atoms: C_2  and  C_4
REMARK    3  A    between atoms: C_2  and  N_22
REMARK    4  A    between atoms: C_4  and  C_5
REMARK    5  A    between atoms: N_7  and  N_8
REMARK    6  A    between atoms: C_9  and  C_11
REMARK    7  A    between atoms: C_11  and  N_12
REMARK    8  A    between atoms: C_23  and  C_25
REMARK                            x       y       z     vdW  Elec       q    Type
REMARK                         _______ _______ _______ _____ _____    ______ ____
ROOT
ATOM      1  C   UNL     1       0.657  -2.014   1.298  0.00  0.00    +0.231 C 
ATOM      2  O   UNL     1       0.062  -2.621   0.432  0.00  0.00    -0.274 OA
ATOM      3  N   UNL     1       1.241  -2.685   2.311  0.00  0.00    -0.234 N 
ATOM      4  H   UNL     1       1.716  -2.200   3.003  0.00  0.00    +0.173 HD
ENDROOT
BRANCH   3   5
ATOM      5  N   UNL     1       1.161  -4.083   2.363  0.00  0.00    -0.233 N 
ATOM      6  C   UNL     1       1.745  -4.754   3.375  0.00  0.00    +0.246 C 
ATOM      7  O   UNL     1       2.340  -4.147   4.242  0.00  0.00    -0.273 OA
ATOM      8  H   UNL     1       0.686  -4.568   1.670  0.00  0.00    +0.173 HD
BRANCH   6   9
ATOM      9  C   UNL     1       1.660  -6.257   3.432  0.00  0.00    +0.202 C 
BRANCH   9  10
ATOM     10  N   UNL     1       2.369  -6.742   4.619  0.00  0.00    -0.321 N 
ATOM     11  C   UNL     1       3.799  -7.070   4.552  0.00  0.00    +0.106 C 
ATOM     12  C   UNL     1       4.009  -8.404   5.280  0.00  0.00    +0.024 C 
ATOM     13  C   UNL     1       3.636  -8.227   6.752  0.00  0.00    +0.038 C 
ATOM     14  C   UNL     1       2.268  -7.610   6.878  0.00  0.00    -0.026 A 
ATOM     15  C   UNL     1       1.695  -6.896   5.835  0.00  0.00    +0.033 A 
ATOM     16  C   UNL     1       0.435  -6.329   5.988  0.00  0.00    +0.023 A 
ATOM     17  C   UNL     1      -0.247  -6.473   7.180  0.00  0.00    +0.002 A 
ATOM     18  C   UNL     1       0.324  -7.181   8.221  0.00  0.00    +0.000 A 
ATOM     19  C   UNL     1       1.575  -7.755   8.068  0.00  0.00    +0.005 A 
ENDBRANCH   9  10
ENDBRANCH   6   9
ENDBRANCH   3   5
BRANCH   1  20
ATOM     20  C   UNL     1       0.742  -0.511   1.242  0.00  0.00    +0.119 C 
BRANCH  20  22
ATOM     21  C   UNL     1      -0.019   1.526   0.010  0.00  0.00    +0.028 C 
ATOM     22  C   UNL     1       0.002  -0.004   0.002  0.00  0.00    +0.079 C 
BRANCH  22  23
ATOM     23  N   UNL     1       0.688  -0.476  -1.203  0.00  0.00    -0.308 N 
ATOM     24  C   UNL     1       0.006  -0.608  -2.358  0.00  0.00    +0.244 C 
ATOM     25  O   UNL     1      -1.177  -0.335  -2.400  0.00  0.00    -0.270 OA
ATOM     26  H   UNL     1       1.632  -0.695  -1.170  0.00  0.00    +0.149 HD
BRANCH  24  27
ATOM     27  C   UNL     1       0.698  -1.085  -3.575  0.00  0.00    +0.037 A 
ATOM     28  C   UNL     1       2.056  -1.405  -3.529  0.00  0.00    +0.013 A 
ATOM     29  C   UNL     1       2.696  -1.850  -4.667  0.00  0.00    +0.001 A 
ATOM     30  C   UNL     1       1.994  -1.978  -5.853  0.00  0.00    +0.000 A 
ATOM     31  C   UNL     1       0.648  -1.662  -5.906  0.00  0.00    +0.001 A 
ATOM     32  C   UNL     1      -0.005  -1.222  -4.773  0.00  0.00    +0.013 A 
ENDBRANCH  24  27
ENDBRANCH  22  23
ENDBRANCH  20  22
ENDBRANCH   1  20
TORSDOF 7
