REMARK  Name = ZINC03904707
REMARK  5 active torsions:
REMARK  status: ('A' for Active; 'I' for Inactive)
REMARK    1  A    between atoms: C_1  and  C_2
REMARK    2  A    between atoms: C_2  and  C_3
REMARK    3  A    between atoms: C_3  and  C_4
REMARK    4  A    between atoms: C_16  and  C_18
REMARK    5  A    between atoms: C_21  and  C_24
REMARK                            x       y       z     vdW  Elec       q    Type
REMARK                         _______ _______ _______ _____ _____    ______ ____
ROOT
ATOM      1  C   UNL     1       2.599   4.382   0.968  0.00  0.00    +0.221 C 
ATOM      2  O   UNL     1       3.577   5.099   0.994  0.00  0.00    -0.275 OA
ATOM      3  N   UNL     1       2.322   3.660  -0.136  0.00  0.00    -0.258 N 
ATOM      4  C   UNL     1       1.195   2.838  -0.155  0.00  0.00    +0.058 A 
ATOM      5  C   UNL     1      -0.086   3.367  -0.116  0.00  0.00    +0.025 A 
ATOM      6  C   UNL     1      -1.175   2.519  -0.215  0.00  0.00    +0.002 A 
ATOM      7  C   UNL     1      -0.991   1.155  -0.351  0.00  0.00    +0.002 A 
ATOM      8  C   UNL     1       0.286   0.620  -0.358  0.00  0.00    +0.025 A 
ATOM      9  C   UNL     1       1.376   1.467  -0.254  0.00  0.00    +0.053 A 
ATOM     10  N   UNL     1       2.682   0.995  -0.194  0.00  0.00    -0.316 N 
ATOM     11  C   UNL     1       3.645   1.251  -1.116  0.00  0.00    +0.017 C 
ATOM     12  C   UNL     1       3.915   2.464  -1.627  0.00  0.00    +0.037 C 
ATOM     13  C   UNL     1       3.198   3.749  -1.285  0.00  0.00    +0.147 C 
ATOM     14  C   UNL     1       4.943   2.621  -2.586  0.00  0.00    +0.163 C 
ATOM     15  O   UNL     1       5.182   3.733  -3.013  0.00  0.00    -0.292 OA
ATOM     16  C   UNL     1       5.748   1.463  -3.095  0.00  0.00    +0.080 C 
ATOM     17  C   UNL     1       4.893   0.194  -3.001  0.00  0.00    +0.014 C 
ATOM     18  C   UNL     1       4.452   0.038  -1.546  0.00  0.00    +0.051 C 
ATOM     19  H   UNL     1       2.923   0.440   0.565  0.00  0.00    +0.152 HD
ENDROOT
BRANCH  13  20
ATOM     20  C   UNL     1       2.380   4.171  -2.478  0.00  0.00    -0.022 A 
ATOM     21  C   UNL     1       1.345   3.371  -2.925  0.00  0.00    +0.006 A 
ATOM     22  C   UNL     1       0.591   3.761  -4.016  0.00  0.00    +0.004 A 
ATOM     23  C   UNL     1       0.880   4.946  -4.667  0.00  0.00    -0.050 A 
ATOM     24  C   UNL     1       1.918   5.744  -4.224  0.00  0.00    +0.004 A 
ATOM     25  C   UNL     1       2.668   5.356  -3.129  0.00  0.00    +0.006 A 
ATOM     26  C   UNL     1       0.062   5.368  -5.861  0.00  0.00    +0.044 C 
ENDBRANCH  13  20
BRANCH   1  27
ATOM     27  C   UNL     1       1.695   4.297   2.170  0.00  0.00    +0.096 C 
BRANCH  27  29
ATOM     28  C   UNL     1       1.312   5.121   4.497  0.00  0.00    +0.004 C 
ATOM     29  C   UNL     1       2.231   5.207   3.277  0.00  0.00    +0.006 C 
ENDBRANCH  27  29
ENDBRANCH   1  27
TORSDOF 3
