REMARK  Name = ZINC20911957
REMARK  16 active torsions:
REMARK  status: ('A' for Active; 'I' for Inactive)
REMARK    1  A    between atoms: C_1  and  C_2
REMARK    2  A    between atoms: C_4  and  O_33
REMARK    3  A    between atoms: C_7  and  N_8
REMARK    4  A    between atoms: C_9  and  C_11
REMARK    5  A    between atoms: C_11  and  C_12
REMARK    6  A    between atoms: C_12  and  S_13
REMARK    7  A    between atoms: S_13  and  C_14
REMARK    8  A    between atoms: N_18  and  N_19
REMARK    9  A    between atoms: N_20  and  N_21
REMARK   10  A    between atoms: C_22  and  C_23
REMARK   11  A    between atoms: C_24  and  C_32
REMARK   12  A    between atoms: N_26  and  C_29
REMARK   13  A    between atoms: C_27  and  C_28
REMARK   14  A    between atoms: C_29  and  C_30
REMARK   15  A    between atoms: C_29  and  C_31
REMARK   16  A    between atoms: O_33  and  C_34
REMARK                            x       y       z     vdW  Elec       q    Type
REMARK                         _______ _______ _______ _____ _____    ______ ____
ROOT
ATOM      1  C   UNL     1      -0.021   1.757   0.043  0.00  0.00    +0.210 A 
ATOM      2  N   UNL     1      -1.092   2.513   0.043  0.00  0.00    -0.119 NA
ATOM      3  N   UNL     1      -0.677   3.852   0.054  0.00  0.00    -0.109 NA
ATOM      4  C   UNL     1       0.634   3.869   0.053  0.00  0.00    +0.254 A 
ATOM      5  N   UNL     1       1.074   2.575   0.045  0.00  0.00    -0.211 N 
ATOM      6  N   UNL     1       1.435   5.002   0.058  0.00  0.00    -0.204 N 
ATOM      7  H   UNL     1       2.530   4.902   0.055  0.00  0.00    +0.177 HD
ENDROOT
BRANCH   5   8
ATOM      8  N   UNL     1       2.379   2.170   0.042  0.00  0.00    -0.294 N 
ATOM      9  H   UNL     1       3.186   2.917   0.045  0.00  0.00    +0.163 HD
ATOM     10  H   UNL     1       2.622   1.097   0.036  0.00  0.00    +0.163 HD
ENDBRANCH   5   8
BRANCH   6  11
ATOM     11  N   UNL     1       0.848   6.274   0.065  0.00  0.00    -0.187 NA
ATOM     12  C   UNL     1       1.596   7.334   0.069  0.00  0.00    +0.141 C 
BRANCH  12  13
ATOM     13  C   UNL     1       0.978   8.675   0.077  0.00  0.00    +0.038 A 
ATOM     14  C   UNL     1      -0.405   8.958   0.082  0.00  0.00    +0.069 A 
ATOM     15  N   UNL     1      -0.553  10.255   0.088  0.00  0.00    -0.175 NA
ATOM     16  N   UNL     1       0.711  10.855   0.089  0.00  0.00    -0.265 N 
ATOM     17  C   UNL     1       1.643   9.881   0.088  0.00  0.00    +0.045 A 
ATOM     18  C   UNL     1       3.138  10.076   0.094  0.00  0.00    +0.066 C 
ATOM     19  C   UNL     1      -1.516   7.941   0.078  0.00  0.00    +0.068 C 
BRANCH  16  20
ATOM     20  C   UNL     1       0.977  12.296   0.095  0.00  0.00    +0.101 C 
ATOM     21  C   UNL     1       0.357  12.935  -1.149  0.00  0.00    +0.032 C 
ATOM     22  C   UNL     1       0.363  12.922   1.349  0.00  0.00    +0.032 C 
ENDBRANCH  16  20
ENDBRANCH  12  13
ENDBRANCH   6  11
BRANCH   1  23
ATOM     23  S   UNL     1       0.003  -0.005   0.033  0.00  0.00    -0.084 S 
BRANCH  23  24
ATOM     24  C   UNL     1      -1.751  -0.467   0.033  0.00  0.00    +0.086 C 
BRANCH  24  25
ATOM     25  C   UNL     1      -1.877  -1.992   0.024  0.00  0.00    +0.107 C 
BRANCH  25  27
ATOM     26  N   UNL     1      -3.688  -3.677   0.018  0.00  0.00    -0.285 N 
ATOM     27  C   UNL     1      -3.334  -2.376   0.024  0.00  0.00    +0.218 C 
ATOM     28  O   UNL     1      -4.188  -1.515   0.030  0.00  0.00    -0.275 OA
ATOM     29  H   UNL     1      -2.918  -4.456  -0.080  0.00  0.00    +0.155 HD
BRANCH  26  36
ATOM     30  C   UNL     1      -4.508  -6.181  -1.052  0.00  0.00    +0.046 C 
ATOM     31  C   UNL     1      -5.479  -5.250  -0.374  0.00  0.00    -0.026 A 
ATOM     32  C   UNL     1      -6.809  -5.605  -0.255  0.00  0.00    +0.050 A 
ATOM     33  C   UNL     1      -7.704  -4.745   0.364  0.00  0.00    +0.120 A 
ATOM     34  C   UNL     1      -7.264  -3.530   0.868  0.00  0.00    +0.047 A 
ATOM     35  C   UNL     1      -5.934  -3.175   0.754  0.00  0.00    +0.027 A 
ATOM     36  C   UNL     1      -5.037  -4.036   0.134  0.00  0.00    +0.037 A 
BRANCH  33  37
ATOM     37  O   UNL     1      -9.013  -5.093   0.476  0.00  0.00    -0.495 OA
ATOM     38  C   UNL     1      -9.880  -4.159   1.124  0.00  0.00    +0.277 C 
ENDBRANCH  33  37
ENDBRANCH  26  36
ENDBRANCH  25  27
ENDBRANCH  24  25
ENDBRANCH  23  24
ENDBRANCH   1  23
TORSDOF 10
