REMARK  Name = ZINC57670163
REMARK  9 active torsions:
REMARK  status: ('A' for Active; 'I' for Inactive)
REMARK    1  A    between atoms: C_1  and  C_2
REMARK    2  A    between atoms: C_5  and  C_21
REMARK    3  A    between atoms: C_7  and  N_8
REMARK    4  A    between atoms: N_11  and  C_12
REMARK    5  A    between atoms: C_12  and  C_14
REMARK    6  A    between atoms: C_12  and  C_15
REMARK    7  A    between atoms: C_15  and  C_16
REMARK    8  A    between atoms: N_23  and  C_24
REMARK    9  A    between atoms: C_24  and  C_25
REMARK                            x       y       z     vdW  Elec       q    Type
REMARK                         _______ _______ _______ _____ _____    ______ ____
ROOT
ATOM      1  C   UNL     1      -0.010   1.493   0.004  0.00  0.00    +0.045 C 
ATOM      2  C   UNL     1       0.015  -0.014   0.002  0.00  0.00    -0.029 A 
ATOM      3  C   UNL     1       0.027  -0.702  -1.198  0.00  0.00    +0.006 A 
ATOM      4  C   UNL     1       0.050  -2.081  -1.207  0.00  0.00    +0.013 A 
ATOM      5  C   UNL     1       0.060  -2.788  -0.003  0.00  0.00    +0.038 A 
ATOM      6  C   UNL     1       0.049  -2.094   1.207  0.00  0.00    +0.036 A 
ATOM      7  C   UNL     1       0.032  -0.708   1.206  0.00  0.00    +0.038 A 
ENDROOT
BRANCH   7   8
ATOM      8  N   UNL     1       0.025  -0.007   2.417  0.00  0.00    -0.269 N 
ATOM      9  C   UNL     1      -0.632  -0.508   3.482  0.00  0.00    +0.304 C 
ATOM     10  O   UNL     1      -1.150  -1.606   3.415  0.00  0.00    -0.253 OA
ATOM     11  N   UNL     1      -0.716   0.208   4.621  0.00  0.00    -0.296 N 
ATOM     12  H   UNL     1       0.493   0.839   2.491  0.00  0.00    +0.156 HD
ATOM     13  H   UNL     1      -0.302   1.084   4.674  0.00  0.00    +0.151 HD
BRANCH  11  14
ATOM     14  C   UNL     1      -1.430  -0.337   5.778  0.00  0.00    +0.076 C 
ATOM     15  C   UNL     1      -2.923  -0.028   5.647  0.00  0.00    +0.028 C 
BRANCH  14  16
ATOM     16  C   UNL     1      -0.887   0.301   7.059  0.00  0.00    +0.064 C 
BRANCH  16  17
ATOM     17  C   UNL     1       0.551  -0.105   7.251  0.00  0.00    -0.008 A 
ATOM     18  C   UNL     1       1.677   0.510   6.814  0.00  0.00    +0.011 A 
ATOM     19  C   UNL     1       2.906  -0.049   7.113  0.00  0.00    +0.008 A 
ATOM     20  C   UNL     1       2.948  -1.195   7.835  0.00  0.00    +0.045 A 
ATOM     21  S   UNL     1       1.215  -1.516   8.121  0.00  0.00    -0.102 S 
ENDBRANCH  16  17
ENDBRANCH  14  16
ENDBRANCH  11  14
ENDBRANCH   7   8
BRANCH   5  22
ATOM     22  C   UNL     1       0.084  -4.266  -0.011  0.00  0.00    +0.244 C 
ATOM     23  O   UNL     1       0.093  -4.879   1.039  0.00  0.00    -0.270 OA
ATOM     24  N   UNL     1       0.095  -4.934  -1.181  0.00  0.00    -0.303 N 
ATOM     25  H   UNL     1       0.087  -4.445  -2.019  0.00  0.00    +0.149 HD
BRANCH  24  26
ATOM     26  C   UNL     1       0.118  -6.399  -1.189  0.00  0.00    +0.217 C 
BRANCH  26  27
ATOM     27  C   UNL     1       0.126  -6.901  -2.634  0.00  0.00    +0.405 C 
ATOM     28  F   UNL     1       1.261  -6.414  -3.291  0.00  0.00    -0.169 F 
ATOM     29  F   UNL     1       0.148  -8.300  -2.641  0.00  0.00    -0.169 F 
ATOM     30  F   UNL     1      -1.024  -6.450  -3.291  0.00  0.00    -0.169 F 
ENDBRANCH  26  27
ENDBRANCH  24  26
ENDBRANCH   5  22
TORSDOF 7
