REMARK  Name = ZINC11869017
REMARK  6 active torsions:
REMARK  status: ('A' for Active; 'I' for Inactive)
REMARK    1  A    between atoms: C_4  and  N_7
REMARK    2  A    between atoms: C_8  and  C_30
REMARK    3  A    between atoms: C_10  and  S_12
REMARK    4  A    between atoms: S_12  and  C_13
REMARK    5  A    between atoms: C_13  and  C_14
REMARK    6  A    between atoms: C_18  and  C_27
REMARK                            x       y       z     vdW  Elec       q    Type
REMARK                         _______ _______ _______ _____ _____    ______ ____
ROOT
ATOM      1  S   UNL     1       1.692   3.479   0.033  0.00  0.00    -0.075 S 
ENDROOT
BRANCH   1   5
ATOM      2  N   UNL     1       1.282  -0.404   0.060  0.00  0.00    -0.216 N 
ATOM      3  C   UNL     1      -0.002   0.001   0.079  0.00  0.00    +0.137 A 
ATOM      4  N   UNL     1      -0.019   1.309   0.072  0.00  0.00    -0.205 NA
ATOM      5  C   UNL     1       1.234   1.777   0.050  0.00  0.00    +0.210 A 
ATOM      6  N   UNL     1       2.065   0.762   0.042  0.00  0.00    -0.138 NA
BRANCH   2  10
ATOM      7  C   UNL     1       2.661  -4.337   0.059  0.00  0.00    +0.000 A 
ATOM      8  C   UNL     1       3.348  -3.365  -0.644  0.00  0.00    +0.002 A 
ATOM      9  C   UNL     1       2.894  -2.061  -0.646  0.00  0.00    +0.028 A 
ATOM     10  C   UNL     1       1.745  -1.726   0.060  0.00  0.00    +0.067 A 
ATOM     11  C   UNL     1       1.061  -2.704   0.769  0.00  0.00    +0.028 A 
ATOM     12  C   UNL     1       1.517  -4.007   0.762  0.00  0.00    +0.002 A 
ENDBRANCH   2  10
BRANCH   3  13
ATOM     13  C   UNL     1      -1.212  -0.899   0.102  0.00  0.00    +0.057 C 
ATOM     14  C   UNL     1      -2.071  -0.630  -1.135  0.00  0.00    +0.011 C 
ATOM     15  C   UNL     1      -3.298  -1.543  -1.112  0.00  0.00    +0.001 C 
ATOM     16  C   UNL     1      -4.118  -1.262   0.149  0.00  0.00    +0.000 C 
ATOM     17  C   UNL     1      -3.259  -1.531   1.386  0.00  0.00    +0.001 C 
ATOM     18  C   UNL     1      -2.032  -0.618   1.363  0.00  0.00    +0.011 C 
ENDBRANCH   3  13
ENDBRANCH   1   5
BRANCH   1  19
ATOM     19  C   UNL     1       3.506   3.444   0.005  0.00  0.00    +0.173 C 
BRANCH  19  20
ATOM     20  C   UNL     1       4.035   4.855  -0.011  0.00  0.00    +0.230 C 
ATOM     21  O   UNL     1       3.267   5.790  -0.105  0.00  0.00    -0.274 OA
ATOM     22  N   UNL     1       5.361   5.079   0.079  0.00  0.00    -0.264 N 
ATOM     23  C   UNL     1       6.324   3.965   0.067  0.00  0.00    +0.168 C 
ATOM     24  C   UNL     1       7.504   4.382  -0.822  0.00  0.00    +0.276 C 
ATOM     25  O   UNL     1       8.074   5.583  -0.298  0.00  0.00    -0.476 OA
ATOM     26  C   UNL     1       7.232   6.610  -0.008  0.00  0.00    +0.143 A 
ATOM     27  C   UNL     1       5.873   6.383   0.182  0.00  0.00    +0.078 A 
ATOM     28  C   UNL     1       5.027   7.440   0.477  0.00  0.00    +0.027 A 
ATOM     29  C   UNL     1       5.535   8.723   0.574  0.00  0.00    +0.002 A 
ATOM     30  C   UNL     1       6.885   8.950   0.378  0.00  0.00    +0.004 A 
ATOM     31  C   UNL     1       7.733   7.899   0.096  0.00  0.00    +0.047 A 
BRANCH  24  32
ATOM     32  C   UNL     1       8.541   3.288  -0.830  0.00  0.00    +0.253 C 
ATOM     33  O   UNL     1       9.638   3.490  -0.353  0.00  0.00    -0.272 OA
ATOM     34  N   UNL     1       8.250   2.087  -1.367  0.00  0.00    -0.326 N 
ATOM     35  H   UNL     1       7.373   1.926  -1.749  0.00  0.00    +0.145 HD
ATOM     36  H   UNL     1       8.918   1.384  -1.373  0.00  0.00    +0.145 HD
ENDBRANCH  24  32
ENDBRANCH  19  20
ENDBRANCH   1  19
TORSDOF 6
