REMARK  Name = ZINC24123364
REMARK  7 active torsions:
REMARK  status: ('A' for Active; 'I' for Inactive)
REMARK    1  A    between atoms: C_1  and  C_2
REMARK    2  A    between atoms: C_2  and  C_4
REMARK    3  A    between atoms: C_2  and  S_17
REMARK    4  A    between atoms: N_6  and  N_7
REMARK    5  A    between atoms: C_8  and  C_10
REMARK    6  A    between atoms: S_17  and  C_18
REMARK    7  A    between atoms: C_21  and  N_24
REMARK                            x       y       z     vdW  Elec       q    Type
REMARK                         _______ _______ _______ _____ _____    ______ ____
ROOT
ATOM      1  C   UNL     1      -0.997   3.331   0.851  0.00  0.00    +0.242 C 
ATOM      2  O   UNL     1      -2.037   3.758   0.398  0.00  0.00    -0.273 OA
ATOM      3  N   UNL     1       0.015   4.176   1.129  0.00  0.00    -0.233 N 
ATOM      4  H   UNL     1       0.959   3.788   1.539  0.00  0.00    +0.173 HD
ENDROOT
BRANCH   3   5
ATOM      5  N   UNL     1      -0.135   5.549   0.894  0.00  0.00    -0.229 N 
ATOM      6  C   UNL     1       0.877   6.395   1.172  0.00  0.00    +0.276 C 
ATOM      7  O   UNL     1       1.921   5.966   1.627  0.00  0.00    -0.267 OA
ATOM      8  H   UNL     1      -1.079   5.937   0.483  0.00  0.00    +0.173 HD
BRANCH   6   9
ATOM      9  C   UNL     1       0.720   7.833   0.927  0.00  0.00    +0.104 A 
ATOM     10  C   UNL     1       1.664   8.808   1.169  0.00  0.00    +0.047 A 
ATOM     11  C   UNL     1       1.098  10.030   0.789  0.00  0.00    +0.036 A 
ATOM     12  C   UNL     1      -0.157   9.786   0.340  0.00  0.00    +0.098 A 
ATOM     13  N   UNL     1      -0.399   8.454   0.419  0.00  0.00    -0.356 N 
ATOM     14  H   UNL     1      -1.286   7.859   0.157  0.00  0.00    +0.166 HD
ATOM     15 BR   UNL     1       1.935  11.723   0.890  0.00  0.00    -0.049 Br
ENDBRANCH   6   9
ENDBRANCH   3   5
BRANCH   1  17
ATOM     16  C   UNL     1      -0.044   1.224  -0.046  0.00  0.00    +0.029 C 
ATOM     17  C   UNL     1      -0.835   1.854   1.102  0.00  0.00    +0.135 C 
BRANCH  17  18
ATOM     18  S   UNL     1      -2.471   1.076   1.208  0.00  0.00    -0.113 S 
BRANCH  18  19
ATOM     19  C   UNL     1      -3.148   1.710   2.706  0.00  0.00    +0.009 A 
ATOM     20  C   UNL     1      -2.368   2.496   3.546  0.00  0.00    +0.017 A 
ATOM     21  C   UNL     1      -2.904   2.996   4.716  0.00  0.00    +0.034 A 
ATOM     22  C   UNL     1      -4.213   2.707   5.058  0.00  0.00    +0.126 A 
ATOM     23  C   UNL     1      -4.990   1.920   4.227  0.00  0.00    +0.034 A 
ATOM     24  C   UNL     1      -4.463   1.421   3.053  0.00  0.00    +0.017 A 
BRANCH  22  25
ATOM     25  N   UNL     1      -4.782   3.240   6.315  0.00  0.00    +0.056 N 
ATOM     26  O   UNL     1      -5.934   2.986   6.618  0.00  0.00    -0.126 OA
ATOM     27  O   UNL     1      -4.099   3.933   7.048  0.00  0.00    -0.126 OA
ENDBRANCH  22  25
ENDBRANCH  18  19
ENDBRANCH  17  18
ENDBRANCH   1  17
TORSDOF 6
