REMARK  Name = ZINC16690045
REMARK  7 active torsions:
REMARK  status: ('A' for Active; 'I' for Inactive)
REMARK    1  A    between atoms: C_1  and  C_2
REMARK    2  A    between atoms: C_2  and  C_3
REMARK    3  A    between atoms: C_9  and  C_11
REMARK    4  A    between atoms: C_11  and  C_13
REMARK    5  A    between atoms: C_11  and  N_20
REMARK    6  A    between atoms: C_16  and  C_19
REMARK    7  A    between atoms: C_24  and  C_27
REMARK                            x       y       z     vdW  Elec       q    Type
REMARK                         _______ _______ _______ _____ _____    ______ ____
ROOT
ATOM      1  C   UNL     1       1.307   1.597  -2.570  0.00  0.00    +0.006 C 
ENDROOT
BRANCH   1   8
ATOM      2  C   UNL     1       3.636   2.316   2.872  0.00  0.00    +0.152 A 
ATOM      3  N   UNL     1       4.349   2.747   1.833  0.00  0.00    -0.205 NA
ATOM      4  C   UNL     1       3.691   2.510   0.731  0.00  0.00    +0.199 A 
ATOM      5  N   UNL     1       2.505   1.912   1.026  0.00  0.00    -0.170 N 
ATOM      6  N   UNL     1       2.516   1.800   2.441  0.00  0.00    -0.146 NA
ATOM      7  C   UNL     1       1.685   1.585  -0.027  0.00  0.00    +0.282 A 
ATOM      8  C   UNL     1       2.049   1.861  -1.285  0.00  0.00    +0.050 A 
ATOM      9  S   UNL     1       3.645   2.625  -1.041  0.00  0.00    -0.050 S 
ATOM     10  O   UNL     1       0.490   0.980   0.211  0.00  0.00    -0.265 OA
BRANCH   2  12
ATOM     11  C   UNL     1       3.562   3.733   4.905  0.00  0.00    +0.012 C 
ATOM     12  C   UNL     1       4.054   2.409   4.317  0.00  0.00    +0.075 C 
ENDBRANCH   2  12
ENDBRANCH   1   8
BRANCH   1  13
ATOM     13  N   UNL     1       2.227   1.013  -3.555  0.00  0.00    +0.388 N 
ATOM     14  C   UNL     1       2.887  -0.183  -3.016  0.00  0.00    -0.077 C 
ATOM     15  C   UNL     1       3.940  -0.678  -4.010  0.00  0.00    -0.018 C 
ATOM     16  C   UNL     1       3.264  -1.003  -5.344  0.00  0.00    -0.001 C 
ATOM     17  C   UNL     1       2.543   0.245  -5.860  0.00  0.00    -0.031 C 
ATOM     18  C   UNL     1       1.530   0.714  -4.813  0.00  0.00    -0.074 C 
ATOM     19  C   UNL     1       1.814  -0.087  -7.163  0.00  0.00    +0.005 C 
ATOM     20  H   UNL     1       3.007   1.757  -3.773  0.00  0.00    -0.080 HD
ENDBRANCH   1  13
BRANCH   1  21
ATOM     21  C   UNL     1       0.753   2.891  -3.105  0.00  0.00    -0.056 A 
ATOM     22  C   UNL     1       1.596   3.812  -3.698  0.00  0.00    +0.002 A 
ATOM     23  C   UNL     1       1.087   4.998  -4.194  0.00  0.00    +0.003 A 
ATOM     24  C   UNL     1      -0.265   5.267  -4.087  0.00  0.00    -0.050 A 
ATOM     25  C   UNL     1      -1.108   4.349  -3.490  0.00  0.00    +0.003 A 
ATOM     26  C   UNL     1      -0.599   3.161  -2.999  0.00  0.00    +0.002 A 
ATOM     27  C   UNL     1      -0.819   6.563  -4.622  0.00  0.00    +0.044 C 
ENDBRANCH   1  21
TORSDOF 4
