REMARK  Name = ZINC36207340
REMARK  18 active torsions:
REMARK  status: ('A' for Active; 'I' for Inactive)
REMARK    1  A    between atoms: C_1  and  C_2
REMARK    2  A    between atoms: C_8  and  C_19
REMARK    3  A    between atoms: C_12  and  C_13
REMARK    4  A    between atoms: C_13  and  O_15
REMARK    5  A    between atoms: O_15  and  C_16
REMARK    6  A    between atoms: C_16  and  C_17
REMARK    7  A    between atoms: C_19  and  N_20
REMARK    8  A    between atoms: N_20  and  C_21
REMARK    9  A    between atoms: N_20  and  C_30
REMARK   10  A    between atoms: C_21  and  C_22
REMARK   11  A    between atoms: C_22  and  C_24
REMARK   12  A    between atoms: C_22  and  O_29
REMARK   13  A    between atoms: C_24  and  O_25
REMARK   14  A    between atoms: O_25  and  C_26
REMARK   15  A    between atoms: C_26  and  C_27
REMARK   16  A    between atoms: C_30  and  C_31
REMARK   17  A    between atoms: C_31  and  C_32
REMARK   18  A    between atoms: C_31  and  C_33
REMARK                            x       y       z     vdW  Elec       q    Type
REMARK                         _______ _______ _______ _____ _____    ______ ____
ROOT
ATOM      1  C   UNL     1      -6.349  -3.844  -8.635  0.00  0.00    +0.046 C 
ATOM      2  C   UNL     1      -5.747  -4.634  -7.501  0.00  0.00    -0.015 A 
ATOM      3  C   UNL     1      -4.507  -4.268  -6.974  0.00  0.00    +0.076 A 
ATOM      4  C   UNL     1      -3.616  -3.152  -7.367  0.00  0.00    +0.260 A 
ATOM      5  O   UNL     1      -3.925  -2.394  -8.269  0.00  0.00    -0.267 OA
ATOM      6  N   UNL     1      -2.454  -2.999  -6.702  0.00  0.00    -0.312 N 
ATOM      7  H   UNL     1      -1.859  -2.273  -6.947  0.00  0.00    +0.170 HD
ATOM      8  C   UNL     1      -2.101  -3.837  -5.697  0.00  0.00    +0.094 A 
ATOM      9  N   UNL     1      -2.863  -4.829  -5.325  0.00  0.00    -0.229 NA
ATOM     10  C   UNL     1      -4.027  -5.070  -5.914  0.00  0.00    +0.116 A 
ATOM     11  S   UNL     1      -5.310  -6.280  -5.706  0.00  0.00    -0.062 S 
ATOM     12  C   UNL     1      -6.415  -5.706  -6.984  0.00  0.00    +0.102 A 
ENDROOT
BRANCH  12  13
ATOM     13  C   UNL     1      -7.716  -6.251  -7.380  0.00  0.00    +0.347 C 
ATOM     14  O   UNL     1      -8.343  -5.732  -8.284  0.00  0.00    -0.244 OA
BRANCH  13  15
ATOM     15  O   UNL     1      -8.218  -7.328  -6.743  0.00  0.00    -0.457 OA
BRANCH  15  16
ATOM     16  C   UNL     1      -9.491  -7.806  -7.182  0.00  0.00    +0.259 C 
BRANCH  16  17
ATOM     17  C   UNL     1      -9.887  -9.006  -6.360  0.00  0.00    +0.006 C 
ATOM     18  C   UNL     1     -11.106  -9.105  -5.891  0.00  0.00    +0.007 C 
ENDBRANCH  16  17
ENDBRANCH  15  16
ENDBRANCH  13  15
ENDBRANCH  12  13
BRANCH   8  19
ATOM     19  C   UNL     1      -0.789  -3.616  -4.988  0.00  0.00    -0.003 C 
BRANCH  19  20
ATOM     20  N   UNL     1      -0.549  -4.720  -4.048  0.00  0.00    +0.386 N 
ATOM     21  H   UNL     1      -1.349  -4.826  -3.442  0.00  0.00    -0.081 HD
BRANCH  20  22
ATOM     22  C   UNL     1      -0.336  -5.965  -4.799  0.00  0.00    -0.044 C 
BRANCH  22  23
ATOM     23  C   UNL     1      -0.266  -7.142  -3.824  0.00  0.00    +0.124 C 
BRANCH  23  24
ATOM     24  O   UNL     1       0.937  -7.055  -3.057  0.00  0.00    -0.391 OA
ATOM     25  H   UNL     1       1.745  -7.075  -3.588  0.00  0.00    +0.210 HD
ENDBRANCH  23  24
BRANCH  23  26
ATOM     26  C   UNL     1      -0.275  -8.455  -4.610  0.00  0.00    +0.190 C 
BRANCH  26  27
ATOM     27  O   UNL     1      -0.327  -9.555  -3.698  0.00  0.00    -0.365 OA
BRANCH  27  28
ATOM     28  C   UNL     1      -0.341 -10.835  -4.333  0.00  0.00    +0.248 C 
BRANCH  28  29
ATOM     29  C   UNL     1      -0.395 -11.890  -3.308  0.00  0.00    -0.077 C 
ATOM     30  C   UNL     1      -0.438 -12.731  -2.490  0.00  0.00    +0.006 C 
ENDBRANCH  28  29
ENDBRANCH  27  28
ENDBRANCH  26  27
ENDBRANCH  23  26
ENDBRANCH  22  23
ENDBRANCH  20  22
BRANCH  20  31
ATOM     31  C   UNL     1       0.641  -4.425  -3.240  0.00  0.00    -0.075 C 
BRANCH  31  32
ATOM     32  C   UNL     1       0.399  -3.157  -2.419  0.00  0.00    -0.034 C 
ATOM     33  C   UNL     1      -0.817  -3.362  -1.512  0.00  0.00    +0.005 C 
ATOM     34  C   UNL     1       1.631  -2.861  -1.561  0.00  0.00    +0.005 C 
ENDBRANCH  31  32
ENDBRANCH  20  31
ENDBRANCH  19  20
ENDBRANCH   8  19
TORSDOF 15
