REMARK  Name = ZINC06181492
REMARK  10 active torsions:
REMARK  status: ('A' for Active; 'I' for Inactive)
REMARK    1  A    between atoms: C_1  and  C_2
REMARK    2  A    between atoms: C_2  and  C_3
REMARK    3  A    between atoms: C_6  and  N_9
REMARK    4  A    between atoms: N_9  and  S_10
REMARK    5  A    between atoms: S_10  and  C_13
REMARK    6  A    between atoms: C_21  and  C_25
REMARK    7  A    between atoms: N_27  and  C_28
REMARK    8  A    between atoms: C_28  and  C_29
REMARK    9  A    between atoms: C_34  and  O_35
REMARK   10  A    between atoms: O_35  and  C_36
REMARK                            x       y       z     vdW  Elec       q    Type
REMARK                         _______ _______ _______ _____ _____    ______ ____
ROOT
ATOM      1  C   UNL     1       0.690   2.181   1.337  0.00  0.00    +0.109 A 
ATOM      2  C   UNL     1       1.256   0.917   1.435  0.00  0.00    +0.031 A 
ATOM      3  C   UNL     1       2.446   0.729   2.100  0.00  0.00    +0.028 A 
ATOM      4  C   UNL     1       3.097   1.814   2.684  0.00  0.00    +0.050 A 
ATOM      5  C   UNL     1       2.522   3.092   2.583  0.00  0.00    +0.048 A 
ATOM      6  C   UNL     1       1.315   3.268   1.906  0.00  0.00    +0.042 A 
ATOM      7  C   UNL     1       3.221   4.232   3.206  0.00  0.00    +0.202 A 
ATOM      8  O   UNL     1       2.768   5.362   3.148  0.00  0.00    -0.286 OA
ATOM      9  C   UNL     1       4.487   3.947   3.898  0.00  0.00    +0.100 A 
ATOM     10  C   UNL     1       4.952   2.649   3.931  0.00  0.00    +0.100 A 
ATOM     11  N   UNL     1       4.288   1.638   3.353  0.00  0.00    -0.360 N 
ATOM     12  H   UNL     1       4.663   0.745   3.408  0.00  0.00    +0.165 HD
ENDROOT
BRANCH   9  13
ATOM     13  C   UNL     1       5.245   5.029   4.546  0.00  0.00    +0.249 C 
ATOM     14  O   UNL     1       4.826   6.170   4.511  0.00  0.00    -0.270 OA
ATOM     15  N   UNL     1       6.404   4.755   5.178  0.00  0.00    -0.307 N 
ATOM     16  H   UNL     1       6.738   3.845   5.206  0.00  0.00    +0.149 HD
BRANCH  15  17
ATOM     17  C   UNL     1       7.159   5.833   5.823  0.00  0.00    +0.143 C 
BRANCH  17  18
ATOM     18  C   UNL     1       8.405   5.266   6.452  0.00  0.00    +0.011 A 
ATOM     19  C   UNL     1       8.441   5.015   7.810  0.00  0.00    +0.009 A 
ATOM     20  C   UNL     1       9.583   4.490   8.387  0.00  0.00    +0.001 A 
ATOM     21  C   UNL     1      10.695   4.226   7.609  0.00  0.00    +0.004 A 
ATOM     22  C   UNL     1      10.666   4.480   6.251  0.00  0.00    +0.046 A 
ATOM     23  C   UNL     1       9.519   5.001   5.669  0.00  0.00    +0.125 A 
BRANCH  23  24
ATOM     24  O   UNL     1       9.488   5.253   4.334  0.00  0.00    -0.495 OA
ATOM     25  C   UNL     1      10.671   4.956   3.590  0.00  0.00    +0.277 C 
ENDBRANCH  23  24
ENDBRANCH  17  18
ENDBRANCH  15  17
ENDBRANCH   9  13
BRANCH   1  26
ATOM     26  S   UNL     1      -0.831   2.396   0.474  0.00  0.00    +0.072 S 
ATOM     27  O   UNL     1      -0.817   3.717  -0.051  0.00  0.00    -0.150 OA
ATOM     28  O   UNL     1      -0.997   1.250  -0.350  0.00  0.00    -0.150 OA
BRANCH  26  29
ATOM     29  N   UNL     1      -2.044   2.349   1.601  0.00  0.00    -0.216 N 
ATOM     30  H   UNL     1      -2.605   3.127   1.742  0.00  0.00    +0.174 HD
BRANCH  29  34
ATOM     31  C   UNL     1      -2.686  -1.112   3.825  0.00  0.00    -0.048 A 
ATOM     32  C   UNL     1      -2.073  -0.019   4.411  0.00  0.00    +0.005 A 
ATOM     33  C   UNL     1      -1.859   1.130   3.676  0.00  0.00    +0.025 A 
ATOM     34  C   UNL     1      -2.259   1.188   2.347  0.00  0.00    +0.048 A 
ATOM     35  C   UNL     1      -2.879   0.090   1.763  0.00  0.00    +0.025 A 
ATOM     36  C   UNL     1      -3.085  -1.058   2.502  0.00  0.00    +0.005 A 
BRANCH  31  38
ATOM     37  C   UNL     1      -4.285  -2.286   5.313  0.00  0.00    +0.009 C 
ATOM     38  C   UNL     1      -2.918  -2.365   4.630  0.00  0.00    +0.032 C 
ENDBRANCH  31  38
ENDBRANCH  29  34
ENDBRANCH  26  29
ENDBRANCH   1  26
TORSDOF 8
