REMARK  Name = ZINC09962941
REMARK  11 active torsions:
REMARK  status: ('A' for Active; 'I' for Inactive)
REMARK    1  A    between atoms: C_1  and  C_2
REMARK    2  A    between atoms: N_5  and  S_8
REMARK    3  A    between atoms: S_8  and  C_11
REMARK    4  A    between atoms: N_17  and  C_22
REMARK    5  A    between atoms: C_22  and  C_23
REMARK    6  A    between atoms: N_25  and  C_26
REMARK    7  A    between atoms: C_26  and  C_27
REMARK    8  A    between atoms: C_27  and  C_28
REMARK    9  A    between atoms: C_28  and  N_29
REMARK   10  A    between atoms: C_30  and  C_38
REMARK   11  A    between atoms: C_35  and  C_37
REMARK                            x       y       z     vdW  Elec       q    Type
REMARK                         _______ _______ _______ _____ _____    ______ ____
ROOT
ATOM      1  C   UNL     1       0.837  -4.729   1.198  0.00  0.00    +0.107 A 
ATOM      2  C   UNL     1       0.128  -5.321   0.169  0.00  0.00    +0.032 A 
ATOM      3  C   UNL     1       0.553  -6.522  -0.370  0.00  0.00    +0.049 A 
ATOM      4  C   UNL     1       1.692  -7.134   0.123  0.00  0.00    +0.143 A 
ATOM      5  C   UNL     1       2.407  -6.538   1.161  0.00  0.00    +0.081 A 
ATOM      6  C   UNL     1       1.979  -5.332   1.693  0.00  0.00    +0.055 A 
ATOM      7  N   UNL     1       3.558  -7.170   1.653  0.00  0.00    -0.256 N 
ATOM      8  C   UNL     1       4.125  -8.155   0.923  0.00  0.00    +0.258 C 
ATOM      9  O   UNL     1       5.103  -8.738   1.343  0.00  0.00    -0.271 OA
ATOM     10  C   UNL     1       3.538  -8.529  -0.414  0.00  0.00    +0.325 C 
ATOM     11  O   UNL     1       2.125  -8.315  -0.395  0.00  0.00    -0.481 OA
ENDROOT
BRANCH   1  12
ATOM     12  S   UNL     1       0.288  -3.199   1.877  0.00  0.00    +0.061 S 
ATOM     13  O   UNL     1       0.821  -3.124   3.193  0.00  0.00    -0.153 OA
ATOM     14  O   UNL     1      -1.106  -3.115   1.614  0.00  0.00    -0.153 OA
BRANCH  12  19
ATOM     15  C   UNL     1       1.566   2.177   0.348  0.00  0.00    +0.007 C 
ATOM     16  C   UNL     1       1.653   0.654   0.234  0.00  0.00    -0.012 C 
ATOM     17  C   UNL     1       0.260   0.083  -0.042  0.00  0.00    +0.020 C 
ATOM     18  C   UNL     1       0.356  -1.439  -0.191  0.00  0.00    +0.110 C 
ATOM     19  N   UNL     1       1.009  -1.990   1.005  0.00  0.00    -0.177 NA
ATOM     20  C   UNL     1       2.312  -1.447   1.413  0.00  0.00    +0.110 C 
ATOM     21  C   UNL     1       2.194   0.074   1.543  0.00  0.00    +0.020 C 
ENDBRANCH  12  19
ENDBRANCH   1  12
BRANCH   7  22
ATOM     22  C   UNL     1       4.136  -6.768   2.937  0.00  0.00    +0.209 C 
BRANCH  22  23
ATOM     23  C   UNL     1       3.524  -7.588   4.043  0.00  0.00    +0.231 C 
ATOM     24  O   UNL     1       2.687  -8.426   3.784  0.00  0.00    -0.274 OA
ATOM     25  N   UNL     1       3.907  -7.390   5.320  0.00  0.00    -0.314 N 
ATOM     26  H   UNL     1       4.576  -6.720   5.527  0.00  0.00    +0.149 HD
BRANCH  25  27
ATOM     27  C   UNL     1       3.311  -8.188   6.395  0.00  0.00    +0.102 C 
BRANCH  27  28
ATOM     28  C   UNL     1       3.916  -7.767   7.736  0.00  0.00    +0.000 C 
BRANCH  28  29
ATOM     29  C   UNL     1       3.294  -8.600   8.859  0.00  0.00    -0.077 C 
BRANCH  29  30
ATOM     30  N   UNL     1       3.967  -8.292  10.128  0.00  0.00    +0.383 N 
ATOM     31  C   UNL     1       3.445  -9.169  11.183  0.00  0.00    -0.071 C 
ATOM     32  C   UNL     1       4.199  -8.908  12.488  0.00  0.00    -0.016 C 
ATOM     33  C   UNL     1       4.008  -7.444  12.898  0.00  0.00    -0.003 C 
ATOM     34  C   UNL     1       4.487  -6.539  11.759  0.00  0.00    -0.016 C 
ATOM     35  C   UNL     1       3.722  -6.888  10.481  0.00  0.00    -0.071 C 
ATOM     36  C   UNL     1       2.224  -6.674  10.709  0.00  0.00    -0.013 C 
ATOM     37  C   UNL     1       3.634 -10.630  10.770  0.00  0.00    -0.013 C 
ATOM     38  H   UNL     1       4.959  -8.444  10.027  0.00  0.00    -0.081 HD
ENDBRANCH  29  30
ENDBRANCH  28  29
ENDBRANCH  27  28
ENDBRANCH  25  27
ENDBRANCH  22  23
ENDBRANCH   7  22
TORSDOF 8
