REMARK  Name = ZINC09437803
REMARK  15 active torsions:
REMARK  status: ('A' for Active; 'I' for Inactive)
REMARK    1  A    between atoms: C_1  and  C_2
REMARK    2  A    between atoms: C_2  and  N_3
REMARK    3  A    between atoms: C_7  and  C_9
REMARK    4  A    between atoms: C_9  and  C_11
REMARK    5  A    between atoms: C_9  and  O_12
REMARK    6  A    between atoms: O_12  and  C_13
REMARK    7  A    between atoms: C_13  and  C_15
REMARK    8  A    between atoms: C_18  and  C_21
REMARK    9  A    between atoms: C_21  and  N_22
REMARK   10  A    between atoms: N_22  and  S_23
REMARK   11  A    between atoms: S_23  and  C_26
REMARK   12  A    between atoms: C_29  and  C_32
REMARK   13  A    between atoms: C_32  and  C_33
REMARK   14  A    between atoms: C_32  and  C_34
REMARK   15  A    between atoms: C_32  and  C_35
REMARK                            x       y       z     vdW  Elec       q    Type
REMARK                         _______ _______ _______ _____ _____    ______ ____
ROOT
ATOM      1  C   UNL     1      -3.330  -1.222  -1.250  0.00  0.00    +0.059 A 
ATOM      2  C   UNL     1      -4.033  -1.498  -0.076  0.00  0.00    +0.015 A 
ATOM      3  C   UNL     1      -5.327  -1.970  -0.146  0.00  0.00    +0.006 A 
ATOM      4  C   UNL     1      -5.926  -2.180  -1.376  0.00  0.00    -0.032 A 
ATOM      5  C   UNL     1      -5.233  -1.913  -2.543  0.00  0.00    +0.006 A 
ATOM      6  C   UNL     1      -3.940  -1.436  -2.488  0.00  0.00    +0.015 A 
ENDROOT
BRANCH   1   7
ATOM      7  C   UNL     1      -1.945  -0.712  -1.183  0.00  0.00    +0.340 C 
ATOM      8  O   UNL     1      -1.334  -0.477  -2.207  0.00  0.00    -0.245 OA
BRANCH   7   9
ATOM      9  O   UNL     1      -1.360  -0.507   0.012  0.00  0.00    -0.449 OA
BRANCH   9  10
ATOM     10  C   UNL     1       0.002  -0.004   0.002  0.00  0.00    +0.259 C 
ATOM     11  C   UNL     1      -0.019   1.526   0.010  0.00  0.00    +0.062 C 
BRANCH  10  16
ATOM     12  N   UNL     1       4.011  -0.435   2.620  0.00  0.00    -0.299 N 
ATOM     13  C   UNL     1       2.697  -0.692   2.467  0.00  0.00    +0.306 C 
ATOM     14  O   UNL     1       2.100  -1.327   3.314  0.00  0.00    -0.252 OA
ATOM     15  N   UNL     1       2.045  -0.246   1.375  0.00  0.00    -0.237 N 
ATOM     16  C   UNL     1       0.731  -0.503   1.223  0.00  0.00    +0.261 C 
ATOM     17  O   UNL     1       0.135  -1.137   2.068  0.00  0.00    -0.271 OA
ATOM     18  H   UNL     1       4.488   0.072   1.944  0.00  0.00    +0.150 HD
ATOM     19  H   UNL     1       2.522   0.261   0.699  0.00  0.00    +0.159 HD
BRANCH  12  21
ATOM     20  C   UNL     1       6.188  -0.495   3.734  0.00  0.00    +0.024 C 
ATOM     21  C   UNL     1       4.720  -0.920   3.807  0.00  0.00    +0.102 C 
ENDBRANCH  12  21
ENDBRANCH  10  16
ENDBRANCH   9  10
ENDBRANCH   7   9
ENDBRANCH   1   7
BRANCH   4  22
ATOM     22  C   UNL     1      -7.338  -2.701  -1.444  0.00  0.00    +0.141 C 
BRANCH  22  23
ATOM     23  N   UNL     1      -7.317  -4.165  -1.478  0.00  0.00    -0.186 NA
ATOM     24  H   UNL     1      -6.491  -4.634  -1.675  0.00  0.00    +0.148 HD
BRANCH  23  25
ATOM     25  S   UNL     1      -8.704  -5.020  -1.182  0.00  0.00    +0.059 S 
ATOM     26  O   UNL     1      -8.370  -6.395  -1.313  0.00  0.00    -0.153 OA
ATOM     27  O   UNL     1      -9.266  -4.483   0.008  0.00  0.00    -0.153 OA
BRANCH  25  28
ATOM     28  C   UNL     1      -9.832  -4.650  -2.483  0.00  0.00    +0.105 A 
ATOM     29  C   UNL     1     -10.710  -3.589  -2.357  0.00  0.00    +0.029 A 
ATOM     30  C   UNL     1     -11.592  -3.296  -3.380  0.00  0.00    +0.006 A 
ATOM     31  C   UNL     1     -11.604  -4.069  -4.526  0.00  0.00    -0.042 A 
ATOM     32  C   UNL     1     -10.730  -5.133  -4.650  0.00  0.00    +0.006 A 
ATOM     33  C   UNL     1      -9.844  -5.424  -3.629  0.00  0.00    +0.029 A 
BRANCH  31  34
ATOM     34  C   UNL     1     -12.569  -3.753  -5.639  0.00  0.00    -0.013 C 
ATOM     35  C   UNL     1     -13.483  -4.956  -5.879  0.00  0.00    +0.015 C 
ATOM     36  C   UNL     1     -13.415  -2.539  -5.250  0.00  0.00    +0.015 C 
ATOM     37  C   UNL     1     -11.788  -3.442  -6.917  0.00  0.00    +0.015 C 
ENDBRANCH  31  34
ENDBRANCH  25  28
ENDBRANCH  23  25
ENDBRANCH  22  23
ENDBRANCH   4  22
TORSDOF 10
