REMARK  Name = ZINC01224013
REMARK  2 active torsions:
REMARK  status: ('A' for Active; 'I' for Inactive)
REMARK    1  A    between atoms: C_1  and  C_2
REMARK    2  A    between atoms: C_6  and  C_14
REMARK                            x       y       z     vdW  Elec       q    Type
REMARK                         _______ _______ _______ _____ _____    ______ ____
ROOT
ATOM      1  C   UNL     1       5.699  -1.268   7.446  0.00  0.00    +0.045 C 
ATOM      2  C   UNL     1       5.228  -0.185   6.510  0.00  0.00    -0.031 A 
ATOM      3  C   UNL     1       5.378  -0.345   5.166  0.00  0.00    +0.014 A 
ATOM      4  C   UNL     1       4.938   0.662   4.293  0.00  0.00    +0.001 A 
ATOM      5  C   UNL     1       5.070   0.531   2.898  0.00  0.00    +0.020 A 
ATOM      6  C   UNL     1       4.625   1.553   2.109  0.00  0.00    +0.028 A 
ATOM      7  C   UNL     1       4.051   2.683   2.692  0.00  0.00    +0.136 A 
ATOM      8  N   UNL     1       3.925   2.799   3.993  0.00  0.00    -0.235 NA
ATOM      9  C   UNL     1       4.345   1.836   4.821  0.00  0.00    +0.074 A 
ATOM     10  C   UNL     1       4.207   1.967   6.213  0.00  0.00    +0.048 A 
ATOM     11  C   UNL     1       4.644   0.969   7.031  0.00  0.00    +0.046 A 
ATOM     12 CL   UNL     1       4.470   1.137   8.751  0.00  0.00    -0.083 Cl
ATOM     13 CL   UNL     1       3.486   3.967   1.669  0.00  0.00    -0.062 Cl
ENDROOT
BRANCH   6  14
ATOM     14  C   UNL     1       4.750   1.458   0.610  0.00  0.00    +0.193 C 
ATOM     15  N   UNL     1       3.590   2.103  -0.016  0.00  0.00    -0.322 N 
ATOM     16  C   UNL     1       2.374   1.429  -0.013  0.00  0.00    +0.041 A 
ATOM     17  C   UNL     1       1.163   2.101   0.002  0.00  0.00    +0.024 A 
ATOM     18  C   UNL     1      -0.017   1.382   0.010  0.00  0.00    +0.002 A 
ATOM     19  C   UNL     1       0.002  -0.004   0.002  0.00  0.00    +0.001 A 
ATOM     20  C   UNL     1       1.200  -0.689  -0.015  0.00  0.00    +0.015 A 
ATOM     21  C   UNL     1       2.397   0.023  -0.024  0.00  0.00    +0.058 A 
ATOM     22  C   UNL     1       3.704  -0.657  -0.050  0.00  0.00    +0.247 C 
ATOM     23  O   UNL     1       3.775  -1.843  -0.309  0.00  0.00    -0.270 OA
ATOM     24  N   UNL     1       4.821   0.051   0.218  0.00  0.00    -0.289 N 
ATOM     25  H   UNL     1       3.669   2.980  -0.423  0.00  0.00    +0.148 HD
ATOM     26  H   UNL     1       5.687  -0.381   0.149  0.00  0.00    +0.151 HD
ENDBRANCH   6  14
TORSDOF 1
