REMARK  Name = ZINC00933745
REMARK  9 active torsions:
REMARK  status: ('A' for Active; 'I' for Inactive)
REMARK    1  A    between atoms: C_5  and  C_7
REMARK    2  A    between atoms: C_7  and  N_8
REMARK    3  A    between atoms: N_8  and  C_9
REMARK    4  A    between atoms: N_8  and  S_15
REMARK    5  A    between atoms: S_15  and  C_18
REMARK    6  A    between atoms: C_21  and  S_24
REMARK    7  A    between atoms: S_24  and  N_27
REMARK    8  A    between atoms: N_27  and  C_28
REMARK    9  A    between atoms: C_28  and  C_29
REMARK                            x       y       z     vdW  Elec       q    Type
REMARK                         _______ _______ _______ _____ _____    ______ ____
ROOT
ATOM      1  S   UNL     1      -1.048   1.078  -8.037  0.00  0.00    +0.061 S 
ATOM      2  O   UNL     1      -0.140   2.130  -8.334  0.00  0.00    -0.153 OA
ATOM      3  O   UNL     1      -0.713  -0.291  -8.221  0.00  0.00    -0.153 OA
ENDROOT
BRANCH   1   4
ATOM      4  C   UNL     1      -1.496   1.264  -6.343  0.00  0.00    +0.106 A 
ATOM      5  C   UNL     1      -1.948   0.173  -5.624  0.00  0.00    +0.030 A 
ATOM      6  C   UNL     1      -2.299   0.318  -4.295  0.00  0.00    +0.030 A 
ATOM      7  C   UNL     1      -2.199   1.554  -3.685  0.00  0.00    +0.105 A 
ATOM      8  C   UNL     1      -1.753   2.646  -4.405  0.00  0.00    +0.030 A 
ATOM      9  C   UNL     1      -1.396   2.500  -5.733  0.00  0.00    +0.030 A 
BRANCH   7  10
ATOM     10  S   UNL     1      -2.647   1.740  -1.991  0.00  0.00    +0.058 S 
ATOM     11  O   UNL     1      -3.555   0.687  -1.694  0.00  0.00    -0.153 OA
ATOM     12  O   UNL     1      -2.981   3.108  -1.807  0.00  0.00    -0.153 OA
BRANCH  10  13
ATOM     13  N   UNL     1      -1.286   1.459  -1.091  0.00  0.00    -0.187 NA
ATOM     14  H   UNL     1      -1.248   0.695  -0.495  0.00  0.00    +0.148 HD
BRANCH  13  15
ATOM     15  C   UNL     1      -0.140   2.365  -1.194  0.00  0.00    +0.137 C 
BRANCH  15  16
ATOM     16  C   UNL     1       0.813   2.119  -0.022  0.00  0.00    +0.134 C 
ATOM     17  C   UNL     1       2.019   3.074  -0.118  0.00  0.00    +0.035 C 
ATOM     18  C   UNL     1       1.982   3.865   1.212  0.00  0.00    +0.031 C 
ATOM     19  C   UNL     1       1.137   2.935   2.120  0.00  0.00    +0.160 C 
ATOM     20  O   UNL     1       0.145   2.397   1.220  0.00  0.00    -0.375 OA
ENDBRANCH  15  16
ENDBRANCH  13  15
ENDBRANCH  10  13
ENDBRANCH   7  10
ENDBRANCH   1   4
BRANCH   1  21
ATOM     21  N   UNL     1      -2.409   1.358  -8.937  0.00  0.00    -0.169 NA
BRANCH  21  22
ATOM     22  C   UNL     1      -3.343   0.264  -9.212  0.00  0.00    +0.080 C 
ATOM     23  C   UNL     1      -3.456   0.057 -10.724  0.00  0.00    +0.020 C 
ATOM     24  C   UNL     1      -4.432  -1.086 -11.011  0.00  0.00    +0.002 C 
ATOM     25  C   UNL     1      -5.808  -0.737 -10.440  0.00  0.00    +0.000 C 
ATOM     26  C   UNL     1      -5.695  -0.529  -8.928  0.00  0.00    +0.002 C 
ATOM     27  C   UNL     1      -4.719   0.613  -8.641  0.00  0.00    +0.020 C 
ENDBRANCH  21  22
BRANCH  21  28
ATOM     28  C   UNL     1      -2.678   2.700  -9.459  0.00  0.00    +0.147 C 
BRANCH  28  33
ATOM     29  C   UNL     1      -0.758   1.940 -12.620  0.00  0.00    +0.000 A 
ATOM     30  C   UNL     1      -1.038   3.055 -13.389  0.00  0.00    +0.003 A 
ATOM     31  C   UNL     1      -1.849   4.055 -12.888  0.00  0.00    +0.038 A 
ATOM     32  C   UNL     1      -2.384   3.940 -11.616  0.00  0.00    +0.128 A 
ATOM     33  C   UNL     1      -2.099   2.826 -10.845  0.00  0.00    +0.003 A 
ATOM     34  C   UNL     1      -1.289   1.826 -11.349  0.00  0.00    +0.008 A 
ATOM     35  F   UNL     1      -3.181   4.915 -11.127  0.00  0.00    -0.205 F 
ENDBRANCH  28  33
ENDBRANCH  21  28
ENDBRANCH   1  21
TORSDOF 9
