REMARK  Name = ZINC34680139
REMARK  12 active torsions:
REMARK  status: ('A' for Active; 'I' for Inactive)
REMARK    1  A    between atoms: C_1  and  C_2
REMARK    2  A    between atoms: C_2  and  C_3
REMARK    3  A    between atoms: C_2  and  N_4
REMARK    4  A    between atoms: N_7  and  C_8
REMARK    5  A    between atoms: N_7  and  C_19
REMARK    6  A    between atoms: C_8  and  C_9
REMARK    7  A    between atoms: C_12  and  C_15
REMARK    8  A    between atoms: C_22  and  C_25
REMARK    9  A    between atoms: C_25  and  C_26
REMARK   10  A    between atoms: N_28  and  C_29
REMARK   11  A    between atoms: C_29  and  C_30
REMARK   12  A    between atoms: C_30  and  N_31
REMARK                            x       y       z     vdW  Elec       q    Type
REMARK                         _______ _______ _______ _____ _____    ______ ____
ROOT
ATOM      1  N   UNL     1       0.189  -3.331   3.554  0.00  0.00    -0.297 N 
ATOM      2  C   UNL     1      -0.207  -2.043   3.533  0.00  0.00    +0.307 C 
ATOM      3  O   UNL     1      -1.392  -1.772   3.501  0.00  0.00    -0.252 OA
ATOM      4  N   UNL     1       0.710  -1.056   3.546  0.00  0.00    -0.251 N 
ATOM      5  H   UNL     1       1.133  -3.549   3.514  0.00  0.00    +0.151 HD
ENDROOT
BRANCH   4   6
ATOM      6  C   UNL     1       2.073  -1.365   3.467  0.00  0.00    +0.038 A 
ATOM      7  C   UNL     1       2.699  -2.021   4.519  0.00  0.00    +0.024 A 
ATOM      8  C   UNL     1       4.044  -2.325   4.439  0.00  0.00    +0.006 A 
ATOM      9  C   UNL     1       4.766  -1.978   3.312  0.00  0.00    -0.039 A 
ATOM     10  C   UNL     1       4.146  -1.325   2.263  0.00  0.00    +0.006 A 
ATOM     11  C   UNL     1       2.800  -1.023   2.335  0.00  0.00    +0.024 A 
BRANCH   9  12
ATOM     12  C   UNL     1       6.234  -2.312   3.227  0.00  0.00    +0.130 C 
BRANCH  12  13
ATOM     13  C   UNL     1       6.404  -3.676   2.608  0.00  0.00    +0.217 C 
ATOM     14  O   UNL     1       5.429  -4.314   2.270  0.00  0.00    -0.275 OA
ATOM     15  N   UNL     1       7.638  -4.186   2.431  0.00  0.00    -0.317 N 
ATOM     16  H   UNL     1       8.417  -3.676   2.702  0.00  0.00    +0.149 HD
BRANCH  15  17
ATOM     17  C   UNL     1       7.803  -5.512   1.830  0.00  0.00    +0.085 C 
BRANCH  17  18
ATOM     18  C   UNL     1       9.293  -5.851   1.744  0.00  0.00    -0.060 C 
BRANCH  18  19
ATOM     19  N   UNL     1       9.459  -7.180   1.141  0.00  0.00    +0.381 N 
ATOM     20  C   UNL     1       9.067  -7.146  -0.291  0.00  0.00    -0.079 C 
ATOM     21  C   UNL     1       9.802  -8.371  -0.889  0.00  0.00    -0.020 C 
ATOM     22  C   UNL     1      11.149  -8.370  -0.132  0.00  0.00    -0.020 C 
ATOM     23  C   UNL     1      10.884  -7.575   1.160  0.00  0.00    -0.079 C 
ATOM     24  H   UNL     1       8.903  -7.860   1.639  0.00  0.00    -0.082 HD
ENDBRANCH  18  19
ENDBRANCH  17  18
ENDBRANCH  15  17
ENDBRANCH  12  13
ENDBRANCH   9  12
ENDBRANCH   4   6
BRANCH   1  26
ATOM     25  C   UNL     1      -1.317  -4.735   2.235  0.00  0.00    +0.027 C 
ATOM     26  C   UNL     1      -0.807  -4.402   3.638  0.00  0.00    +0.068 C 
ATOM     27  C   UNL     1      -0.166  -5.646   4.257  0.00  0.00    +0.027 C 
ENDBRANCH   1  26
BRANCH   4  28
ATOM     28  C   UNL     1       0.281   0.342   3.643  0.00  0.00    +0.150 C 
BRANCH  28  29
ATOM     29  C   UNL     1       0.198   0.742   5.093  0.00  0.00    -0.030 A 
ATOM     30  C   UNL     1      -0.982   0.568   5.792  0.00  0.00    +0.006 A 
ATOM     31  C   UNL     1      -1.058   0.935   7.122  0.00  0.00    +0.013 A 
ATOM     32  C   UNL     1       0.045   1.477   7.754  0.00  0.00    +0.055 A 
ATOM     33  C   UNL     1       1.225   1.651   7.056  0.00  0.00    +0.013 A 
ATOM     34  C   UNL     1       1.303   1.280   5.726  0.00  0.00    +0.006 A 
BRANCH  32  35
ATOM     35  C   UNL     1      -0.038   1.879   9.204  0.00  0.00    +0.417 C 
ATOM     36  F   UNL     1       0.325   0.794  10.010  0.00  0.00    -0.166 F 
ATOM     37  F   UNL     1       0.831   2.949   9.443  0.00  0.00    -0.166 F 
ATOM     38  F   UNL     1      -1.349   2.266   9.506  0.00  0.00    -0.166 F 
ENDBRANCH  32  35
ENDBRANCH  28  29
ENDBRANCH   4  28
TORSDOF 10
