REMARK  Name = ZINC02286595
REMARK  6 active torsions:
REMARK  status: ('A' for Active; 'I' for Inactive)
REMARK    1  A    between atoms: C_1  and  C_2
REMARK    2  A    between atoms: C_5  and  N_8
REMARK    3  A    between atoms: C_21  and  C_25
REMARK    4  A    between atoms: C_25  and  C_26
REMARK    5  A    between atoms: C_25  and  C_27
REMARK    6  A    between atoms: C_25  and  C_28
REMARK                            x       y       z     vdW  Elec       q    Type
REMARK                         _______ _______ _______ _____ _____    ______ ____
ROOT
ATOM      1  N   UNL     1       4.356  -3.815  -5.644  0.00  0.00    -0.256 N 
ATOM      2  C   UNL     1       3.210  -3.262  -5.183  0.00  0.00    +0.268 A 
ATOM      3  O   UNL     1       2.116  -3.725  -5.452  0.00  0.00    -0.267 OA
ATOM      4  C   UNL     1       3.365  -2.061  -4.330  0.00  0.00    +0.074 A 
ATOM      5  C   UNL     1       2.302  -1.286  -3.714  0.00  0.00    -0.023 A 
ATOM      6  C   UNL     1       2.705  -0.226  -2.977  0.00  0.00    -0.004 A 
ATOM      7  S   UNL     1       4.476  -0.238  -3.087  0.00  0.00    -0.075 S 
ATOM      8  C   UNL     1       4.673  -1.615  -4.085  0.00  0.00    +0.092 A 
ATOM      9  N   UNL     1       5.780  -2.238  -4.595  0.00  0.00    -0.329 N 
ATOM     10  H   UNL     1       6.702  -1.899  -4.405  0.00  0.00    +0.168 HD
ATOM     11  C   UNL     1       5.575  -3.333  -5.367  0.00  0.00    +0.166 A 
ATOM     12  S   UNL     1       6.938  -4.137  -6.020  0.00  0.00    -0.012 S 
ATOM     13  C   UNL     1       1.837   0.742  -2.234  0.00  0.00    +0.046 C 
ATOM     14  C   UNL     1       0.393   0.578  -2.731  0.00  0.00    -0.000 C 
ATOM     15  C   UNL     1       0.042  -0.912  -2.752  0.00  0.00    +0.009 C 
ATOM     16  C   UNL     1       0.821  -1.614  -3.865  0.00  0.00    +0.037 C 
ENDROOT
BRANCH   1  21
ATOM     17  C   UNL     1       3.975  -8.429  -8.926  0.00  0.00    +0.044 C 
ATOM     18  C   UNL     1       4.077  -7.204  -8.055  0.00  0.00    -0.050 A 
ATOM     19  C   UNL     1       4.176  -7.340  -6.682  0.00  0.00    +0.005 A 
ATOM     20  C   UNL     1       4.268  -6.219  -5.881  0.00  0.00    +0.026 A 
ATOM     21  C   UNL     1       4.262  -4.954  -6.454  0.00  0.00    +0.052 A 
ATOM     22  C   UNL     1       4.158  -4.821  -7.832  0.00  0.00    +0.026 A 
ATOM     23  C   UNL     1       4.070  -5.946  -8.629  0.00  0.00    +0.005 A 
ENDBRANCH   1  21
BRANCH  14  24
ATOM     24  C   UNL     1      -0.560   1.317  -1.790  0.00  0.00    -0.035 C 
ATOM     25  C   UNL     1      -0.202   2.804  -1.765  0.00  0.00    +0.011 C 
ATOM     26  C   UNL     1      -0.433   0.738  -0.379  0.00  0.00    +0.011 C 
ATOM     27  C   UNL     1      -1.998   1.146  -2.283  0.00  0.00    +0.011 C 
ENDBRANCH  14  24
TORSDOF 2
