REMARK  Name = ZINC47401818
REMARK  6 active torsions:
REMARK  status: ('A' for Active; 'I' for Inactive)
REMARK    1  A    between atoms: C_1  and  C_2
REMARK    2  A    between atoms: C_2  and  C_3
REMARK    3  A    between atoms: C_2  and  N_4
REMARK    4  A    between atoms: N_7  and  C_8
REMARK    5  A    between atoms: C_13  and  N_14
REMARK    6  A    between atoms: C_15  and  C_17
REMARK                            x       y       z     vdW  Elec       q    Type
REMARK                         _______ _______ _______ _____ _____    ______ ____
ROOT
ATOM      1  C   UNL     1      -3.153  -3.453  -1.077  0.00  0.00    +0.056 A 
ATOM      2  C   UNL     1      -2.102  -4.213  -1.567  0.00  0.00    +0.025 A 
ATOM      3  C   UNL     1      -2.351  -5.437  -2.159  0.00  0.00    +0.002 A 
ATOM      4  C   UNL     1      -3.647  -5.907  -2.266  0.00  0.00    +0.002 A 
ATOM      5  C   UNL     1      -4.701  -5.157  -1.780  0.00  0.00    +0.025 A 
ATOM      6  C   UNL     1      -4.460  -3.930  -1.179  0.00  0.00    +0.055 A 
ENDROOT
BRANCH   1  10
ATOM      7  N   UNL     1      -1.421  -0.735   0.559  0.00  0.00    -0.297 N 
ATOM      8  C   UNL     1      -1.701  -1.963   0.080  0.00  0.00    +0.304 C 
ATOM      9  O   UNL     1      -0.868  -2.847   0.149  0.00  0.00    -0.253 OA
ATOM     10  N   UNL     1      -2.903  -2.213  -0.475  0.00  0.00    -0.268 N 
ATOM     11  H   UNL     1      -2.086  -0.030   0.504  0.00  0.00    +0.151 HD
ATOM     12  H   UNL     1      -3.595  -1.534  -0.458  0.00  0.00    +0.156 HD
BRANCH   7  14
ATOM     13  C   UNL     1       0.198   1.030   1.052  0.00  0.00    +0.027 C 
ATOM     14  C   UNL     1      -0.114  -0.464   1.163  0.00  0.00    +0.068 C 
ATOM     15  C   UNL     1      -0.139  -0.872   2.637  0.00  0.00    +0.027 C 
ENDBRANCH   7  14
ENDBRANCH   1  10
BRANCH   6  16
ATOM     16  N   UNL     1      -5.525  -3.171  -0.681  0.00  0.00    -0.280 N 
ATOM     17  C   UNL     1      -6.763  -3.333  -1.188  0.00  0.00    +0.255 C 
ATOM     18  O   UNL     1      -6.937  -4.062  -2.146  0.00  0.00    -0.270 OA
ATOM     19  H   UNL     1      -5.373  -2.528   0.030  0.00  0.00    +0.155 HD
BRANCH  17  20
ATOM     20  C   UNL     1      -7.905  -2.627  -0.583  0.00  0.00    +0.122 A 
ATOM     21  C   UNL     1      -9.193  -2.778  -1.081  0.00  0.00    +0.031 A 
ATOM     22  C   UNL     1     -10.237  -2.041  -0.465  0.00  0.00    +0.018 A 
ATOM     23  C   UNL     1     -11.577  -2.300  -0.787  0.00  0.00    +0.011 A 
ATOM     24  C   UNL     1     -12.572  -1.611  -0.155  0.00  0.00    +0.001 A 
ATOM     25  C   UNL     1     -12.269  -0.649   0.799  0.00  0.00    +0.004 A 
ATOM     26  C   UNL     1     -10.957  -0.365   1.118  0.00  0.00    +0.047 A 
ATOM     27  C   UNL     1      -9.928  -1.047   0.483  0.00  0.00    +0.139 A 
ATOM     28  O   UNL     1      -8.636  -0.746   0.755  0.00  0.00    -0.422 OA
ATOM     29  C   UNL     1      -7.728  -1.736   0.578  0.00  0.00    +0.350 A 
ATOM     30  O   UNL     1      -6.796  -1.884   1.347  0.00  0.00    -0.244 OA
ENDBRANCH  17  20
ENDBRANCH   6  16
TORSDOF 4
