REMARK  Name = ZINC14878891
REMARK  14 active torsions:
REMARK  status: ('A' for Active; 'I' for Inactive)
REMARK    1  A    between atoms: C_1  and  C_2
REMARK    2  A    between atoms: C_2  and  C_3
REMARK    3  A    between atoms: C_2  and  C_4
REMARK    4  A    between atoms: C_4  and  C_5
REMARK    5  A    between atoms: C_5  and  C_7
REMARK    6  A    between atoms: C_12  and  C_15
REMARK    7  A    between atoms: C_15  and  C_26
REMARK    8  A    between atoms: N_18  and  C_22
REMARK    9  A    between atoms: C_22  and  C_23
REMARK   10  A    between atoms: C_23  and  N_72
REMARK   11  A    between atoms: C_24  and  N_72
REMARK   12  A    between atoms: C_25  and  N_72
REMARK   13  A    between atoms: C_26  and  C_27
REMARK   14  A    between atoms: C_27  and  C_28
REMARK                            x       y       z     vdW  Elec       q    Type
REMARK                         _______ _______ _______ _____ _____    ______ ____
ROOT
ATOM      1  C   UNL     1      -1.626   4.426   6.756  0.00  0.00    +0.116 C 
ATOM      2  C   UNL     1      -0.469   5.314   6.343  0.00  0.00    +0.247 C 
ATOM      3  O   UNL     1      -0.301   5.844   5.266  0.00  0.00    -0.273 OA
ATOM      4  N   UNL     1       0.334   5.392   7.423  0.00  0.00    -0.226 N 
ATOM      5  C   UNL     1      -0.150   4.684   8.450  0.00  0.00    +0.309 C 
ATOM      6  O   UNL     1       0.398   4.602   9.532  0.00  0.00    -0.252 OA
ATOM      7  N   UNL     1      -1.315   4.074   8.153  0.00  0.00    -0.285 N 
ATOM      8  H   UNL     1      -1.845   3.513   8.741  0.00  0.00    +0.151 HD
ENDROOT
BRANCH   1  14
ATOM      9  C   UNL     1      -0.191   1.211   2.595  0.00  0.00    +0.282 C 
ATOM     10  O   UNL     1      -0.529   1.636   1.510  0.00  0.00    -0.267 OA
ATOM     11  N   UNL     1      -0.879   1.562   3.700  0.00  0.00    -0.295 N 
ATOM     12  C   UNL     1      -2.143   2.303   3.590  0.00  0.00    +0.108 C 
ATOM     13  C   UNL     1      -2.059   3.561   4.453  0.00  0.00    +0.025 C 
ATOM     14  C   UNL     1      -1.680   3.171   5.884  0.00  0.00    +0.024 C 
ATOM     15  C   UNL     1      -0.309   2.491   5.883  0.00  0.00    +0.025 C 
ATOM     16  C   UNL     1      -0.376   1.216   5.036  0.00  0.00    +0.108 C 
BRANCH   9  17
ATOM     17  C   UNL     1       0.985   0.302   2.707  0.00  0.00    +0.218 C 
ATOM     18  O   UNL     1       1.229  -0.243   3.757  0.00  0.00    -0.287 OA
BRANCH  17  19
ATOM     19  C   UNL     1       1.869   0.062   1.510  0.00  0.00    +0.087 C 
BRANCH  19  21
ATOM     20  C   UNL     1       2.398  -2.269   2.235  0.00  0.00    +0.007 C 
ATOM     21  C   UNL     1       2.993  -0.903   1.891  0.00  0.00    -0.010 C 
ATOM     22  C   UNL     1       3.961  -1.049   0.715  0.00  0.00    +0.007 C 
ENDBRANCH  19  21
ENDBRANCH  17  19
ENDBRANCH   9  17
ENDBRANCH   1  14
BRANCH   4  23
ATOM     23  C   UNL     1       1.583   6.156   7.466  0.00  0.00    +0.099 C 
BRANCH  23  24
ATOM     24  C   UNL     1       1.292   7.582   7.937  0.00  0.00    -0.060 C 
BRANCH  24  27
ATOM     25  C   UNL     1       3.096   8.532   6.631  0.00  0.00    -0.097 C 
ATOM     26  C   UNL     1       2.347   9.642   8.649  0.00  0.00    -0.097 C 
ATOM     27  N   UNL     1       2.563   8.334   7.996  0.00  0.00    +0.377 N 
ATOM     28  H   UNL     1       3.244   7.795   8.545  0.00  0.00    -0.083 HD
ENDBRANCH  24  27
ENDBRANCH  23  24
ENDBRANCH   4  23
BRANCH   1  29
ATOM     29  C   UNL     1      -2.948   5.193   6.676  0.00  0.00    +0.040 C 
BRANCH  29  30
ATOM     30  C   UNL     1      -2.867   6.442   7.557  0.00  0.00    +0.038 C 
BRANCH  30  31
ATOM     31  C   UNL     1      -4.169   7.197   7.478  0.00  0.00    -0.047 A 
ATOM     32  C   UNL     1      -4.344   8.175   6.516  0.00  0.00    +0.003 A 
ATOM     33  C   UNL     1      -5.539   8.864   6.441  0.00  0.00    +0.000 A 
ATOM     34  C   UNL     1      -6.557   8.583   7.334  0.00  0.00    +0.000 A 
ATOM     35  C   UNL     1      -6.381   7.608   8.298  0.00  0.00    +0.000 A 
ATOM     36  C   UNL     1      -5.187   6.915   8.370  0.00  0.00    +0.003 A 
ENDBRANCH  30  31
ENDBRANCH  29  30
ENDBRANCH   1  29
TORSDOF 10
