REMARK  Name = ZINC35834826
REMARK  14 active torsions:
REMARK  status: ('A' for Active; 'I' for Inactive)
REMARK    1  A    between atoms: C_1  and  O_2
REMARK    2  A    between atoms: O_2  and  C_3
REMARK    3  A    between atoms: C_6  and  C_11
REMARK    4  A    between atoms: C_8  and  O_9
REMARK    5  A    between atoms: O_9  and  C_10
REMARK    6  A    between atoms: C_11  and  C_12
REMARK    7  A    between atoms: C_12  and  N_13
REMARK    8  A    between atoms: C_19  and  C_28
REMARK    9  A    between atoms: N_24  and  C_25
REMARK   10  A    between atoms: C_25  and  C_26
REMARK   11  A    between atoms: C_30  and  O_36
REMARK   12  A    between atoms: C_32  and  O_34
REMARK   13  A    between atoms: O_34  and  C_35
REMARK   14  A    between atoms: O_36  and  C_37
REMARK                            x       y       z     vdW  Elec       q    Type
REMARK                         _______ _______ _______ _____ _____    ______ ____
ROOT
ATOM      1  N   UNL     1       4.640  -3.366  -5.213  0.00  0.00    -0.292 N 
ATOM      2  C   UNL     1       4.770  -4.813  -5.439  0.00  0.00    +0.159 C 
ATOM      3  C   UNL     1       5.516  -4.937  -6.749  0.00  0.00    +0.043 C 
ATOM      4  C   UNL     1       5.755  -3.679  -7.170  0.00  0.00    +0.058 C 
ATOM      5  C   UNL     1       5.227  -2.746  -6.254  0.00  0.00    +0.247 C 
ATOM      6  O   UNL     1       5.295  -1.538  -6.385  0.00  0.00    -0.270 OA
ATOM      7  C   UNL     1       6.501  -3.503  -8.477  0.00  0.00    +0.142 C 
ATOM      8  N   UNL     1       6.904  -4.730  -9.184  0.00  0.00    -0.288 N 
ATOM      9  C   UNL     1       6.592  -5.920  -8.635  0.00  0.00    +0.307 C 
ATOM     10  O   UNL     1       6.921  -6.939  -9.211  0.00  0.00    -0.252 OA
ATOM     11  N   UNL     1       5.930  -6.017  -7.474  0.00  0.00    -0.253 N 
ATOM     12  H   UNL     1       7.384  -4.683 -10.026  0.00  0.00    +0.151 HD
ENDROOT
BRANCH   7  13
ATOM     13  C   UNL     1       5.628  -2.699  -9.406  0.00  0.00    -0.016 A 
ATOM     14  C   UNL     1       4.595  -3.314 -10.088  0.00  0.00    +0.051 A 
ATOM     15  C   UNL     1       3.790  -2.576 -10.943  0.00  0.00    +0.124 A 
ATOM     16  C   UNL     1       4.021  -1.219 -11.113  0.00  0.00    +0.091 A 
ATOM     17  C   UNL     1       5.058  -0.604 -10.427  0.00  0.00    +0.124 A 
ATOM     18  C   UNL     1       5.857  -1.346  -9.569  0.00  0.00    +0.051 A 
BRANCH  17  19
ATOM     19  O   UNL     1       5.287   0.725 -10.592  0.00  0.00    -0.495 OA
ATOM     20  C   UNL     1       4.423   1.427 -11.487  0.00  0.00    +0.277 C 
ENDBRANCH  17  19
BRANCH  15  21
ATOM     21  O   UNL     1       2.775  -3.182 -11.614  0.00  0.00    -0.495 OA
ATOM     22  C   UNL     1       1.987  -2.360 -12.478  0.00  0.00    +0.277 C 
ENDBRANCH  15  21
ENDBRANCH   7  13
BRANCH   1  23
ATOM     23  C   UNL     1       3.989  -2.719  -4.072  0.00  0.00    +0.113 C 
BRANCH  23  24
ATOM     24  C   UNL     1       2.507  -2.501  -4.386  0.00  0.00    +0.054 C 
BRANCH  24  28
ATOM     25  C   UNL     1       0.606  -0.608  -1.056  0.00  0.00    +0.161 A 
ATOM     26  C   UNL     1       1.173   0.159  -2.062  0.00  0.00    +0.049 A 
ATOM     27  C   UNL     1       1.787  -0.456  -3.137  0.00  0.00    +0.007 A 
ATOM     28  C   UNL     1       1.837  -1.836  -3.212  0.00  0.00    -0.042 A 
ATOM     29  C   UNL     1       1.273  -2.606  -2.212  0.00  0.00    +0.053 A 
ATOM     30  C   UNL     1       0.662  -1.996  -1.129  0.00  0.00    +0.162 A 
BRANCH  25  32
ATOM     31  C   UNL     1      -0.017   1.425   0.010  0.00  0.00    +0.277 C 
ATOM     32  O   UNL     1       0.002  -0.004   0.002  0.00  0.00    -0.491 OA
ENDBRANCH  25  32
BRANCH  30  33
ATOM     33  O   UNL     1       0.112  -2.753  -0.142  0.00  0.00    -0.491 OA
ATOM     34  C   UNL     1       0.206  -4.171  -0.283  0.00  0.00    +0.277 C 
ENDBRANCH  30  33
ENDBRANCH  24  28
ENDBRANCH  23  24
ENDBRANCH   1  23
BRANCH  11  35
ATOM     35  C   UNL     1       5.636  -7.355  -6.955  0.00  0.00    +0.141 C 
BRANCH  35  36
ATOM     36  C   UNL     1       4.300  -7.815  -7.480  0.00  0.00    -0.015 C 
ATOM     37  C   UNL     1       4.205  -8.954  -8.121  0.00  0.00    +0.005 C 
ENDBRANCH  35  36
ENDBRANCH  11  35
TORSDOF 10
