REMARK  Name = ZINC65320931
REMARK  3 active torsions:
REMARK  status: ('A' for Active; 'I' for Inactive)
REMARK    1  A    between atoms: C_8  and  C_13
REMARK    2  A    between atoms: C_13  and  C_14
REMARK    3  A    between atoms: C_16  and  C_19
REMARK                            x       y       z     vdW  Elec       q    Type
REMARK                         _______ _______ _______ _____ _____    ______ ____
ROOT
ATOM      1  C   UNL     1      -0.017   1.377   0.010  0.00  0.00    +0.002 A 
ATOM      2  C   UNL     1       1.167   2.091   0.002  0.00  0.00    +0.002 A 
ATOM      3  C   UNL     1       2.380   1.423  -0.012  0.00  0.00    +0.031 A 
ATOM      4  C   UNL     1       2.401   0.047  -0.019  0.00  0.00    +0.134 A 
ATOM      5  C   UNL     1       1.216  -0.680  -0.014  0.00  0.00    +0.059 A 
ATOM      6  C   UNL     1       0.002  -0.004   0.002  0.00  0.00    +0.025 A 
ATOM      7  N   UNL     1       1.252  -2.072  -0.030  0.00  0.00    -0.300 N 
ATOM      8  C   UNL     1       2.333  -2.816   0.308  0.00  0.00    +0.130 C 
ATOM      9  N   UNL     1       3.547  -2.405   0.345  0.00  0.00    -0.117 NA
ATOM     10  S   UNL     1       3.929  -0.836  -0.034  0.00  0.00    +0.102 S 
ATOM     11  O   UNL     1       4.389  -0.838  -1.379  0.00  0.00    -0.146 OA
ATOM     12  O   UNL     1       4.707  -0.331   1.042  0.00  0.00    -0.146 OA
ATOM     13  H   UNL     1       0.447  -2.541  -0.302  0.00  0.00    +0.153 HD
ENDROOT
BRANCH   8  14
ATOM     14  C   UNL     1       2.086  -4.257   0.675  0.00  0.00    +0.172 C 
BRANCH  14  15
ATOM     15  C   UNL     1       3.394  -4.920   1.020  0.00  0.00    +0.235 A 
ATOM     16  N   UNL     1       3.928  -4.980   2.206  0.00  0.00    -0.191 NA
ATOM     17  C   UNL     1       5.097  -5.644   2.152  0.00  0.00    +0.202 A 
ATOM     18  N   UNL     1       5.311  -6.014   0.914  0.00  0.00    -0.056 NA
ATOM     19  O   UNL     1       4.202  -5.551   0.158  0.00  0.00    -0.337 OA
BRANCH  17  20
ATOM     20  C   UNL     1       5.993  -5.914   3.304  0.00  0.00    +0.025 A 
ATOM     21  C   UNL     1       5.646  -5.469   4.579  0.00  0.00    +0.012 A 
ATOM     22  C   UNL     1       6.483  -5.722   5.647  0.00  0.00    +0.003 A 
ATOM     23  C   UNL     1       7.664  -6.415   5.456  0.00  0.00    +0.038 A 
ATOM     24  C   UNL     1       8.015  -6.859   4.191  0.00  0.00    +0.124 A 
ATOM     25  C   UNL     1       7.181  -6.616   3.116  0.00  0.00    +0.050 A 
ATOM     26  F   UNL     1       9.171  -7.535   4.010  0.00  0.00    -0.205 F 
ENDBRANCH  17  20
ENDBRANCH  14  15
ENDBRANCH   8  14
TORSDOF 3
