REMARK  Name = ZINC01873473
REMARK  13 active torsions:
REMARK  status: ('A' for Active; 'I' for Inactive)
REMARK    1  A    between atoms: C_1  and  C_2
REMARK    2  A    between atoms: C_2  and  O_3
REMARK    3  A    between atoms: O_3  and  C_4
REMARK    4  A    between atoms: C_4  and  C_6
REMARK    5  A    between atoms: C_7  and  C_39
REMARK    6  A    between atoms: C_8  and  C_34
REMARK    7  A    between atoms: C_10  and  N_11
REMARK    8  A    between atoms: C_12  and  C_14
REMARK    9  A    between atoms: C_19  and  C_30
REMARK   10  A    between atoms: C_22  and  C_25
REMARK   11  A    between atoms: C_34  and  O_36
REMARK   12  A    between atoms: O_36  and  C_37
REMARK   13  A    between atoms: C_37  and  C_38
REMARK                            x       y       z     vdW  Elec       q    Type
REMARK                         _______ _______ _______ _____ _____    ______ ____
ROOT
ATOM      1  N   UNL     1      -1.514   2.072  -2.471  0.00  0.00    -0.274 N 
ATOM      2  C   UNL     1      -2.268   2.502  -3.503  0.00  0.00    +0.269 C 
ATOM      3  O   UNL     1      -3.313   3.085  -3.290  0.00  0.00    -0.268 OA
ATOM      4  H   UNL     1      -0.680   1.608  -2.641  0.00  0.00    +0.156 HD
ENDROOT
BRANCH   2   5
ATOM      5  C   UNL     1      -1.823   2.266  -4.891  0.00  0.00    +0.149 A 
ATOM      6  C   UNL     1      -2.511   2.661  -6.061  0.00  0.00    +0.078 A 
ATOM      7  C   UNL     1      -1.778   2.262  -7.119  0.00  0.00    +0.119 A 
ATOM      8  N   UNL     1      -0.660   1.632  -6.649  0.00  0.00    -0.238 N 
ATOM      9  N   UNL     1      -0.710   1.654  -5.255  0.00  0.00    -0.164 NA
ATOM     10  C   UNL     1       0.374   1.058  -7.514  0.00  0.00    +0.215 C 
ATOM     11  C   UNL     1      -0.213   0.845  -8.914  0.00  0.00    +0.063 C 
ATOM     12  C   UNL     1      -0.903   2.127  -9.391  0.00  0.00    +0.111 C 
ATOM     13  N   UNL     1      -2.031   2.419  -8.484  0.00  0.00    -0.322 N 
ATOM     14  H   UNL     1      -2.897   2.703  -8.817  0.00  0.00    +0.148 HD
BRANCH  12  15
ATOM     15  C   UNL     1      -1.418   1.938 -10.794  0.00  0.00    +0.010 A 
ATOM     16  C   UNL     1      -0.880   2.359 -11.965  0.00  0.00    +0.013 A 
ATOM     17  C   UNL     1      -1.534   2.067 -13.147  0.00  0.00    +0.008 A 
ATOM     18  C   UNL     1      -2.694   1.366 -13.101  0.00  0.00    +0.045 A 
ATOM     19  S   UNL     1      -2.890   1.092 -11.347  0.00  0.00    -0.100 S 
ENDBRANCH  12  15
BRANCH  10  20
ATOM     20  C   UNL     1       0.834  -0.285  -6.941  0.00  0.00    +0.412 C 
ATOM     21  F   UNL     1       1.810  -0.838  -7.776  0.00  0.00    -0.168 F 
ATOM     22  F   UNL     1       1.369  -0.088  -5.664  0.00  0.00    -0.168 F 
ATOM     23  F   UNL     1      -0.258  -1.156  -6.861  0.00  0.00    -0.168 F 
ENDBRANCH  10  20
ENDBRANCH   2   5
BRANCH   1  28
ATOM     24  C   UNL     1      -1.295   1.928   0.019  0.00  0.00    +0.091 A 
ATOM     25  C   UNL     1      -1.915   2.272   1.210  0.00  0.00    -0.014 A 
ATOM     26  C   UNL     1      -3.108   2.939   1.136  0.00  0.00    +0.102 A 
ATOM     27  S   UNL     1      -3.366   3.089  -0.621  0.00  0.00    -0.066 S 
ATOM     28  C   UNL     1      -1.929   2.293  -1.174  0.00  0.00    +0.087 A 
ATOM     29  C   UNL     1      -1.297   1.923   2.539  0.00  0.00    +0.046 C 
BRANCH  24  30
ATOM     30  C   UNL     1      -0.014   1.212   0.009  0.00  0.00    +0.342 C 
ATOM     31  O   UNL     1       0.002  -0.004   0.002  0.00  0.00    -0.245 OA
BRANCH  30  32
ATOM     32  O   UNL     1       1.144   1.902   0.001  0.00  0.00    -0.461 OA
BRANCH  32  34
ATOM     33  C   UNL     1       3.573   2.076  -0.021  0.00  0.00    +0.048 C 
ATOM     34  C   UNL     1       2.372   1.128  -0.015  0.00  0.00    +0.229 C 
ENDBRANCH  32  34
ENDBRANCH  30  32
ENDBRANCH  24  30
BRANCH  26  35
ATOM     35  C   UNL     1      -3.959   3.412   2.228  0.00  0.00    +0.346 C 
ATOM     36  O   UNL     1      -3.627   3.223   3.383  0.00  0.00    -0.244 OA
BRANCH  35  37
ATOM     37  O   UNL     1      -5.112   4.057   1.954  0.00  0.00    -0.461 OA
BRANCH  37  38
ATOM     38  C   UNL     1      -5.893   4.491   3.069  0.00  0.00    +0.229 C 
ATOM     39  C   UNL     1      -7.153   5.197   2.564  0.00  0.00    +0.048 C 
ENDBRANCH  37  38
ENDBRANCH  35  37
ENDBRANCH  26  35
ENDBRANCH   1  28
TORSDOF 10
