REMARK  Name = ZINC38597486
REMARK  8 active torsions:
REMARK  status: ('A' for Active; 'I' for Inactive)
REMARK    1  A    between atoms: C_1  and  C_2
REMARK    2  A    between atoms: C_6  and  C_8
REMARK    3  A    between atoms: C_8  and  C_9
REMARK    4  A    between atoms: N_11  and  C_12
REMARK    5  A    between atoms: C_12  and  C_13
REMARK    6  A    between atoms: C_13  and  C_15
REMARK    7  A    between atoms: C_13  and  N_20
REMARK    8  A    between atoms: N_23  and  C_26
REMARK                            x       y       z     vdW  Elec       q    Type
REMARK                         _______ _______ _______ _____ _____    ______ ____
ROOT
ATOM      1  C   UNL     1       3.011  -4.767   5.743  0.00  0.00    +0.017 C 
ENDROOT
BRANCH   1   2
ATOM      2  N   UNL     1       2.271  -6.013   5.504  0.00  0.00    +0.389 N 
ATOM      3  C   UNL     1       0.974  -5.701   4.890  0.00  0.00    -0.059 C 
ATOM      4  C   UNL     1       0.251  -7.004   4.535  0.00  0.00    +0.086 C 
ATOM      5  N   UNL     1       0.166  -7.835   5.747  0.00  0.00    -0.333 N 
ATOM      6  C   UNL     1       1.397  -8.064   6.518  0.00  0.00    +0.086 C 
ATOM      7  C   UNL     1       2.066  -6.711   6.779  0.00  0.00    -0.059 C 
ATOM      8  H   UNL     1       2.802  -6.603   4.881  0.00  0.00    -0.081 HD
BRANCH   5   9
ATOM      9  C   UNL     1      -1.052  -8.390   6.153  0.00  0.00    +0.030 A 
ATOM     10  C   UNL     1      -2.223  -8.067   5.480  0.00  0.00    +0.026 A 
ATOM     11  C   UNL     1      -3.424  -8.618   5.883  0.00  0.00    +0.040 A 
ATOM     12  C   UNL     1      -3.461  -9.491   6.957  0.00  0.00    +0.124 A 
ATOM     13  C   UNL     1      -2.295  -9.814   7.630  0.00  0.00    +0.040 A 
ATOM     14  C   UNL     1      -1.090  -9.270   7.227  0.00  0.00    +0.026 A 
ATOM     15  F   UNL     1      -4.637 -10.027   7.349  0.00  0.00    -0.205 F 
ENDBRANCH   5   9
ENDBRANCH   1   2
BRANCH   1  16
ATOM     16  C   UNL     1       4.385  -5.091   6.270  0.00  0.00    +0.093 A 
ATOM     17  C   UNL     1       5.030  -4.427   7.246  0.00  0.00    +0.043 A 
ATOM     18  C   UNL     1       6.280  -5.065   7.418  0.00  0.00    +0.041 A 
ATOM     19  C   UNL     1       6.323  -6.081   6.538  0.00  0.00    +0.195 A 
ATOM     20  O   UNL     1       5.171  -6.095   5.849  0.00  0.00    -0.469 OA
ENDBRANCH   1  16
BRANCH   1  21
ATOM     21  C   UNL     1       3.138  -3.989   4.431  0.00  0.00    +0.096 C 
BRANCH  21  24
ATOM     22  C   UNL     1       3.851  -4.412   2.140  0.00  0.00    +0.217 C 
ATOM     23  O   UNL     1       3.460  -3.302   1.845  0.00  0.00    -0.275 OA
ATOM     24  N   UNL     1       3.735  -4.852   3.409  0.00  0.00    -0.316 N 
ATOM     25  H   UNL     1       4.048  -5.739   3.645  0.00  0.00    +0.149 HD
BRANCH  22  26
ATOM     26  C   UNL     1       4.465  -5.299   1.088  0.00  0.00    +0.130 C 
BRANCH  26  32
ATOM     27  C   UNL     1       2.239  -4.160  -3.247  0.00  0.00    +0.044 C 
ATOM     28  C   UNL     1       3.411  -4.032  -2.309  0.00  0.00    -0.050 A 
ATOM     29  C   UNL     1       4.497  -3.252  -2.662  0.00  0.00    +0.003 A 
ATOM     30  C   UNL     1       5.572  -3.135  -1.801  0.00  0.00    +0.001 A 
ATOM     31  C   UNL     1       5.562  -3.797  -0.588  0.00  0.00    +0.004 A 
ATOM     32  C   UNL     1       4.476  -4.577  -0.235  0.00  0.00    -0.038 A 
ATOM     33  C   UNL     1       3.399  -4.691  -1.093  0.00  0.00    +0.007 A 
ENDBRANCH  26  32
ENDBRANCH  22  26
ENDBRANCH  21  24
ENDBRANCH   1  21
TORSDOF 7
