REMARK  Name = ZINC00073439
REMARK  3 active torsions:
REMARK  status: ('A' for Active; 'I' for Inactive)
REMARK    1  A    between atoms: C_3  and  C_11
REMARK    2  A    between atoms: C_4  and  N_8
REMARK    3  A    between atoms: N_13  and  C_14
REMARK                            x       y       z     vdW  Elec       q    Type
REMARK                         _______ _______ _______ _____ _____    ______ ____
ROOT
ATOM      1  C   UNL     1      -2.497   1.051   0.059  0.00  0.00    +0.250 C 
ATOM      2  O   UNL     1      -3.558   1.644   0.018  0.00  0.00    -0.270 OA
ATOM      3  N   UNL     1      -2.480  -0.294   0.145  0.00  0.00    -0.280 N 
ATOM      4  H   UNL     1      -1.639  -0.762   0.262  0.00  0.00    +0.155 HD
ENDROOT
BRANCH   3   5
ATOM      5  C   UNL     1      -3.677  -1.015   0.065  0.00  0.00    +0.052 A 
ATOM      6  C   UNL     1      -4.774  -0.473  -0.590  0.00  0.00    +0.026 A 
ATOM      7  C   UNL     1      -5.954  -1.187  -0.667  0.00  0.00    +0.022 A 
ATOM      8  C   UNL     1      -6.043  -2.443  -0.093  0.00  0.00    +0.042 A 
ATOM      9  C   UNL     1      -4.952  -2.987   0.560  0.00  0.00    +0.041 A 
ATOM     10  C   UNL     1      -3.767  -2.279   0.637  0.00  0.00    +0.064 A 
ATOM     11 CL   UNL     1      -2.396  -2.964   1.451  0.00  0.00    -0.082 Cl
ATOM     12 CL   UNL     1      -7.527  -3.338  -0.193  0.00  0.00    -0.083 Cl
ENDBRANCH   3   5
BRANCH   1  15
ATOM     13  C   UNL     1       0.827   2.354  -1.101  0.00  0.00    +0.021 A 
ATOM     14  C   UNL     1      -0.354   1.644  -1.063  0.00  0.00    +0.017 A 
ATOM     15  C   UNL     1      -1.227   1.805   0.015  0.00  0.00    +0.067 A 
ATOM     16  C   UNL     1      -0.893   2.678   1.052  0.00  0.00    +0.140 A 
ATOM     17  C   UNL     1       0.290   3.382   1.003  0.00  0.00    +0.053 A 
ATOM     18  C   UNL     1       1.150   3.223  -0.072  0.00  0.00    +0.043 A 
ATOM     19 CL   UNL     1       2.639   4.114  -0.128  0.00  0.00    -0.083 Cl
BRANCH  16  20
ATOM     20  N   UNL     1      -1.811   2.849   2.201  0.00  0.00    +0.057 N 
ATOM     21  O   UNL     1      -1.481   3.545   3.145  0.00  0.00    -0.126 OA
ATOM     22  O   UNL     1      -2.896   2.295   2.202  0.00  0.00    -0.126 OA
ENDBRANCH  16  20
ENDBRANCH   1  15
TORSDOF 3
