REMARK  Name = ZINC64890714
REMARK  11 active torsions:
REMARK  status: ('A' for Active; 'I' for Inactive)
REMARK    1  A    between atoms: C_1  and  C_2
REMARK    2  A    between atoms: C_2  and  C_3
REMARK    3  A    between atoms: C_2  and  C_4
REMARK    4  A    between atoms: C_4  and  C_6
REMARK    5  A    between atoms: C_4  and  N_28
REMARK    6  A    between atoms: C_9  and  C_12
REMARK    7  A    between atoms: N_24  and  C_25
REMARK    8  A    between atoms: C_25  and  C_26
REMARK    9  A    between atoms: C_25  and  C_27
REMARK   10  A    between atoms: N_28  and  S_29
REMARK   11  A    between atoms: S_29  and  C_32
REMARK                            x       y       z     vdW  Elec       q    Type
REMARK                         _______ _______ _______ _____ _____    ______ ____
ROOT
ATOM      1  C   UNL     1      -0.453   0.187   0.441  0.00  0.00    +0.262 C 
ATOM      2  N   UNL     1      -1.710  -0.536   0.217  0.00  0.00    -0.341 N 
ATOM      3  C   UNL     1      -2.700   0.269   0.453  0.00  0.00    +0.134 C 
ATOM      4  N   UNL     1      -2.257   1.513   0.829  0.00  0.00    -0.247 N 
ATOM      5  O   UNL     1      -0.836   1.513   0.836  0.00  0.00    -0.246 OA
ATOM      6  H   UNL     1      -2.821   2.269   1.052  0.00  0.00    +0.196 HD
ATOM      7  H   UNL     1      -1.788  -1.462  -0.061  0.00  0.00    +0.164 HD
ENDROOT
BRANCH   3   8
ATOM      8  C   UNL     1      -4.127  -0.106   0.333  0.00  0.00    +0.019 A 
ATOM      9  C   UNL     1      -4.526  -1.423   0.572  0.00  0.00    +0.013 A 
ATOM     10  C   UNL     1      -5.852  -1.774   0.460  0.00  0.00    +0.028 A 
ATOM     11  C   UNL     1      -6.803  -0.819   0.109  0.00  0.00    +0.069 A 
ATOM     12  C   UNL     1      -6.409   0.501  -0.132  0.00  0.00    +0.067 A 
ATOM     13  C   UNL     1      -5.073   0.856  -0.014  0.00  0.00    +0.039 A 
ATOM     14  N   UNL     1      -7.349   1.467  -0.484  0.00  0.00    -0.316 N 
ATOM     15  H   UNL     1      -7.066   2.380  -0.649  0.00  0.00    +0.169 HD
ATOM     16  C   UNL     1      -8.651   1.134  -0.596  0.00  0.00    +0.314 A 
ATOM     17  O   UNL     1      -9.474   1.972  -0.904  0.00  0.00    -0.262 OA
ATOM     18  C   UNL     1      -9.069  -0.275  -0.338  0.00  0.00    +0.317 A 
ATOM     19  O   UNL     1     -10.236  -0.595  -0.434  0.00  0.00    -0.262 OA
ATOM     20  N   UNL     1      -8.138  -1.189   0.001  0.00  0.00    -0.300 N 
BRANCH  20  21
ATOM     21  C   UNL     1      -8.534  -2.576   0.256  0.00  0.00    +0.085 C 
ATOM     22  C   UNL     1      -9.529  -2.616   1.418  0.00  0.00    +0.030 C 
ATOM     23  C   UNL     1      -9.191  -3.157  -0.998  0.00  0.00    +0.030 C 
ENDBRANCH  20  21
ENDBRANCH   3   8
BRANCH   1  24
ATOM     24  C   UNL     1       0.353  -0.484   1.555  0.00  0.00    +0.131 C 
BRANCH  24  26
ATOM     25  C   UNL     1       2.411   0.338   0.400  0.00  0.00    +0.009 C 
ATOM     26  C   UNL     1       1.680   0.255   1.742  0.00  0.00    +0.006 C 
ATOM     27  C   UNL     1       1.407   1.668   2.262  0.00  0.00    +0.009 C 
ENDBRANCH  24  26
BRANCH  24  28
ATOM     28  N   UNL     1       0.618  -1.879   1.193  0.00  0.00    -0.182 NA
ATOM     29  H   UNL     1       0.780  -2.118   0.267  0.00  0.00    +0.148 HD
BRANCH  28  30
ATOM     30  S   UNL     1       0.643  -3.048   2.366  0.00  0.00    +0.059 S 
ATOM     31  O   UNL     1       0.845  -4.287   1.700  0.00  0.00    -0.153 OA
ATOM     32  O   UNL     1       1.513  -2.581   3.387  0.00  0.00    -0.153 OA
BRANCH  30  33
ATOM     33  C   UNL     1      -0.971  -3.113   3.070  0.00  0.00    +0.105 A 
ATOM     34  C   UNL     1      -1.284  -2.314   4.154  0.00  0.00    +0.028 A 
ATOM     35  C   UNL     1      -2.550  -2.365   4.707  0.00  0.00    +0.002 A 
ATOM     36  C   UNL     1      -3.503  -3.214   4.176  0.00  0.00    +0.000 A 
ATOM     37  C   UNL     1      -3.190  -4.012   3.091  0.00  0.00    +0.002 A 
ATOM     38  C   UNL     1      -1.925  -3.958   2.536  0.00  0.00    +0.028 A 
ENDBRANCH  30  33
ENDBRANCH  28  30
ENDBRANCH  24  28
ENDBRANCH   1  24
TORSDOF 7
