REMARK  Name = ZINC21157728
REMARK  4 active torsions:
REMARK  status: ('A' for Active; 'I' for Inactive)
REMARK    1  A    between atoms: C_1  and  O_2
REMARK    2  A    between atoms: O_2  and  C_3
REMARK    3  A    between atoms: C_8  and  C_9
REMARK    4  A    between atoms: C_18  and  C_20
REMARK                            x       y       z     vdW  Elec       q    Type
REMARK                         _______ _______ _______ _____ _____    ______ ____
ROOT
ATOM      1  C   UNL     1       4.840   2.591   2.559  0.00  0.00    +0.014 A 
ATOM      2  C   UNL     1       4.505   1.743   3.574  0.00  0.00    +0.056 A 
ATOM      3  S   UNL     1       3.291   0.680   2.809  0.00  0.00    -0.098 S 
ATOM      4  C   UNL     1       3.284   1.406   1.197  0.00  0.00    +0.019 A 
ATOM      5  C   UNL     1       4.196   2.417   1.277  0.00  0.00    +0.052 A 
ATOM      6  N   UNL     1       4.445   3.201   0.116  0.00  0.00    -0.284 N 
ATOM      7  C   UNL     1       3.930   2.799  -1.059  0.00  0.00    +0.218 C 
ATOM      8  O   UNL     1       3.980   3.558  -2.003  0.00  0.00    -0.275 OA
ATOM      9  C   UNL     1       3.296   1.451  -1.256  0.00  0.00    +0.109 C 
ATOM     10  C   UNL     1       2.489   1.045  -0.016  0.00  0.00    +0.066 C 
ATOM     11  H   UNL     1       5.049   4.117   0.190  0.00  0.00    +0.155 HD
ENDROOT
BRANCH  10  12
ATOM     12  C   UNL     1       1.175   1.783   0.000  0.00  0.00    -0.035 A 
ATOM     13  C   UNL     1       1.160   3.165   0.008  0.00  0.00    +0.008 A 
ATOM     14  C   UNL     1      -0.043   3.846   0.023  0.00  0.00    +0.050 A 
ATOM     15  C   UNL     1      -1.237   3.144   0.031  0.00  0.00    +0.166 A 
ATOM     16  C   UNL     1      -1.222   1.752   0.017  0.00  0.00    +0.167 A 
ATOM     17  C   UNL     1      -0.013   1.076   0.008  0.00  0.00    +0.053 A 
ATOM     18  O   UNL     1      -2.510   1.302   0.021  0.00  0.00    -0.453 OA
ATOM     19  C   UNL     1      -3.312   2.428  -0.381  0.00  0.00    +0.466 C 
ATOM     20  O   UNL     1      -2.535   3.567   0.046  0.00  0.00    -0.453 OA
ENDBRANCH  10  12
BRANCH   1  26
ATOM     21  C   UNL     1       5.458   5.008   2.687  0.00  0.00    +0.128 A 
ATOM     22  C   UNL     1       6.399   6.005   2.882  0.00  0.00    +0.046 A 
ATOM     23  C   UNL     1       7.714   5.673   3.152  0.00  0.00    +0.004 A 
ATOM     24  C   UNL     1       8.097   4.346   3.231  0.00  0.00    +0.001 A 
ATOM     25  C   UNL     1       7.167   3.342   3.045  0.00  0.00    +0.012 A 
ATOM     26  C   UNL     1       5.842   3.666   2.766  0.00  0.00    +0.026 A 
BRANCH  21  28
ATOM     27  C   UNL     1       3.847   6.724   2.355  0.00  0.00    +0.277 C 
ATOM     28  O   UNL     1       4.166   5.333   2.420  0.00  0.00    -0.495 OA
ENDBRANCH  21  28
ENDBRANCH   1  26
TORSDOF 3
