REMARK  Name = ZINC40825356
REMARK  7 active torsions:
REMARK  status: ('A' for Active; 'I' for Inactive)
REMARK    1  A    between atoms: C_1  and  C_2
REMARK    2  A    between atoms: C_6  and  C_7
REMARK    3  A    between atoms: N_9  and  C_10
REMARK    4  A    between atoms: N_24  and  N_25
REMARK    5  A    between atoms: N_25  and  C_26
REMARK    6  A    between atoms: C_26  and  N_28
REMARK    7  A    between atoms: N_28  and  C_29
REMARK                            x       y       z     vdW  Elec       q    Type
REMARK                         _______ _______ _______ _____ _____    ______ ____
ROOT
ATOM      1  C   UNL     1       0.936   1.608   0.493  0.00  0.00    +0.048 C 
ATOM      2  C   UNL     1       0.732   0.115   0.527  0.00  0.00    +0.009 A 
ATOM      3  C   UNL     1       0.398  -0.713  -0.551  0.00  0.00    +0.042 A 
ATOM      4  C   UNL     1       0.311  -1.999  -0.073  0.00  0.00    +0.115 A 
ATOM      5  O   UNL     1       0.579  -1.972   1.230  0.00  0.00    -0.454 OA
ATOM      6  C   UNL     1       0.841  -0.703   1.617  0.00  0.00    +0.193 A 
ATOM      7  C   UNL     1      -0.037  -3.177  -0.947  0.00  0.00    +0.075 C 
ATOM      8  C   UNL     1      -0.749  -2.682  -2.209  0.00  0.00    +0.014 C 
ATOM      9  C   UNL     1       0.079  -1.595  -2.905  0.00  0.00    +0.058 C 
ATOM     10  C   UNL     1       0.160  -0.392  -1.977  0.00  0.00    +0.070 C 
ATOM     11  N   UNL     1       0.032   0.826  -2.404  0.00  0.00    -0.185 NA
ENDROOT
BRANCH   6  12
ATOM     12  C   UNL     1       1.181  -0.276   2.979  0.00  0.00    +0.284 C 
ATOM     13  O   UNL     1       1.395   0.899   3.212  0.00  0.00    -0.266 OA
ATOM     14  N   UNL     1       1.258  -1.184   3.971  0.00  0.00    -0.277 N 
ATOM     15  H   UNL     1       1.005  -2.106   3.805  0.00  0.00    +0.155 HD
BRANCH  14  16
ATOM     16  C   UNL     1       1.700  -0.799   5.237  0.00  0.00    +0.060 A 
ATOM     17  C   UNL     1       2.484   0.324   5.387  0.00  0.00    +0.025 A 
ATOM     18  C   UNL     1       2.932   0.719   6.644  0.00  0.00    +0.003 A 
ATOM     19  C   UNL     1       2.609   0.007   7.759  0.00  0.00    +0.010 A 
ATOM     20  C   UNL     1       1.812  -1.144   7.648  0.00  0.00    +0.002 A 
ATOM     21  C   UNL     1       1.344  -1.555   6.376  0.00  0.00    +0.092 A 
ATOM     22  N   UNL     1       0.582  -2.646   6.268  0.00  0.00    -0.253 NA
ATOM     23  C   UNL     1       0.247  -3.352   7.321  0.00  0.00    +0.111 A 
ATOM     24  C   UNL     1       0.669  -3.000   8.602  0.00  0.00    +0.020 A 
ATOM     25  C   UNL     1       1.461  -1.903   8.781  0.00  0.00    +0.011 A 
ENDBRANCH  14  16
ENDBRANCH   6  12
BRANCH  11  26
ATOM     26  N   UNL     1      -0.192   1.072  -3.765  0.00  0.00    -0.218 N 
ATOM     27  H   UNL     1      -0.251   0.331  -4.388  0.00  0.00    +0.176 HD
BRANCH  26  28
ATOM     28  C   UNL     1      -0.326   2.337  -4.208  0.00  0.00    +0.154 C 
ATOM     29  S   UNL     1      -0.600   2.637  -5.872  0.00  0.00    -0.017 S 
BRANCH  28  30
ATOM     30  N   UNL     1      -0.244   3.367  -3.343  0.00  0.00    -0.296 N 
ATOM     31  H   UNL     1      -0.009   3.204  -2.416  0.00  0.00    +0.154 HD
BRANCH  30  32
ATOM     32  C   UNL     1      -0.499   4.671  -3.781  0.00  0.00    +0.033 A 
ATOM     33  C   UNL     1      -1.550   4.918  -4.655  0.00  0.00    +0.023 A 
ATOM     34  C   UNL     1      -1.798   6.207  -5.085  0.00  0.00    +0.002 A 
ATOM     35  C   UNL     1      -1.003   7.250  -4.647  0.00  0.00    +0.000 A 
ATOM     36  C   UNL     1       0.044   7.006  -3.777  0.00  0.00    +0.002 A 
ATOM     37  C   UNL     1       0.294   5.721  -3.338  0.00  0.00    +0.023 A 
ENDBRANCH  30  32
ENDBRANCH  28  30
ENDBRANCH  26  28
ENDBRANCH  11  26
TORSDOF 6
