REMARK  Name = ZINC02185714
REMARK  6 active torsions:
REMARK  status: ('A' for Active; 'I' for Inactive)
REMARK    1  A    between atoms: C_1  and  C_2
REMARK    2  A    between atoms: C_3  and  C_29
REMARK    3  A    between atoms: C_4  and  C_22
REMARK    4  A    between atoms: C_10  and  C_15
REMARK    5  A    between atoms: C_29  and  O_31
REMARK    6  A    between atoms: O_31  and  C_32
REMARK                            x       y       z     vdW  Elec       q    Type
REMARK                         _______ _______ _______ _____ _____    ______ ____
ROOT
ATOM      1  C   UNL     1      -0.194  10.448  -3.814  0.00  0.00    +0.061 C 
ATOM      2  C   UNL     1      -0.582   9.931  -2.453  0.00  0.00    +0.016 C 
ATOM      3  C   UNL     1      -0.565  10.759  -1.394  0.00  0.00    +0.065 C 
ATOM      4  C   UNL     1      -0.951  10.281  -0.025  0.00  0.00    +0.092 C 
ATOM      5  C   UNL     1      -0.912   8.776   0.053  0.00  0.00    +0.024 C 
ATOM      6  C   UNL     1      -0.923   8.027  -1.070  0.00  0.00    +0.016 C 
ATOM      7  N   UNL     1      -0.949   8.623  -2.302  0.00  0.00    -0.321 N 
ATOM      8  C   UNL     1      -0.902   6.520  -0.999  0.00  0.00    +0.059 C 
ATOM      9  C   UNL     1      -0.137   6.075   0.249  0.00  0.00    +0.032 C 
ATOM     10  C   UNL     1      -0.819   6.681   1.480  0.00  0.00    +0.088 C 
ATOM     11  C   UNL     1      -0.869   8.177   1.324  0.00  0.00    +0.162 C 
ATOM     12  O   UNL     1      -0.873   8.880   2.315  0.00  0.00    -0.292 OA
ATOM     13  H   UNL     1      -1.270   8.037  -3.177  0.00  0.00    +0.152 HD
ENDROOT
BRANCH   9  14
ATOM     14  C   UNL     1      -0.160   4.571   0.347  0.00  0.00    -0.043 A 
ATOM     15  C   UNL     1       1.025   3.860   0.343  0.00  0.00    +0.005 A 
ATOM     16  C   UNL     1       1.005   2.481   0.432  0.00  0.00    +0.020 A 
ATOM     17  C   UNL     1      -0.203   1.812   0.527  0.00  0.00    +0.041 A 
ATOM     18  C   UNL     1      -1.389   2.524   0.527  0.00  0.00    +0.020 A 
ATOM     19  C   UNL     1      -1.367   3.903   0.442  0.00  0.00    +0.005 A 
ATOM     20 CL   UNL     1      -0.229   0.080   0.640  0.00  0.00    -0.084 Cl
ENDBRANCH   9  14
BRANCH   4  21
ATOM     21  C   UNL     1      -2.346  10.758   0.289  0.00  0.00    -0.035 A 
ATOM     22  C   UNL     1      -3.408  10.355  -0.499  0.00  0.00    +0.006 A 
ATOM     23  C   UNL     1      -4.688  10.787  -0.208  0.00  0.00    +0.020 A 
ATOM     24  C   UNL     1      -4.905  11.631   0.866  0.00  0.00    +0.041 A 
ATOM     25  C   UNL     1      -3.842  12.038   1.651  0.00  0.00    +0.020 A 
ATOM     26  C   UNL     1      -2.563  11.601   1.363  0.00  0.00    +0.006 A 
ATOM     27 CL   UNL     1      -6.512  12.180   1.227  0.00  0.00    -0.084 Cl
ENDBRANCH   4  21
BRANCH   3  28
ATOM     28  C   UNL     1      -0.176  12.107  -1.575  0.00  0.00    +0.338 C 
ATOM     29  O   UNL     1       0.238  12.481  -2.655  0.00  0.00    -0.245 OA
BRANCH  28  30
ATOM     30  O   UNL     1      -0.266  12.978  -0.548  0.00  0.00    -0.458 OA
BRANCH  30  31
ATOM     31  C   UNL     1       0.144  14.324  -0.801  0.00  0.00    +0.177 C 
ATOM     32  C   UNL     1       1.629  14.503  -0.425  0.00  0.00    +0.044 C 
ATOM     33  C   UNL     1       1.699  15.929   0.177  0.00  0.00    +0.004 C 
ATOM     34  C   UNL     1       0.373  16.029   0.972  0.00  0.00    +0.004 C 
ATOM     35  C   UNL     1      -0.654  15.294   0.087  0.00  0.00    +0.044 C 
ENDBRANCH  30  31
ENDBRANCH  28  30
ENDBRANCH   3  28
TORSDOF 5
