REMARK  Name = ZINC13499096
REMARK  12 active torsions:
REMARK  status: ('A' for Active; 'I' for Inactive)
REMARK    1  A    between atoms: C_1  and  C_2
REMARK    2  A    between atoms: C_4  and  C_37
REMARK    3  A    between atoms: C_7  and  C_14
REMARK    4  A    between atoms: C_14  and  N_72
REMARK    5  A    between atoms: C_15  and  N_72
REMARK    6  A    between atoms: C_21  and  C_23
REMARK    7  A    between atoms: C_21  and  C_34
REMARK    8  A    between atoms: C_21  and  N_72
REMARK    9  A    between atoms: N_27  and  C_28
REMARK   10  A    between atoms: C_28  and  C_29
REMARK   11  A    between atoms: C_34  and  C_35
REMARK   12  A    between atoms: C_34  and  C_36
REMARK                            x       y       z     vdW  Elec       q    Type
REMARK                         _______ _______ _______ _____ _____    ______ ____
ROOT
ATOM      1  N   UNL     1      -2.752   0.397  -1.369  0.00  0.00    +0.391 N 
ATOM      2  H   UNL     1      -2.201  -0.258  -1.937  0.00  0.00    -0.080 HD
ENDROOT
BRANCH   1   3
ATOM      3  C   UNL     1      -2.676   1.742  -1.977  0.00  0.00    -0.067 C 
ATOM      4  C   UNL     1      -3.729   1.860  -3.081  0.00  0.00    -0.015 C 
ATOM      5  C   UNL     1      -3.634   3.241  -3.731  0.00  0.00    -0.002 C 
ATOM      6  C   UNL     1      -2.240   3.426  -4.334  0.00  0.00    -0.000 C 
ATOM      7  C   UNL     1      -1.187   3.308  -3.231  0.00  0.00    -0.002 C 
ATOM      8  C   UNL     1      -1.282   1.926  -2.581  0.00  0.00    -0.015 C 
ENDBRANCH   1   3
BRANCH   1   9
ATOM      9  C   UNL     1      -2.197   0.429   0.000  0.00  0.00    -0.036 C 
BRANCH   9  16
ATOM     10  C   UNL     1       5.264   3.249  -0.046  0.00  0.00    +0.044 C 
ATOM     11  C   UNL     1       3.795   2.924   0.051  0.00  0.00    -0.048 A 
ATOM     12  C   UNL     1       2.912   3.877   0.539  0.00  0.00    +0.007 A 
ATOM     13  C   UNL     1       1.577   3.604   0.636  0.00  0.00    -0.041 A 
ATOM     14  C   UNL     1       1.096   2.351   0.240  0.00  0.00    +0.002 A 
ATOM     15  C   UNL     1      -0.328   2.024   0.331  0.00  0.00    +0.017 A 
ATOM     16  C   UNL     1      -0.738   0.796  -0.073  0.00  0.00    +0.001 A 
ATOM     17  C   UNL     1       0.199  -0.142  -0.557  0.00  0.00    +0.251 A 
ATOM     18  O   UNL     1      -0.189  -1.242  -0.910  0.00  0.00    -0.268 OA
ATOM     19  N   UNL     1       1.509   0.149  -0.643  0.00  0.00    -0.322 N 
ATOM     20  H   UNL     1       2.126  -0.518  -0.984  0.00  0.00    +0.169 HD
ATOM     21  C   UNL     1       1.988   1.382  -0.255  0.00  0.00    +0.050 A 
ATOM     22  C   UNL     1       3.344   1.684  -0.344  0.00  0.00    +0.029 A 
ATOM     23  C   UNL     1       0.627   4.646   1.166  0.00  0.00    +0.044 C 
ENDBRANCH   9  16
ENDBRANCH   1   9
BRANCH   1  24
ATOM     24  C   UNL     1      -4.157  -0.064  -1.334  0.00  0.00    +0.006 C 
BRANCH  24  25
ATOM     25  C   UNL     1      -4.554  -0.506  -2.719  0.00  0.00    +0.139 A 
ATOM     26  N   UNL     1      -3.766  -1.013  -3.635  0.00  0.00    -0.115 NA
ATOM     27  N   UNL     1      -4.478  -1.264  -4.679  0.00  0.00    -0.023 NA
ATOM     28  N   UNL     1      -5.701  -0.930  -4.452  0.00  0.00    -0.044 NA
ATOM     29  N   UNL     1      -5.789  -0.464  -3.253  0.00  0.00    -0.223 N 
BRANCH  29  30
ATOM     30  C   UNL     1      -7.004   0.024  -2.596  0.00  0.00    +0.221 C 
BRANCH  30  31
ATOM     31  C   UNL     1      -7.163   1.499  -2.864  0.00  0.00    +0.126 A 
ATOM     32  C   UNL     1      -7.817   2.043  -3.905  0.00  0.00    +0.046 A 
ATOM     33  C   UNL     1      -7.719   3.446  -3.762  0.00  0.00    +0.041 A 
ATOM     34  C   UNL     1      -7.004   3.675  -2.646  0.00  0.00    +0.195 A 
ATOM     35  O   UNL     1      -6.670   2.492  -2.106  0.00  0.00    -0.466 OA
ENDBRANCH  30  31
ENDBRANCH  29  30
ENDBRANCH  24  25
BRANCH  24  36
ATOM     36  C   UNL     1      -4.277  -1.243  -0.367  0.00  0.00    -0.024 C 
ATOM     37  C   UNL     1      -5.723  -1.741  -0.348  0.00  0.00    +0.006 C 
ATOM     38  C   UNL     1      -3.354  -2.374  -0.826  0.00  0.00    +0.006 C 
ENDBRANCH  24  36
ENDBRANCH   1  24
TORSDOF 8
