REMARK  Name = ZINC20593947
REMARK  3 active torsions:
REMARK  status: ('A' for Active; 'I' for Inactive)
REMARK    1  A    between atoms: C_3  and  N_17
REMARK    2  A    between atoms: C_6  and  N_7
REMARK    3  A    between atoms: C_8  and  C_13
REMARK                            x       y       z     vdW  Elec       q    Type
REMARK                         _______ _______ _______ _____ _____    ______ ____
ROOT
ATOM      1  N   UNL     1       0.002  -0.004   0.002  0.00  0.00    -0.227 N 
ATOM      2  C   UNL     1      -0.880  -0.820   0.636  0.00  0.00    +0.161 A 
ATOM      3  C   UNL     1      -0.514  -2.098   0.378  0.00  0.00    +0.068 A 
ATOM      4  C   UNL     1       0.624  -2.065  -0.435  0.00  0.00    +0.150 A 
ATOM      5  N   UNL     1       0.931  -0.813  -0.665  0.00  0.00    -0.173 NA
ATOM      6 BR   UNL     1      -1.387  -3.653   1.007  0.00  0.00    -0.047 Br
ENDROOT
BRANCH   1  12
ATOM      7  C   UNL     1      -1.228   2.077   0.019  0.00  0.00    +0.030 A 
ATOM      8  C   UNL     1      -1.243   3.458   0.033  0.00  0.00    +0.035 A 
ATOM      9  C   UNL     1      -0.054   4.164   0.025  0.00  0.00    +0.126 A 
ATOM     10  C   UNL     1       1.153   3.490   0.010  0.00  0.00    +0.035 A 
ATOM     11  C   UNL     1       1.175   2.109   0.002  0.00  0.00    +0.030 A 
ATOM     12  C   UNL     1      -0.017   1.398   0.010  0.00  0.00    +0.066 A 
BRANCH   9  13
ATOM     13  N   UNL     1      -0.074   5.644   0.034  0.00  0.00    +0.056 N 
ATOM     14  O   UNL     1       0.972   6.267   0.027  0.00  0.00    -0.126 OA
ATOM     15  O   UNL     1      -1.137   6.239   0.048  0.00  0.00    -0.126 OA
ENDBRANCH   9  13
ENDBRANCH   1  12
BRANCH   2  16
ATOM     16  C   UNL     1      -2.053  -0.382   1.474  0.00  0.00    +0.435 C 
ATOM     17  F   UNL     1      -3.184  -0.250   0.660  0.00  0.00    -0.164 F 
ATOM     18  F   UNL     1      -2.301  -1.338   2.465  0.00  0.00    -0.164 F 
ATOM     19  F   UNL     1      -1.765   0.848   2.074  0.00  0.00    -0.164 F 
ENDBRANCH   2  16
TORSDOF 3
