REMARK  Name = ZINC66730681
REMARK  10 active torsions:
REMARK  status: ('A' for Active; 'I' for Inactive)
REMARK    1  A    between atoms: C_1  and  C_2
REMARK    2  A    between atoms: N_11  and  S_12
REMARK    3  A    between atoms: S_12  and  N_15
REMARK    4  A    between atoms: C_16  and  C_18
REMARK    5  A    between atoms: C_18  and  C_20
REMARK    6  A    between atoms: C_18  and  N_23
REMARK    7  A    between atoms: C_20  and  C_21
REMARK    8  A    between atoms: C_20  and  C_22
REMARK    9  A    between atoms: C_24  and  O_26
REMARK   10  A    between atoms: O_26  and  C_27
REMARK                            x       y       z     vdW  Elec       q    Type
REMARK                         _______ _______ _______ _____ _____    ______ ____
ROOT
ATOM      1  S   UNL     1       2.257  -0.204   1.597  0.00  0.00    +0.157 S 
ATOM      2  O   UNL     1       2.674  -1.263   2.449  0.00  0.00    -0.131 OA
ATOM      3  O   UNL     1       2.929   0.108   0.385  0.00  0.00    -0.131 OA
ENDROOT
BRANCH   1  13
ATOM      4  C   UNL     1      -0.019   1.526   0.010  0.00  0.00    +0.030 C 
ATOM      5  C   UNL     1       0.002  -0.004   0.002  0.00  0.00    +0.101 C 
ATOM      6  C   UNL     1      -1.430  -0.557   0.082  0.00  0.00    +0.061 C 
ATOM      7  C   UNL     1      -1.455  -1.361   1.363  0.00  0.00    -0.023 A 
ATOM      8  C   UNL     1      -2.470  -2.086   1.958  0.00  0.00    +0.005 A 
ATOM      9  C   UNL     1      -2.244  -2.746   3.152  0.00  0.00    +0.000 A 
ATOM     10  C   UNL     1      -0.999  -2.679   3.750  0.00  0.00    +0.002 A 
ATOM     11  C   UNL     1       0.017  -1.957   3.160  0.00  0.00    +0.025 A 
ATOM     12  C   UNL     1      -0.204  -1.287   1.954  0.00  0.00    +0.056 A 
ATOM     13  N   UNL     1       0.679  -0.510   1.199  0.00  0.00    -0.184 N 
ENDBRANCH   1  13
BRANCH   1  14
ATOM     14  N   UNL     1       2.272   1.175   2.515  0.00  0.00    -0.075 NA
ATOM     15  C   UNL     1       3.389   1.640   2.962  0.00  0.00    +0.286 C 
ATOM     16  O   UNL     1       4.546   1.003   2.682  0.00  0.00    -0.267 OA
BRANCH  15  17
ATOM     17  C   UNL     1       3.403   2.894   3.797  0.00  0.00    +0.171 C 
BRANCH  17  18
ATOM     18  N   UNL     1       4.593   2.899   4.652  0.00  0.00    -0.269 N 
ATOM     19  C   UNL     1       4.593   3.602   5.802  0.00  0.00    +0.401 C 
ATOM     20  O   UNL     1       3.607   4.231   6.130  0.00  0.00    -0.226 OA
ATOM     21  H   UNL     1       5.380   2.397   4.390  0.00  0.00    +0.153 HD
BRANCH  19  22
ATOM     22  O   UNL     1       5.687   3.606   6.588  0.00  0.00    -0.454 OA
ATOM     23  C   UNL     1       5.617   4.372   7.792  0.00  0.00    +0.282 C 
ENDBRANCH  19  22
ENDBRANCH  17  18
BRANCH  17  24
ATOM     24  C   UNL     1       3.430   4.118   2.879  0.00  0.00    +0.013 C 
ATOM     25  C   UNL     1       4.618   4.010   1.920  0.00  0.00    +0.009 C 
ATOM     26  C   UNL     1       2.130   4.181   2.075  0.00  0.00    +0.009 C 
ENDBRANCH  17  24
ENDBRANCH  15  17
ENDBRANCH   1  14
TORSDOF 6
