REMARK  Name = ZINC21912184
REMARK  11 active torsions:
REMARK  status: ('A' for Active; 'I' for Inactive)
REMARK    1  A    between atoms: C_1  and  O_2
REMARK    2  A    between atoms: O_2  and  C_3
REMARK    3  A    between atoms: C_6  and  C_9
REMARK    4  A    between atoms: C_9  and  C_11
REMARK    5  A    between atoms: C_9  and  N_31
REMARK    6  A    between atoms: C_11  and  N_12
REMARK    7  A    between atoms: C_13  and  C_15
REMARK    8  A    between atoms: C_19  and  S_21
REMARK    9  A    between atoms: S_21  and  N_24
REMARK   10  A    between atoms: N_24  and  C_25
REMARK   11  A    between atoms: C_25  and  C_26
REMARK                            x       y       z     vdW  Elec       q    Type
REMARK                         _______ _______ _______ _____ _____    ______ ____
ROOT
ATOM      1  N   UNL     1      -4.819  -1.440  -5.047  0.00  0.00    -0.313 N 
ATOM      2  C   UNL     1      -3.828  -1.359  -4.138  0.00  0.00    +0.244 C 
ATOM      3  O   UNL     1      -2.771  -1.925  -4.340  0.00  0.00    -0.270 OA
ATOM      4  H   UNL     1      -5.776  -0.929  -4.864  0.00  0.00    +0.149 HD
ENDROOT
BRANCH   2   5
ATOM      5  C   UNL     1      -4.026  -0.584  -2.895  0.00  0.00    +0.039 A 
ATOM      6  C   UNL     1      -5.239   0.066  -2.659  0.00  0.00    +0.013 A 
ATOM      7  C   UNL     1      -5.417   0.788  -1.498  0.00  0.00    +0.003 A 
ATOM      8  C   UNL     1      -4.398   0.864  -0.564  0.00  0.00    +0.028 A 
ATOM      9  C   UNL     1      -3.192   0.227  -0.793  0.00  0.00    +0.106 A 
ATOM     10  C   UNL     1      -3.001  -0.498  -1.951  0.00  0.00    +0.041 A 
BRANCH   9  11
ATOM     11  S   UNL     1      -1.900   0.336   0.400  0.00  0.00    +0.059 S 
ATOM     12  O   UNL     1      -1.070  -0.801   0.204  0.00  0.00    -0.153 OA
ATOM     13  O   UNL     1      -2.520   0.621   1.646  0.00  0.00    -0.153 OA
BRANCH  11  14
ATOM     14  N   UNL     1      -0.986   1.661   0.012  0.00  0.00    -0.185 NA
ATOM     15  H   UNL     1      -0.000   1.516  -0.456  0.00  0.00    +0.148 HD
BRANCH  14  16
ATOM     16  C   UNL     1      -1.571   3.002   0.087  0.00  0.00    +0.148 C 
BRANCH  16  17
ATOM     17  C   UNL     1      -0.472   4.032   0.051  0.00  0.00    +0.005 A 
ATOM     18  C   UNL     1       0.091   4.643  -1.020  0.00  0.00    +0.012 A 
ATOM     19  C   UNL     1       1.095   5.571  -0.812  0.00  0.00    +0.008 A 
ATOM     20  C   UNL     1       1.494   5.834   0.456  0.00  0.00    +0.045 A 
ATOM     21  S   UNL     1       0.432   4.760   1.408  0.00  0.00    -0.100 S 
ENDBRANCH  16  17
ENDBRANCH  14  16
ENDBRANCH  11  14
ENDBRANCH   9  11
ENDBRANCH   2   5
BRANCH   1  22
ATOM     22  C   UNL     1      -4.623  -2.209  -6.278  0.00  0.00    +0.094 C 
BRANCH  22  23
ATOM     23  C   UNL     1      -5.825  -2.005  -7.203  0.00  0.00    -0.020 C 
BRANCH  23  27
ATOM     24  C   UNL     1      -5.363  -4.427 -10.694  0.00  0.00    +0.120 A 
ATOM     25  C   UNL     1      -6.282  -4.783  -9.717  0.00  0.00    +0.046 A 
ATOM     26  C   UNL     1      -6.429  -3.999  -8.590  0.00  0.00    +0.005 A 
ATOM     27  C   UNL     1      -5.662  -2.859  -8.434  0.00  0.00    -0.059 A 
ATOM     28  C   UNL     1      -4.750  -2.498  -9.409  0.00  0.00    +0.005 A 
ATOM     29  C   UNL     1      -4.594  -3.283 -10.535  0.00  0.00    +0.046 A 
BRANCH  24  31
ATOM     30  C   UNL     1      -4.252  -4.769 -12.768  0.00  0.00    +0.277 C 
ATOM     31  O   UNL     1      -5.216  -5.197 -11.804  0.00  0.00    -0.495 OA
ENDBRANCH  24  31
ENDBRANCH  23  27
BRANCH  23  32
ATOM     32  N   UNL     1      -5.907  -0.592  -7.596  0.00  0.00    +0.385 N 
ATOM     33  C   UNL     1      -6.872  -0.403  -8.708  0.00  0.00    -0.078 C 
ATOM     34  C   UNL     1      -7.219   1.105  -8.625  0.00  0.00    -0.020 C 
ATOM     35  C   UNL     1      -7.252   1.369  -7.102  0.00  0.00    -0.020 C 
ATOM     36  C   UNL     1      -6.409   0.240  -6.480  0.00  0.00    -0.078 C 
ATOM     37  H   UNL     1      -4.886  -0.302  -7.886  0.00  0.00    -0.081 HD
ENDBRANCH  23  32
ENDBRANCH  22  23
ENDBRANCH   1  22
TORSDOF 10
