REMARK  Name = ZINC12602047
REMARK  6 active torsions:
REMARK  status: ('A' for Active; 'I' for Inactive)
REMARK    1  A    between atoms: C_1  and  N_2
REMARK    2  A    between atoms: C_3  and  C_13
REMARK    3  A    between atoms: C_5  and  C_7
REMARK    4  A    between atoms: C_22  and  C_24
REMARK    5  A    between atoms: C_24  and  N_25
REMARK    6  A    between atoms: C_26  and  C_28
REMARK                            x       y       z     vdW  Elec       q    Type
REMARK                         _______ _______ _______ _____ _____    ______ ____
ROOT
ATOM      1  C   UNL     1       1.814  -1.804  -0.245  0.00  0.00    +0.024 C 
ATOM      2  C   UNL     1       2.150  -2.088  -1.711  0.00  0.00    -0.068 C 
ATOM      3  N   UNL     1       3.574  -2.431  -1.827  0.00  0.00    +0.383 N 
ATOM      4  C   UNL     1       3.887  -3.650  -1.068  0.00  0.00    -0.078 C 
ATOM      5  C   UNL     1       3.597  -3.412   0.419  0.00  0.00    -0.015 C 
ATOM      6  C   UNL     1       3.082  -1.978   0.600  0.00  0.00    -0.007 C 
ATOM      7  C   UNL     1       4.151  -1.005   0.078  0.00  0.00    -0.010 C 
ATOM      8  C   UNL     1       4.423  -1.312  -1.398  0.00  0.00    -0.051 C 
ATOM      9  H   UNL     1       3.787  -2.629  -2.888  0.00  0.00    -0.081 HD
ENDROOT
BRANCH   1  12
ATOM     10  C   UNL     1      -0.334  -0.427  -2.006  0.00  0.00    +0.172 C 
ATOM     11  N   UNL     1       0.369   0.195  -0.882  0.00  0.00    -0.271 N 
ATOM     12  C   UNL     1       1.305  -0.392  -0.107  0.00  0.00    +0.041 A 
ATOM     13  C   UNL     1       1.706   0.514   0.814  0.00  0.00    +0.048 A 
ATOM     14  C   UNL     1       0.990   1.696   0.596  0.00  0.00    +0.066 A 
ATOM     15  N   UNL     1       0.189   1.506  -0.421  0.00  0.00    -0.176 NA
BRANCH  14  16
ATOM     16  C   UNL     1       1.119   2.968   1.393  0.00  0.00    +0.040 C 
ATOM     17  C   UNL     1       2.575   3.151   1.828  0.00  0.00    +0.010 C 
ATOM     18  C   UNL     1       2.706   4.442   2.638  0.00  0.00    +0.001 C 
ATOM     19  C   UNL     1       1.811   4.362   3.876  0.00  0.00    +0.000 C 
ATOM     20  C   UNL     1       0.355   4.178   3.441  0.00  0.00    +0.001 C 
ATOM     21  C   UNL     1       0.224   2.887   2.631  0.00  0.00    +0.010 C 
ENDBRANCH  14  16
ENDBRANCH   1  12
BRANCH   8  22
ATOM     22  C   UNL     1       4.105  -0.076  -2.243  0.00  0.00    +0.089 C 
BRANCH  22  23
ATOM     23  N   UNL     1       4.248  -0.406  -3.663  0.00  0.00    -0.313 N 
ATOM     24  C   UNL     1       4.016   0.534  -4.600  0.00  0.00    +0.244 C 
ATOM     25  O   UNL     1       3.689   1.657  -4.266  0.00  0.00    -0.270 OA
ATOM     26  H   UNL     1       4.544  -1.422  -3.965  0.00  0.00    +0.149 HD
BRANCH  24  27
ATOM     27  C   UNL     1       4.160   0.202  -6.031  0.00  0.00    +0.040 A 
ATOM     28  C   UNL     1       4.542  -1.085  -6.416  0.00  0.00    +0.017 A 
ATOM     29  C   UNL     1       4.670  -1.395  -7.752  0.00  0.00    +0.050 A 
ATOM     30  C   UNL     1       4.433  -0.428  -8.720  0.00  0.00    +0.166 A 
ATOM     31  C   UNL     1       4.056   0.861  -8.342  0.00  0.00    +0.167 A 
ATOM     32  C   UNL     1       3.920   1.176  -7.004  0.00  0.00    +0.062 A 
ATOM     33  O   UNL     1       3.886   1.613  -9.469  0.00  0.00    -0.453 OA
ATOM     34  C   UNL     1       4.556   0.889 -10.518  0.00  0.00    +0.466 C 
ATOM     35  O   UNL     1       4.496  -0.481 -10.081  0.00  0.00    -0.453 OA
ENDBRANCH  24  27
ENDBRANCH  22  23
ENDBRANCH   8  22
TORSDOF 5
