REMARK  Name = ZINC14157172
REMARK  9 active torsions:
REMARK  status: ('A' for Active; 'I' for Inactive)
REMARK    1  A    between atoms: C_1  and  C_2
REMARK    2  A    between atoms: C_5  and  C_29
REMARK    3  A    between atoms: C_6  and  N_8
REMARK    4  A    between atoms: N_8  and  C_9
REMARK    5  A    between atoms: C_9  and  N_11
REMARK    6  A    between atoms: N_13  and  C_14
REMARK    7  A    between atoms: C_14  and  C_15
REMARK    8  A    between atoms: C_23  and  C_28
REMARK    9  A    between atoms: C_25  and  C_27
REMARK                            x       y       z     vdW  Elec       q    Type
REMARK                         _______ _______ _______ _____ _____    ______ ____
ROOT
ATOM      1  N   UNL     1       3.573   5.767  -0.093  0.00  0.00    -0.159 NA
ATOM      2  C   UNL     1       3.644   7.087  -0.059  0.00  0.00    +0.196 C 
ATOM      3  N   UNL     1       2.501   7.833  -0.074  0.00  0.00    -0.353 N 
ATOM      4  N   UNL     1       4.864   7.706  -0.008  0.00  0.00    -0.297 N 
ATOM      5  C   UNL     1       6.027   6.947   0.008  0.00  0.00    +0.231 A 
ATOM      6  N   UNL     1       5.938   5.626  -0.021  0.00  0.00    -0.217 NA
ATOM      7  C   UNL     1       7.026   4.875  -0.012  0.00  0.00    +0.044 A 
ATOM      8  C   UNL     1       8.269   5.485   0.039  0.00  0.00    +0.046 A 
ATOM      9  C   UNL     1       8.326   6.870   0.074  0.00  0.00    +0.044 A 
ATOM     10  N   UNL     1       7.199   7.562   0.057  0.00  0.00    -0.217 NA
ATOM     11  C   UNL     1       9.655   7.577   0.130  0.00  0.00    +0.066 C 
ATOM     12  C   UNL     1       6.915   3.372  -0.052  0.00  0.00    +0.066 C 
ATOM     13  H   UNL     1       1.636   7.395  -0.037  0.00  0.00    +0.163 HD
ATOM     14  H   UNL     1       4.917   8.674   0.017  0.00  0.00    +0.171 HD
ENDROOT
BRANCH   1  15
ATOM     15  C   UNL     1       2.379   5.162  -0.147  0.00  0.00    +0.161 C 
ATOM     16  S   UNL     1       1.365   5.387  -1.508  0.00  0.00    -0.016 S 
BRANCH  15  17
ATOM     17  N   UNL     1       1.975   4.375   0.870  0.00  0.00    -0.295 N 
ATOM     18  H   UNL     1       2.531   4.280   1.660  0.00  0.00    +0.154 HD
BRANCH  17  24
ATOM     19  C   UNL     1      -1.290   1.851  -1.802  0.00  0.00    +0.044 C 
ATOM     20  C   UNL     1      -0.852   2.462  -0.495  0.00  0.00    -0.049 A 
ATOM     21  C   UNL     1      -1.654   2.346   0.625  0.00  0.00    +0.004 A 
ATOM     22  C   UNL     1      -1.259   2.909   1.824  0.00  0.00    +0.005 A 
ATOM     23  C   UNL     1      -0.055   3.581   1.909  0.00  0.00    -0.029 A 
ATOM     24  C   UNL     1       0.756   3.695   0.787  0.00  0.00    +0.036 A 
ATOM     25  C   UNL     1       0.353   3.133  -0.417  0.00  0.00    +0.027 A 
ATOM     26  C   UNL     1       0.379   4.189   3.218  0.00  0.00    +0.045 C 
ENDBRANCH  17  24
ENDBRANCH  15  17
ENDBRANCH   1  15
BRANCH   3  27
ATOM     27  C   UNL     1       2.580   9.293  -0.149  0.00  0.00    +0.158 C 
BRANCH  27  28
ATOM     28  C   UNL     1       1.189   9.873  -0.151  0.00  0.00    +0.009 A 
ATOM     29  C   UNL     1       0.418  10.248   0.899  0.00  0.00    +0.013 A 
ATOM     30  C   UNL     1      -0.841  10.763   0.656  0.00  0.00    +0.008 A 
ATOM     31  C   UNL     1      -1.272  10.869  -0.625  0.00  0.00    +0.045 A 
ATOM     32  S   UNL     1       0.125  10.235  -1.538  0.00  0.00    -0.100 S 
ENDBRANCH  27  28
ENDBRANCH   3  27
TORSDOF 5
