REMARK  Name = ZINC09127456
REMARK  8 active torsions:
REMARK  status: ('A' for Active; 'I' for Inactive)
REMARK    1  A    between atoms: C_1  and  C_2
REMARK    2  A    between atoms: C_2  and  C_4
REMARK    3  A    between atoms: C_2  and  O_21
REMARK    4  A    between atoms: N_6  and  C_7
REMARK    5  A    between atoms: C_10  and  S_13
REMARK    6  A    between atoms: S_13  and  N_16
REMARK    7  A    between atoms: O_21  and  C_22
REMARK    8  A    between atoms: C_22  and  C_24
REMARK                            x       y       z     vdW  Elec       q    Type
REMARK                         _______ _______ _______ _____ _____    ______ ____
ROOT
ATOM      1  C   UNL     1      -1.096   8.547   0.761  0.00  0.00    +0.258 C 
ATOM      2  O   UNL     1       0.051   8.437   1.136  0.00  0.00    -0.271 OA
ATOM      3  N   UNL     1      -1.771   9.693   0.983  0.00  0.00    -0.282 N 
ATOM      4  H   UNL     1      -2.665   9.807   0.624  0.00  0.00    +0.155 HD
ENDROOT
BRANCH   3   5
ATOM      5  C   UNL     1      -1.181  10.718   1.731  0.00  0.00    +0.034 A 
ATOM      6  C   UNL     1      -1.962  11.512   2.560  0.00  0.00    +0.025 A 
ATOM      7  C   UNL     1      -1.376  12.519   3.301  0.00  0.00    +0.030 A 
ATOM      8  C   UNL     1      -0.015  12.745   3.210  0.00  0.00    +0.106 A 
ATOM      9  C   UNL     1       0.765  11.960   2.380  0.00  0.00    +0.030 A 
ATOM     10  C   UNL     1       0.186  10.947   1.641  0.00  0.00    +0.025 A 
BRANCH   8  11
ATOM     11  S   UNL     1       0.728  14.035   4.152  0.00  0.00    +0.061 S 
ATOM     12  O   UNL     1      -0.127  14.271   5.263  0.00  0.00    -0.153 OA
ATOM     13  O   UNL     1       2.098  13.690   4.305  0.00  0.00    -0.153 OA
BRANCH  11  14
ATOM     14  N   UNL     1       0.686  15.406   3.224  0.00  0.00    -0.177 NA
ATOM     15  C   UNL     1       1.734  15.839   2.288  0.00  0.00    +0.109 C 
ATOM     16  C   UNL     1       1.273  17.176   1.671  0.00  0.00    +0.018 C 
ATOM     17  C   UNL     1       0.259  17.709   2.717  0.00  0.00    +0.018 C 
ATOM     18  C   UNL     1      -0.406  16.396   3.202  0.00  0.00    +0.109 C 
ENDBRANCH  11  14
ENDBRANCH   8  11
ENDBRANCH   3   5
BRANCH   1  20
ATOM     19  C   UNL     1      -2.085   7.818  -1.393  0.00  0.00    +0.062 C 
ATOM     20  C   UNL     1      -1.769   7.404   0.045  0.00  0.00    +0.259 C 
BRANCH  20  21
ATOM     21  O   UNL     1      -0.884   6.253   0.034  0.00  0.00    -0.448 OA
BRANCH  21  22
ATOM     22  C   UNL     1      -1.463   5.035   0.028  0.00  0.00    +0.347 C 
ATOM     23  O   UNL     1      -2.676   4.938   0.033  0.00  0.00    -0.244 OA
BRANCH  22  24
ATOM     24  C   UNL     1      -0.633   3.829   0.017  0.00  0.00    +0.097 A 
ATOM     25  C   UNL     1      -1.022   2.504   0.006  0.00  0.00    +0.026 A 
ATOM     26  C   UNL     1      -0.028   1.526   0.000  0.00  0.00    -0.036 A 
ATOM     27  C   UNL     1       1.260   1.963   0.000  0.00  0.00    -0.006 A 
ATOM     28  S   UNL     1       1.144   3.687   0.010  0.00  0.00    -0.086 S 
ATOM     29  C   UNL     1       2.240   0.822  -0.007  0.00  0.00    +0.043 C 
ATOM     30  C   UNL     1       1.411  -0.406   0.428  0.00  0.00    +0.010 C 
ATOM     31  C   UNL     1      -0.010  -0.005  -0.012  0.00  0.00    +0.036 C 
ENDBRANCH  22  24
ENDBRANCH  21  22
ENDBRANCH  20  21
ENDBRANCH   1  20
TORSDOF 7
