REMARK  Name = ZINC35842575
REMARK  22 active torsions:
REMARK  status: ('A' for Active; 'I' for Inactive)
REMARK    1  A    between atoms: C_1  and  C_2
REMARK    2  A    between atoms: C_2  and  C_3
REMARK    3  A    between atoms: C_3  and  N_4
REMARK    4  A    between atoms: N_4  and  C_5
REMARK    5  A    between atoms: N_4  and  C_14
REMARK    6  A    between atoms: C_5  and  C_6
REMARK    7  A    between atoms: C_6  and  C_8
REMARK    8  A    between atoms: C_6  and  O_13
REMARK    9  A    between atoms: C_8  and  O_9
REMARK   10  A    between atoms: O_9  and  C_10
REMARK   11  A    between atoms: C_10  and  C_11
REMARK   12  A    between atoms: C_10  and  C_12
REMARK   13  A    between atoms: C_14  and  C_15
REMARK   14  A    between atoms: N_17  and  C_18
REMARK   15  A    between atoms: N_17  and  C_30
REMARK   16  A    between atoms: C_18  and  C_19
REMARK   17  A    between atoms: C_19  and  C_20
REMARK   18  A    between atoms: C_30  and  C_31
REMARK   19  A    between atoms: C_34  and  C_37
REMARK   20  A    between atoms: C_37  and  C_38
REMARK   21  A    between atoms: C_37  and  C_39
REMARK   22  A    between atoms: C_37  and  C_40
REMARK                            x       y       z     vdW  Elec       q    Type
REMARK                         _______ _______ _______ _____ _____    ______ ____
ROOT
ATOM      1  C   UNL     1       3.146  -1.955  -1.990  0.00  0.00    +0.199 C 
ATOM      2  O   UNL     1       3.354  -1.211  -1.056  0.00  0.00    -0.278 OA
ATOM      3  N   UNL     1       4.156  -2.307  -2.810  0.00  0.00    -0.298 N 
ENDROOT
BRANCH   1   4
ATOM      4  C   UNL     1       1.757  -2.487  -2.234  0.00  0.00    +0.019 C 
BRANCH   4   5
ATOM      5  N   UNL     1       0.844  -1.961  -1.211  0.00  0.00    +0.387 N 
ATOM      6  H   UNL     1       1.204  -2.180  -0.294  0.00  0.00    -0.081 HD
BRANCH   5   7
ATOM      7  C   UNL     1      -0.481  -2.572  -1.376  0.00  0.00    -0.044 C 
BRANCH   7   8
ATOM      8  C   UNL     1      -0.393  -4.070  -1.078  0.00  0.00    +0.124 C 
BRANCH   8   9
ATOM      9  O   UNL     1       0.052  -4.263   0.266  0.00  0.00    -0.391 OA
ATOM     10  H   UNL     1      -0.567  -3.940   0.935  0.00  0.00    +0.210 HD
ENDBRANCH   8   9
BRANCH   8  11
ATOM     11  C   UNL     1      -1.773  -4.707  -1.255  0.00  0.00    +0.189 C 
BRANCH  11  12
ATOM     12  O   UNL     1      -1.668  -6.123  -1.091  0.00  0.00    -0.375 OA
BRANCH  12  13
ATOM     13  C   UNL     1      -2.908  -6.818  -1.237  0.00  0.00    +0.112 C 
ATOM     14  C   UNL     1      -2.643  -8.223  -1.782  0.00  0.00    +0.037 C 
ATOM     15  C   UNL     1      -3.599  -6.921   0.124  0.00  0.00    +0.037 C 
ENDBRANCH  12  13
ENDBRANCH  11  12
ENDBRANCH   8  11
ENDBRANCH   7   8
ENDBRANCH   5   7
BRANCH   5  16
ATOM     16  C   UNL     1       0.733  -0.503  -1.357  0.00  0.00    -0.078 C 
BRANCH  16  18
ATOM     17  C   UNL     1      -0.102   1.591  -0.281  0.00  0.00    +0.002 C 
ATOM     18  C   UNL     1      -0.098   0.063  -0.204  0.00  0.00    -0.022 C 
ENDBRANCH  16  18
ENDBRANCH   5  16
ENDBRANCH   4   5
ENDBRANCH   1   4
BRANCH   3  19
ATOM     19  C   UNL     1       3.904  -3.207  -3.939  0.00  0.00    +0.113 C 
BRANCH  19  20
ATOM     20  C   UNL     1       3.529  -2.384  -5.173  0.00  0.00    +0.056 C 
BRANCH  20  21
ATOM     21  C   UNL     1       3.270  -3.309  -6.334  0.00  0.00    -0.021 A 
ATOM     22  C   UNL     1       4.153  -3.672  -7.277  0.00  0.00    +0.087 A 
ATOM     23  N   UNL     1       3.559  -4.524  -8.169  0.00  0.00    -0.360 N 
ATOM     24  H   UNL     1       3.997  -4.920  -8.938  0.00  0.00    +0.165 HD
ATOM     25  C   UNL     1       2.246  -4.734  -7.812  0.00  0.00    +0.047 A 
ATOM     26  C   UNL     1       2.009  -3.987  -6.643  0.00  0.00    +0.003 A 
ATOM     27  C   UNL     1       0.749  -4.013  -6.043  0.00  0.00    +0.010 A 
ATOM     28  C   UNL     1      -0.249  -4.768  -6.593  0.00  0.00    +0.001 A 
ATOM     29  C   UNL     1      -0.019  -5.510  -7.743  0.00  0.00    +0.002 A 
ATOM     30  C   UNL     1       1.214  -5.491  -8.357  0.00  0.00    +0.026 A 
ENDBRANCH  20  21
ENDBRANCH  19  20
ENDBRANCH   3  19
BRANCH   3  31
ATOM     31  C   UNL     1       5.506  -1.790  -2.573  0.00  0.00    +0.142 C 
BRANCH  31  32
ATOM     32  C   UNL     1       6.252  -2.731  -1.663  0.00  0.00    -0.030 A 
ATOM     33  C   UNL     1       6.190  -2.562  -0.292  0.00  0.00    +0.005 A 
ATOM     34  C   UNL     1       6.875  -3.425   0.542  0.00  0.00    +0.004 A 
ATOM     35  C   UNL     1       7.620  -4.459   0.007  0.00  0.00    -0.042 A 
ATOM     36  C   UNL     1       7.681  -4.629  -1.364  0.00  0.00    +0.004 A 
ATOM     37  C   UNL     1       6.993  -3.768  -2.198  0.00  0.00    +0.005 A 
BRANCH  35  38
ATOM     38  C   UNL     1       8.367  -5.400   0.917  0.00  0.00    -0.013 C 
ATOM     39  C   UNL     1       7.377  -6.103   1.847  0.00  0.00    +0.015 C 
ATOM     40  C   UNL     1       9.105  -6.444   0.076  0.00  0.00    +0.015 C 
ATOM     41  C   UNL     1       9.377  -4.609   1.750  0.00  0.00    +0.015 C 
ENDBRANCH  35  38
ENDBRANCH  31  32
ENDBRANCH   3  31
TORSDOF 16
