REMARK  Name = ZINC49316838
REMARK  4 active torsions:
REMARK  status: ('A' for Active; 'I' for Inactive)
REMARK    1  A    between atoms: C_1  and  N_2
REMARK    2  A    between atoms: C_3  and  C_5
REMARK    3  A    between atoms: C_5  and  N_11
REMARK    4  A    between atoms: C_12  and  C_14
REMARK                            x       y       z     vdW  Elec       q    Type
REMARK                         _______ _______ _______ _____ _____    ______ ____
ROOT
ATOM      1  C   UNL     1       0.535  -2.179   0.925  0.00  0.00    +0.111 C 
ATOM      2  C   UNL     1      -0.816  -2.652   1.463  0.00  0.00    +0.035 C 
ATOM      3  C   UNL     1      -0.891  -4.179   1.383  0.00  0.00    +0.003 C 
ATOM      4  C   UNL     1       0.234  -4.789   2.221  0.00  0.00    +0.000 C 
ATOM      5  C   UNL     1       1.586  -4.315   1.683  0.00  0.00    +0.003 C 
ATOM      6  C   UNL     1       1.660  -2.789   1.763  0.00  0.00    +0.035 C 
ENDROOT
BRANCH   1   9
ATOM      7  C   UNL     1       1.426   1.468   0.183  0.00  0.00    +0.128 C 
ATOM      8  N   UNL     1       1.435   0.003   0.183  0.00  0.00    -0.317 N 
ATOM      9  C   UNL     1       0.609  -0.676   1.004  0.00  0.00    +0.236 C 
ATOM     10  O   UNL     1      -0.076  -0.076   1.806  0.00  0.00    -0.273 OA
ATOM     11  H   UNL     1       2.035  -0.479  -0.407  0.00  0.00    +0.148 HD
ENDBRANCH   1   9
BRANCH   1  12
ATOM     12  N   UNL     1       0.681  -2.602  -0.470  0.00  0.00    -0.297 N 
ATOM     13  C   UNL     1      -0.144  -2.107  -1.414  0.00  0.00    +0.254 C 
ATOM     14  O   UNL     1      -1.067  -1.380  -1.095  0.00  0.00    -0.270 OA
ATOM     15  H   UNL     1       1.371  -3.238  -0.714  0.00  0.00    +0.150 HD
BRANCH  13  16
ATOM     16  C   UNL     1       0.070  -2.445  -2.824  0.00  0.00    +0.112 A 
ATOM     17  C   UNL     1      -0.642  -2.050  -3.949  0.00  0.00    +0.148 A 
ATOM     18  N   UNL     1      -0.214  -2.515  -5.098  0.00  0.00    -0.235 NA
ATOM     19  C   UNL     1       0.829  -3.310  -5.175  0.00  0.00    +0.158 A 
ATOM     20  S   UNL     1       1.323  -3.471  -3.575  0.00  0.00    -0.069 S 
ATOM     21 CL   UNL     1      -2.020  -1.000  -3.841  0.00  0.00    -0.061 Cl
ENDBRANCH  13  16
ENDBRANCH   1  12
TORSDOF 3
