REMARK  Name = ZINC07047855
REMARK  5 active torsions:
REMARK  status: ('A' for Active; 'I' for Inactive)
REMARK    1  A    between atoms: C_1  and  C_2
REMARK    2  A    between atoms: C_4  and  N_19
REMARK    3  A    between atoms: C_6  and  S_8
REMARK    4  A    between atoms: S_8  and  C_9
REMARK    5  A    between atoms: C_9  and  C_10
REMARK                            x       y       z     vdW  Elec       q    Type
REMARK                         _______ _______ _______ _____ _____    ______ ____
ROOT
ATOM      1  S   UNL     1      -1.534  -0.256   4.708  0.00  0.00    -0.077 S 
ENDROOT
BRANCH   1   7
ATOM      2  C   UNL     1      -3.448  -0.448   9.450  0.00  0.00    +0.066 C 
ATOM      3  C   UNL     1      -3.193   0.362   8.205  0.00  0.00    +0.044 A 
ATOM      4  C   UNL     1      -3.596   1.682   8.136  0.00  0.00    +0.066 A 
ATOM      5  C   UNL     1      -3.341   2.396   6.963  0.00  0.00    +0.121 A 
ATOM      6  N   UNL     1      -2.717   1.786   5.960  0.00  0.00    -0.207 NA
ATOM      7  C   UNL     1      -2.352   0.517   6.064  0.00  0.00    +0.191 A 
ATOM      8  N   UNL     1      -2.581  -0.184   7.165  0.00  0.00    -0.227 NA
BRANCH   5   9
ATOM      9  N   UNL     1      -3.726   3.721   6.849  0.00  0.00    -0.343 N 
ATOM     10  H   UNL     1      -4.177   4.160   7.587  0.00  0.00    +0.144 HD
ATOM     11  H   UNL     1      -3.546   4.210   6.032  0.00  0.00    +0.144 HD
ENDBRANCH   5   9
ENDBRANCH   1   7
BRANCH   1  12
ATOM     12  C   UNL     1      -1.496   1.123   3.537  0.00  0.00    +0.173 C 
BRANCH  12  13
ATOM     13  C   UNL     1      -0.821   0.682   2.263  0.00  0.00    +0.226 C 
ATOM     14  O   UNL     1      -0.406  -0.452   2.158  0.00  0.00    -0.275 OA
ATOM     15  N   UNL     1      -0.678   1.549   1.241  0.00  0.00    -0.301 N 
ATOM     16  C   UNL     1      -0.013   1.086   0.008  0.00  0.00    +0.108 C 
ATOM     17  C   UNL     1      -0.731   1.583  -1.259  0.00  0.00    +0.019 C 
ATOM     18  C   UNL     1      -2.227   1.500  -1.074  0.00  0.00    +0.002 C 
ATOM     19  C   UNL     1      -2.742   2.827  -0.526  0.00  0.00    +0.002 C 
ATOM     20  C   UNL     1      -2.659   2.952   0.938  0.00  0.00    +0.019 C 
ATOM     21  C   UNL     1      -1.182   2.895   1.399  0.00  0.00    +0.108 C 
ENDBRANCH  12  13
ENDBRANCH   1  12
TORSDOF 4
