REMARK  Name = ZINC08964185
REMARK  8 active torsions:
REMARK  status: ('A' for Active; 'I' for Inactive)
REMARK    1  A    between atoms: C_1  and  C_2
REMARK    2  A    between atoms: C_7  and  N_8
REMARK    3  A    between atoms: C_9  and  C_11
REMARK    4  A    between atoms: N_13  and  C_14
REMARK    5  A    between atoms: C_14  and  C_15
REMARK    6  A    between atoms: C_15  and  C_17
REMARK    7  A    between atoms: C_15  and  N_60
REMARK    8  A    between atoms: N_25  and  C_26
REMARK                            x       y       z     vdW  Elec       q    Type
REMARK                         _______ _______ _______ _____ _____    ______ ____
ROOT
ATOM      1  C   UNL     1       2.742   0.461   0.346  0.00  0.00    -0.020 C 
ENDROOT
BRANCH   1   2
ATOM      2  C   UNL     1       3.732   1.492   0.825  0.00  0.00    -0.059 A 
ATOM      3  C   UNL     1       3.661   1.973   2.119  0.00  0.00    +0.004 A 
ATOM      4  C   UNL     1       4.566   2.914   2.562  0.00  0.00    +0.023 A 
ATOM      5  C   UNL     1       5.553   3.396   1.703  0.00  0.00    +0.033 A 
ATOM      6  C   UNL     1       5.615   2.907   0.404  0.00  0.00    -0.025 A 
ATOM      7  C   UNL     1       4.710   1.963  -0.033  0.00  0.00    +0.007 A 
ATOM      8  C   UNL     1       6.776   3.586  -0.296  0.00  0.00    +0.056 C 
ATOM      9  C   UNL     1       7.584   4.182   0.880  0.00  0.00    +0.109 C 
ATOM     10  N   UNL     1       6.554   4.348   1.929  0.00  0.00    -0.332 N 
ATOM     11  C   UNL     1       7.137   4.193   3.268  0.00  0.00    +0.129 C 
ENDBRANCH   1   2
BRANCH   1  16
ATOM     12  C   UNL     1       1.826  -1.740   0.839  0.00  0.00    -0.078 C 
ATOM     13  C   UNL     1       2.210  -2.889   1.805  0.00  0.00    -0.020 C 
ATOM     14  C   UNL     1       3.703  -2.612   2.096  0.00  0.00    -0.020 C 
ATOM     15  C   UNL     1       3.902  -1.117   1.784  0.00  0.00    -0.078 C 
ATOM     16  N   UNL     1       2.591  -0.606   1.381  0.00  0.00    +0.385 N 
ATOM     17  H   UNL     1       2.104  -0.218   2.197  0.00  0.00    -0.081 HD
ENDBRANCH   1  16
BRANCH   1  18
ATOM     18  C   UNL     1       1.390   1.132   0.093  0.00  0.00    +0.094 C 
BRANCH  18  21
ATOM     19  C   UNL     1      -0.812   0.496  -0.734  0.00  0.00    +0.299 C 
ATOM     20  O   UNL     1      -1.230   1.572  -0.360  0.00  0.00    -0.265 OA
ATOM     21  N   UNL     1       0.485   0.177  -0.551  0.00  0.00    -0.309 N 
ATOM     22  H   UNL     1       0.819  -0.683  -0.850  0.00  0.00    +0.149 HD
BRANCH  19  24
ATOM     23  N   UNL     1      -3.030  -0.156  -1.579  0.00  0.00    -0.278 N 
ATOM     24  C   UNL     1      -1.734  -0.475  -1.396  0.00  0.00    +0.303 C 
ATOM     25  O   UNL     1      -1.315  -1.551  -1.770  0.00  0.00    -0.265 OA
ATOM     26  H   UNL     1      -3.352   0.726  -1.334  0.00  0.00    +0.155 HD
BRANCH  23  33
ATOM     27  C   UNL     1      -5.784   0.031  -0.888  0.00  0.00    +0.045 C 
ATOM     28  C   UNL     1      -5.264  -1.042  -1.810  0.00  0.00    -0.029 A 
ATOM     29  C   UNL     1      -6.132  -1.972  -2.348  0.00  0.00    +0.005 A 
ATOM     30  C   UNL     1      -5.656  -2.955  -3.195  0.00  0.00    +0.000 A 
ATOM     31  C   UNL     1      -4.309  -3.012  -3.506  0.00  0.00    +0.002 A 
ATOM     32  C   UNL     1      -3.437  -2.082  -2.976  0.00  0.00    +0.023 A 
ATOM     33  C   UNL     1      -3.911  -1.095  -2.121  0.00  0.00    +0.037 A 
ENDBRANCH  23  33
ENDBRANCH  19  24
ENDBRANCH  18  21
ENDBRANCH   1  18
TORSDOF 6
