REMARK  Name = ZINC19273428
REMARK  3 active torsions:
REMARK  status: ('A' for Active; 'I' for Inactive)
REMARK    1  A    between atoms: C_3  and  N_18
REMARK    2  A    between atoms: C_6  and  C_7
REMARK    3  A    between atoms: C_7  and  N_8
REMARK                            x       y       z     vdW  Elec       q    Type
REMARK                         _______ _______ _______ _____ _____    ______ ____
ROOT
ATOM      1  C   UNL     1       0.002  -0.004   0.002  0.00  0.00    +0.161 C 
ENDROOT
BRANCH   1   2
ATOM      2  N   UNL     1      -0.018   1.461   0.010  0.00  0.00    -0.294 N 
ATOM      3  C   UNL     1       1.157   2.142   0.003  0.00  0.00    +0.203 A 
ATOM      4  N   UNL     1       1.181   3.448   0.009  0.00  0.00    -0.230 NA
ATOM      5  C   UNL     1       0.054   4.154   0.023  0.00  0.00    +0.115 A 
ATOM      6  C   UNL     1      -1.210   3.537   0.033  0.00  0.00    +0.072 A 
ATOM      7  C   UNL     1      -1.200   2.104   0.019  0.00  0.00    +0.262 A 
ATOM      8  O   UNL     1      -2.246   1.478   0.021  0.00  0.00    -0.267 OA
ATOM      9  C   UNL     1      -2.338   4.450   0.048  0.00  0.00    +0.023 A 
ATOM     10  C   UNL     1      -2.110   5.773   0.052  0.00  0.00    +0.048 A 
ATOM     11  S   UNL     1      -0.331   5.886   0.035  0.00  0.00    -0.077 S 
ENDBRANCH   1   2
BRANCH   1  17
ATOM     12  C   UNL     1       1.230  -0.736   2.056  0.00  0.00    +0.007 A 
ATOM     13  C   UNL     1       1.252  -1.198   3.357  0.00  0.00    +0.023 A 
ATOM     14  C   UNL     1       0.060  -1.450   4.024  0.00  0.00    +0.025 A 
ATOM     15  C   UNL     1      -1.151  -1.231   3.380  0.00  0.00    +0.023 A 
ATOM     16  C   UNL     1      -1.167  -0.764   2.080  0.00  0.00    +0.007 A 
ATOM     17  C   UNL     1       0.022  -0.514   1.420  0.00  0.00    -0.028 A 
BRANCH  14  18
ATOM     18  N   UNL     1       0.079  -1.922   5.338  0.00  0.00    -0.358 N 
ATOM     19  H   UNL     1      -0.866  -2.122   5.864  0.00  0.00    +0.142 HD
ATOM     20  H   UNL     1       1.039  -2.095   5.846  0.00  0.00    +0.142 HD
ENDBRANCH  14  18
ENDBRANCH   1  17
TORSDOF 3
