REMARK  Name = ZINC09866726
REMARK  6 active torsions:
REMARK  status: ('A' for Active; 'I' for Inactive)
REMARK    1  A    between atoms: C_1  and  C_2
REMARK    2  A    between atoms: C_2  and  C_3
REMARK    3  A    between atoms: C_3  and  C_29
REMARK    4  A    between atoms: N_6  and  C_10
REMARK    5  A    between atoms: C_10  and  C_11
REMARK    6  A    between atoms: C_17  and  C_20
REMARK                            x       y       z     vdW  Elec       q    Type
REMARK                         _______ _______ _______ _____ _____    ______ ____
ROOT
ATOM      1  C   UNL     1      -1.865   1.237  -3.349  0.00  0.00    +0.213 C 
ENDROOT
BRANCH   1   5
ATOM      2  C   UNL     1      -3.233  -1.634  -5.267  0.00  0.00    +0.138 C 
ATOM      3  C   UNL     1      -3.332  -0.596  -4.166  0.00  0.00    +0.251 C 
ATOM      4  O   UNL     1      -4.245  -0.442  -3.385  0.00  0.00    -0.272 OA
ATOM      5  N   UNL     1      -2.192   0.119  -4.237  0.00  0.00    -0.215 N 
ATOM      6  C   UNL     1      -1.397  -0.315  -5.223  0.00  0.00    +0.310 C 
ATOM      7  O   UNL     1      -0.316   0.175  -5.484  0.00  0.00    -0.252 OA
ATOM      8  N   UNL     1      -1.927  -1.357  -5.888  0.00  0.00    -0.281 N 
ATOM      9  H   UNL     1      -1.528  -1.831  -6.634  0.00  0.00    +0.152 HD
BRANCH   2  10
ATOM     10  C   UNL     1      -3.264  -3.025  -4.689  0.00  0.00    -0.015 A 
ATOM     11  C   UNL     1      -4.471  -3.679  -4.526  0.00  0.00    +0.006 A 
ATOM     12  C   UNL     1      -4.500  -4.957  -3.999  0.00  0.00    +0.000 A 
ATOM     13  C   UNL     1      -3.322  -5.577  -3.627  0.00  0.00    +0.000 A 
ATOM     14  C   UNL     1      -2.115  -4.921  -3.784  0.00  0.00    +0.000 A 
ATOM     15  C   UNL     1      -2.087  -3.645  -4.315  0.00  0.00    +0.006 A 
ENDBRANCH   2  10
BRANCH   2  17
ATOM     16  C   UNL     1      -4.203  -0.099  -6.983  0.00  0.00    +0.007 C 
ATOM     17  C   UNL     1      -4.362  -1.450  -6.283  0.00  0.00    +0.037 C 
ENDBRANCH   2  17
ENDBRANCH   1   5
BRANCH   1  18
ATOM     18  C   UNL     1      -1.132   0.720  -2.138  0.00  0.00    +0.234 C 
ATOM     19  O   UNL     1      -0.904  -0.466  -2.028  0.00  0.00    -0.274 OA
ATOM     20  N   UNL     1      -0.729   1.575  -1.178  0.00  0.00    -0.300 N 
ATOM     21  C   UNL     1      -0.997   3.015  -1.297  0.00  0.00    +0.108 C 
ATOM     22  C   UNL     1      -1.712   3.490  -0.028  0.00  0.00    +0.020 C 
ATOM     23  C   UNL     1      -0.878   3.105   1.196  0.00  0.00    +0.013 C 
ATOM     24  C   UNL     1      -0.736   1.583   1.264  0.00  0.00    +0.062 C 
ATOM     25  C   UNL     1      -0.013   1.086   0.008  0.00  0.00    +0.118 C 
BRANCH  24  26
ATOM     26  C   UNL     1       0.061   1.203   2.486  0.00  0.00    +0.084 A 
ATOM     27  N   UNL     1      -0.305   0.455   3.489  0.00  0.00    -0.244 NA
ATOM     28  C   UNL     1       0.511   0.189   4.530  0.00  0.00    +0.078 A 
ATOM     29  C   UNL     1       0.263  -0.595   5.678  0.00  0.00    +0.029 A 
ATOM     30  C   UNL     1       1.219  -0.750   6.633  0.00  0.00    +0.002 A 
ATOM     31  C   UNL     1       2.466  -0.150   6.520  0.00  0.00    +0.001 A 
ATOM     32  C   UNL     1       2.748   0.626   5.411  0.00  0.00    +0.017 A 
ATOM     33  C   UNL     1       1.789   0.788   4.441  0.00  0.00    +0.039 A 
ATOM     34  S   UNL     1       1.688   1.651   2.893  0.00  0.00    -0.072 S 
ENDBRANCH  24  26
ENDBRANCH   1  18
TORSDOF 5
