REMARK  Name = ZINC11488048
REMARK  11 active torsions:
REMARK  status: ('A' for Active; 'I' for Inactive)
REMARK    1  A    between atoms: C_1  and  C_2
REMARK    2  A    between atoms: C_5  and  S_8
REMARK    3  A    between atoms: S_8  and  N_11
REMARK    4  A    between atoms: N_11  and  C_12
REMARK    5  A    between atoms: C_12  and  C_14
REMARK    6  A    between atoms: C_12  and  C_17
REMARK    7  A    between atoms: C_14  and  C_15
REMARK    8  A    between atoms: C_14  and  C_16
REMARK    9  A    between atoms: C_17  and  O_19
REMARK   10  A    between atoms: O_19  and  C_20
REMARK   11  A    between atoms: C_20  and  C_21
REMARK                            x       y       z     vdW  Elec       q    Type
REMARK                         _______ _______ _______ _____ _____    ______ ____
ROOT
ATOM      1  C   UNL     1       1.431   2.071  -0.352  0.00  0.00    +0.187 C 
ENDROOT
BRANCH   1   2
ATOM      2  C   UNL     1       2.162   1.869   0.977  0.00  0.00    +0.012 C 
ATOM      3  C   UNL     1       1.245   2.277   2.131  0.00  0.00    +0.009 C 
ATOM      4  C   UNL     1       2.547   0.396   1.128  0.00  0.00    +0.009 C 
ENDBRANCH   1   2
BRANCH   1   5
ATOM      5  N   UNL     1       1.155   3.497  -0.545  0.00  0.00    -0.176 NA
ATOM      6  H   UNL     1       0.364   3.896  -0.149  0.00  0.00    +0.149 HD
BRANCH   5   7
ATOM      7  S   UNL     1       2.191   4.427  -1.441  0.00  0.00    +0.059 S 
ATOM      8  O   UNL     1       1.629   5.731  -1.488  0.00  0.00    -0.153 OA
ATOM      9  O   UNL     1       3.497   4.179  -0.938  0.00  0.00    -0.153 OA
BRANCH   7  14
ATOM     10  C   UNL     1       2.083   2.295  -7.084  0.00  0.00    +0.044 C 
ATOM     11  C   UNL     1       2.111   2.827  -5.674  0.00  0.00    -0.050 A 
ATOM     12  C   UNL     1       1.224   3.817  -5.293  0.00  0.00    +0.005 A 
ATOM     13  C   UNL     1       1.249   4.306  -4.000  0.00  0.00    +0.029 A 
ATOM     14  C   UNL     1       2.160   3.804  -3.089  0.00  0.00    +0.105 A 
ATOM     15  C   UNL     1       3.049   2.818  -3.472  0.00  0.00    +0.029 A 
ATOM     16  C   UNL     1       3.021   2.326  -4.763  0.00  0.00    +0.005 A 
ENDBRANCH   7  14
ENDBRANCH   5   7
ENDBRANCH   1   5
BRANCH   1  17
ATOM     17  C   UNL     1       0.133   1.306  -0.333  0.00  0.00    +0.327 C 
ATOM     18  O   UNL     1      -0.915   1.891  -0.472  0.00  0.00    -0.249 OA
BRANCH  17  19
ATOM     19  O   UNL     1       0.141  -0.026  -0.167  0.00  0.00    -0.454 OA
BRANCH  19  20
ATOM     20  C   UNL     1      -1.146  -0.697  -0.159  0.00  0.00    +0.327 C 
BRANCH  20  21
ATOM     21  C   UNL     1      -0.940  -2.177   0.037  0.00  0.00    +0.254 C 
ATOM     22  O   UNL     1       0.182  -2.622   0.158  0.00  0.00    -0.272 OA
ATOM     23  N   UNL     1      -2.002  -3.006   0.079  0.00  0.00    -0.294 N 
ATOM     24  C   UNL     1      -1.834  -4.457   0.269  0.00  0.00    +0.113 C 
ATOM     25  C   UNL     1      -2.481  -4.834   1.600  0.00  0.00    +0.054 C 
ATOM     26  C   UNL     1      -3.853  -4.223   1.722  0.00  0.00    -0.041 A 
ATOM     27  C   UNL     1      -4.728  -4.785   2.644  0.00  0.00    +0.004 A 
ATOM     28  C   UNL     1      -5.997  -4.270   2.811  0.00  0.00    +0.000 A 
ATOM     29  C   UNL     1      -6.403  -3.184   2.057  0.00  0.00    +0.000 A 
ATOM     30  C   UNL     1      -5.537  -2.627   1.139  0.00  0.00    +0.005 A 
ATOM     31  C   UNL     1      -4.261  -3.148   0.966  0.00  0.00    -0.027 A 
ATOM     32  C   UNL     1      -3.371  -2.499  -0.058  0.00  0.00    +0.143 C 
ENDBRANCH  20  21
ENDBRANCH  19  20
ENDBRANCH  17  19
ENDBRANCH   1  17
TORSDOF 8
