REMARK  Name = ZINC20835472
REMARK  8 active torsions:
REMARK  status: ('A' for Active; 'I' for Inactive)
REMARK    1  A    between atoms: C_1  and  C_2
REMARK    2  A    between atoms: C_2  and  C_27
REMARK    3  A    between atoms: N_3  and  N_4
REMARK    4  A    between atoms: C_7  and  S_10
REMARK    5  A    between atoms: S_10  and  C_11
REMARK    6  A    between atoms: C_11  and  C_12
REMARK    7  A    between atoms: N_14  and  C_15
REMARK    8  A    between atoms: N_14  and  C_21
REMARK                            x       y       z     vdW  Elec       q    Type
REMARK                         _______ _______ _______ _____ _____    ______ ____
ROOT
ATOM      1  N   UNL     1      -0.015   0.967  -0.143  0.00  0.00    -0.205 N 
ATOM      2  C   UNL     1      -1.226   1.644  -0.112  0.00  0.00    +0.232 A 
ATOM      3  N   UNL     1      -2.467   1.071  -0.091  0.00  0.00    -0.186 NA
ATOM      4  C   UNL     1      -3.394   2.074  -0.063  0.00  0.00    +0.211 A 
ATOM      5  N   UNL     1      -2.754   3.218  -0.066  0.00  0.00    -0.144 NA
ATOM      6  N   UNL     1      -1.380   2.946  -0.092  0.00  0.00    -0.245 N 
ATOM      7  H   UNL     1      -0.001  -0.133  -0.148  0.00  0.00    +0.177 HD
ATOM      8  H   UNL     1      -0.499   3.604  -0.096  0.00  0.00    +0.192 HD
ENDROOT
BRANCH   1  11
ATOM      9  C   UNL     1       2.341  -0.458  -0.216  0.00  0.00    +0.068 C 
ATOM     10  C   UNL     1       2.321   1.049  -0.202  0.00  0.00    +0.063 C 
ATOM     11  N   UNL     1       1.188   1.683  -0.168  0.00  0.00    -0.184 NA
BRANCH  10  12
ATOM     12  C   UNL     1       3.587   1.804  -0.228  0.00  0.00    -0.002 A 
ATOM     13  C   UNL     1       4.808   1.124  -0.259  0.00  0.00    +0.012 A 
ATOM     14  C   UNL     1       5.989   1.835  -0.290  0.00  0.00    +0.039 A 
ATOM     15  C   UNL     1       5.967   3.221  -0.277  0.00  0.00    +0.123 A 
ATOM     16  C   UNL     1       4.760   3.901  -0.240  0.00  0.00    +0.039 A 
ATOM     17  C   UNL     1       3.572   3.201  -0.215  0.00  0.00    +0.012 A 
ATOM     18  F   UNL     1       7.128   3.912  -0.300  0.00  0.00    -0.205 F 
ENDBRANCH  10  12
ENDBRANCH   1  11
BRANCH   4  19
ATOM     19  S   UNL     1      -5.144   1.865  -0.028  0.00  0.00    -0.075 S 
BRANCH  19  20
ATOM     20  C   UNL     1      -5.787   3.562  -0.000  0.00  0.00    +0.173 C 
BRANCH  20  21
ATOM     21  C   UNL     1      -7.293   3.527   0.031  0.00  0.00    +0.226 C 
ATOM     22  O   UNL     1      -7.878   2.469  -0.066  0.00  0.00    -0.275 OA
ATOM     23  N   UNL     1      -7.991   4.672   0.168  0.00  0.00    -0.295 N 
BRANCH  23  24
ATOM     24  C   UNL     1      -9.448   4.630   0.312  0.00  0.00    +0.076 C 
ATOM     25  C   UNL     1      -9.813   3.824   1.561  0.00  0.00    +0.022 C 
ATOM     26  C   UNL     1     -11.335   3.779   1.712  0.00  0.00    +0.002 C 
ATOM     27  C   UNL     1     -11.951   3.115   0.478  0.00  0.00    +0.000 C 
ATOM     28  C   UNL     1     -11.586   3.921  -0.770  0.00  0.00    +0.002 C 
ATOM     29  C   UNL     1     -10.064   3.966  -0.921  0.00  0.00    +0.022 C 
ENDBRANCH  23  24
BRANCH  23  30
ATOM     30  C   UNL     1      -7.292   5.960   0.171  0.00  0.00    +0.076 C 
ATOM     31  C   UNL     1      -7.476   6.636   1.531  0.00  0.00    +0.022 C 
ATOM     32  C   UNL     1      -6.745   7.981   1.534  0.00  0.00    +0.002 C 
ATOM     33  C   UNL     1      -7.322   8.877   0.437  0.00  0.00    +0.000 C 
ATOM     34  C   UNL     1      -7.139   8.201  -0.923  0.00  0.00    +0.002 C 
ATOM     35  C   UNL     1      -7.869   6.856  -0.926  0.00  0.00    +0.022 C 
ENDBRANCH  23  30
ENDBRANCH  20  21
ENDBRANCH  19  20
ENDBRANCH   4  19
TORSDOF 7
