REMARK  Name = ZINC27534041
REMARK  2 active torsions:
REMARK  status: ('A' for Active; 'I' for Inactive)
REMARK    1  A    between atoms: C_1  and  C_2
REMARK    2  A    between atoms: C_6  and  N_8
REMARK                            x       y       z     vdW  Elec       q    Type
REMARK                         _______ _______ _______ _____ _____    ______ ____
ROOT
ATOM      1  N   UNL     1      -0.016   1.344   0.009  0.00  0.00    -0.229 N 
ATOM      2  C   UNL     1       0.056   0.087   0.492  0.00  0.00    +0.265 A 
ATOM      3  O   UNL     1      -0.937  -0.458   0.940  0.00  0.00    -0.267 OA
ATOM      4  C   UNL     1       1.291  -0.590   0.473  0.00  0.00    +0.048 A 
ATOM      5  C   UNL     1       2.389   0.049  -0.029  0.00  0.00    +0.060 A 
ATOM      6  N   UNL     1       2.269   1.330  -0.512  0.00  0.00    -0.306 N 
ATOM      7  H   UNL     1       3.149   1.848  -0.921  0.00  0.00    +0.170 HD
ATOM      8  C   UNL     1       1.076   1.954  -0.486  0.00  0.00    +0.334 A 
ATOM      9  O   UNL     1       0.984   3.087  -0.918  0.00  0.00    -0.246 OA
ATOM     10  C   UNL     1       3.686  -0.653  -0.041  0.00  0.00    +0.002 A 
ATOM     11  C   UNL     1       4.884   0.051  -0.140  0.00  0.00    +0.010 A 
ATOM     12  C   UNL     1       6.082  -0.636  -0.153  0.00  0.00    +0.001 A 
ATOM     13  C   UNL     1       6.091  -2.017  -0.067  0.00  0.00    +0.000 A 
ATOM     14  C   UNL     1       4.904  -2.722   0.033  0.00  0.00    +0.004 A 
ATOM     15  C   UNL     1       3.702  -2.048   0.047  0.00  0.00    -0.037 A 
ATOM     16  C   UNL     1       2.402  -2.801   0.160  0.00  0.00    +0.047 C 
ATOM     17  C   UNL     1       1.405  -1.996   0.990  0.00  0.00    +0.007 C 
ATOM     18  C   UNL     1       0.024  -2.679   0.943  0.00  0.00    +0.012 C 
ATOM     19  C   UNL     1      -0.012  -3.549   2.225  0.00  0.00    +0.001 C 
ATOM     20  C   UNL     1       0.711  -2.657   3.265  0.00  0.00    +0.001 C 
ATOM     21  C   UNL     1       1.843  -1.981   2.463  0.00  0.00    +0.012 C 
ENDROOT
BRANCH   1  27
ATOM     22  C   UNL     1      -4.244   2.476  -2.234  0.00  0.00    +0.044 C 
ATOM     23  C   UNL     1      -3.311   2.586  -1.055  0.00  0.00    -0.048 A 
ATOM     24  C   UNL     1      -3.666   3.357   0.037  0.00  0.00    +0.003 A 
ATOM     25  C   UNL     1      -2.813   3.461   1.120  0.00  0.00    +0.002 A 
ATOM     26  C   UNL     1      -1.602   2.795   1.114  0.00  0.00    +0.026 A 
ATOM     27  C   UNL     1      -1.243   2.020   0.019  0.00  0.00    +0.055 A 
ATOM     28  C   UNL     1      -2.100   1.922  -1.069  0.00  0.00    +0.029 A 
ENDBRANCH   1  27
TORSDOF 1
