REMARK  Name = ZINC04877921
REMARK  11 active torsions:
REMARK  status: ('A' for Active; 'I' for Inactive)
REMARK    1  A    between atoms: C_1  and  C_2
REMARK    2  A    between atoms: C_5  and  C_8
REMARK    3  A    between atoms: C_14  and  C_16
REMARK    4  A    between atoms: C_16  and  C_18
REMARK    5  A    between atoms: C_16  and  N_21
REMARK    6  A    between atoms: C_18  and  C_19
REMARK    7  A    between atoms: C_18  and  C_20
REMARK    8  A    between atoms: C_22  and  C_24
REMARK    9  A    between atoms: C_24  and  C_25
REMARK   10  A    between atoms: C_25  and  C_26
REMARK   11  A    between atoms: C_25  and  C_27
REMARK                            x       y       z     vdW  Elec       q    Type
REMARK                         _______ _______ _______ _____ _____    ______ ____
ROOT
ATOM      1  C   UNL     1      -1.911  -4.331  -1.067  0.00  0.00    +0.134 A 
ATOM      2  N   UNL     1      -0.693  -3.896  -0.765  0.00  0.00    -0.140 NA
ATOM      3  N   UNL     1      -0.475  -2.662  -0.617  0.00  0.00    -0.125 NA
ATOM      4  C   UNL     1      -1.436  -1.760  -0.743  0.00  0.00    +0.188 A 
ATOM      5  S   UNL     1      -2.795  -2.776  -1.125  0.00  0.00    -0.030 S 
ATOM      6  N   UNL     1      -1.375  -0.379  -0.611  0.00  0.00    -0.262 N 
ATOM      7  C   UNL     1      -0.206   0.218  -0.306  0.00  0.00    +0.239 C 
ATOM      8  O   UNL     1       0.810  -0.440  -0.232  0.00  0.00    -0.273 OA
ATOM      9  H   UNL     1      -2.174   0.157  -0.739  0.00  0.00    +0.157 HD
ENDROOT
BRANCH   1  14
ATOM     10  C   UNL     1      -3.806  -9.693  -1.942  0.00  0.00    +0.044 C 
ATOM     11  C   UNL     1      -3.310  -8.289  -1.713  0.00  0.00    -0.050 A 
ATOM     12  C   UNL     1      -1.979  -8.070  -1.404  0.00  0.00    +0.004 A 
ATOM     13  C   UNL     1      -1.518  -6.787  -1.194  0.00  0.00    +0.011 A 
ATOM     14  C   UNL     1      -2.398  -5.708  -1.292  0.00  0.00    +0.009 A 
ATOM     15  C   UNL     1      -3.740  -5.936  -1.598  0.00  0.00    +0.011 A 
ATOM     16  C   UNL     1      -4.187  -7.223  -1.811  0.00  0.00    +0.004 A 
ENDBRANCH   1  14
BRANCH   7  17
ATOM     17  C   UNL     1      -0.160   1.704  -0.056  0.00  0.00    +0.162 C 
BRANCH  17  18
ATOM     18  N   UNL     1       1.180   2.210  -0.363  0.00  0.00    -0.304 N 
ATOM     19  C   UNL     1       1.350   3.502  -0.707  0.00  0.00    +0.214 C 
ATOM     20  O   UNL     1       0.393   4.246  -0.762  0.00  0.00    -0.276 OA
ATOM     21  H   UNL     1       1.945   1.615  -0.320  0.00  0.00    +0.149 HD
BRANCH  19  22
ATOM     22  C   UNL     1       2.728   4.023  -1.023  0.00  0.00    +0.098 C 
BRANCH  22  23
ATOM     23  C   UNL     1       2.643   5.508  -1.380  0.00  0.00    -0.008 C 
ATOM     24  C   UNL     1       4.053   6.066  -1.579  0.00  0.00    +0.008 C 
ATOM     25  C   UNL     1       1.841   5.677  -2.672  0.00  0.00    +0.008 C 
ENDBRANCH  22  23
ENDBRANCH  19  22
ENDBRANCH  17  18
BRANCH  17  26
ATOM     26  C   UNL     1      -0.488   1.985   1.411  0.00  0.00    +0.012 C 
ATOM     27  C   UNL     1      -0.499   3.496   1.651  0.00  0.00    +0.009 C 
ATOM     28  C   UNL     1      -1.863   1.404   1.748  0.00  0.00    +0.009 C 
ENDBRANCH  17  26
ENDBRANCH   7  17
TORSDOF 6
