REMARK  Name = ZINC63908311
REMARK  13 active torsions:
REMARK  status: ('A' for Active; 'I' for Inactive)
REMARK    1  A    between atoms: C_1  and  C_2
REMARK    2  A    between atoms: C_2  and  O_3
REMARK    3  A    between atoms: O_3  and  C_4
REMARK    4  A    between atoms: C_4  and  C_6
REMARK    5  A    between atoms: C_7  and  C_32
REMARK    6  A    between atoms: C_8  and  C_31
REMARK    7  A    between atoms: C_11  and  N_13
REMARK    8  A    between atoms: C_14  and  C_16
REMARK    9  A    between atoms: C_16  and  O_17
REMARK   10  A    between atoms: O_17  and  C_18
REMARK   11  A    between atoms: C_18  and  C_20
REMARK   12  A    between atoms: C_20  and  C_21
REMARK   13  A    between atoms: C_21  and  C_22
REMARK                            x       y       z     vdW  Elec       q    Type
REMARK                         _______ _______ _______ _____ _____    ______ ____
ROOT
ATOM      1  N   UNL     1       1.071  -0.917   4.404  0.00  0.00    -0.297 N 
ATOM      2  C   UNL     1       1.264  -0.903   5.738  0.00  0.00    +0.252 C 
ATOM      3  O   UNL     1       2.292  -1.343   6.207  0.00  0.00    -0.272 OA
ATOM      4  H   UNL     1       0.248  -0.565   4.029  0.00  0.00    +0.150 HD
ENDROOT
BRANCH   1   9
ATOM      5  C   UNL     1       1.496  -2.370   2.465  0.00  0.00    +0.071 C 
ATOM      6  C   UNL     1       1.618  -3.684   2.625  0.00  0.00    -0.015 C 
ATOM      7  C   UNL     1       2.351  -4.188   3.855  0.00  0.00    +0.076 C 
ATOM      8  S   UNL     1       3.189  -2.647   4.426  0.00  0.00    -0.126 S 
ATOM      9  C   UNL     1       2.104  -1.464   3.520  0.00  0.00    +0.169 C 
ATOM     10  C   UNL     1       1.370  -4.705   4.908  0.00  0.00    +0.024 C 
BRANCH   6  11
ATOM     11  C   UNL     1       1.058  -4.622   1.639  0.00  0.00    -0.020 A 
ATOM     12  C   UNL     1       0.013  -5.480   1.999  0.00  0.00    +0.008 A 
ATOM     13  C   UNL     1      -0.506  -6.356   1.070  0.00  0.00    +0.001 A 
ATOM     14  C   UNL     1       0.004  -6.388  -0.217  0.00  0.00    +0.000 A 
ATOM     15  C   UNL     1       1.037  -5.542  -0.581  0.00  0.00    +0.001 A 
ATOM     16  C   UNL     1       1.563  -4.657   0.336  0.00  0.00    +0.008 A 
ENDBRANCH   6  11
BRANCH   5  17
ATOM     17  C   UNL     1       0.801  -1.814   1.305  0.00  0.00    +0.338 C 
ATOM     18  O   UNL     1       0.321  -2.557   0.470  0.00  0.00    -0.245 OA
BRANCH  17  19
ATOM     19  O   UNL     1       0.693  -0.477   1.160  0.00  0.00    -0.462 OA
BRANCH  19  21
ATOM     20  C   UNL     1      -0.019   1.526   0.010  0.00  0.00    +0.048 C 
ATOM     21  C   UNL     1       0.002  -0.004   0.002  0.00  0.00    +0.229 C 
ENDBRANCH  19  21
ENDBRANCH  17  19
ENDBRANCH   5  17
ENDBRANCH   1   9
BRANCH   2  22
ATOM     22  C   UNL     1       0.202  -0.341   6.647  0.00  0.00    +0.327 C 
BRANCH  22  23
ATOM     23  O   UNL     1       0.637  -0.438   8.005  0.00  0.00    -0.455 OA
BRANCH  23  24
ATOM     24  C   UNL     1      -0.200   0.023   8.947  0.00  0.00    +0.308 C 
ATOM     25  O   UNL     1      -1.267   0.493   8.630  0.00  0.00    -0.251 OA
BRANCH  24  26
ATOM     26  C   UNL     1       0.191  -0.045  10.401  0.00  0.00    +0.125 C 
BRANCH  26  27
ATOM     27  C   UNL     1      -0.932   0.541  11.259  0.00  0.00    +0.044 C 
BRANCH  27  28
ATOM     28  C   UNL     1      -0.541   0.473  12.713  0.00  0.00    -0.041 C 
ATOM     29  C   UNL     1       0.034   1.452  13.448  0.00  0.00    -0.001 A 
ATOM     30  C   UNL     1       0.454   2.821  13.125  0.00  0.00    +0.010 A 
ATOM     31  C   UNL     1       1.015   3.581  14.093  0.00  0.00    +0.001 A 
ATOM     32  C   UNL     1       1.206   3.094  15.394  0.00  0.00    +0.002 A 
ATOM     33  C   UNL     1       0.846   1.847  15.766  0.00  0.00    +0.026 A 
ATOM     34  C   UNL     1       0.246   0.962  14.829  0.00  0.00    +0.043 A 
ATOM     35  N   UNL     1      -0.181  -0.272  14.943  0.00  0.00    -0.380 N 
ATOM     36  C   UNL     1      -0.719  -0.703  13.648  0.00  0.00    +0.144 C 
ATOM     37  H   UNL     1      -0.150  -0.809  15.751  0.00  0.00    +0.160 HD
ENDBRANCH  27  28
ENDBRANCH  26  27
ENDBRANCH  24  26
ENDBRANCH  23  24
ENDBRANCH  22  23
ENDBRANCH   2  22
TORSDOF 11
