REMARK  Name = ZINC33629908
REMARK  18 active torsions:
REMARK  status: ('A' for Active; 'I' for Inactive)
REMARK    1  A    between atoms: C_1  and  C_2
REMARK    2  A    between atoms: C_2  and  C_3
REMARK    3  A    between atoms: C_3  and  C_4
REMARK    4  A    between atoms: C_4  and  C_5
REMARK    5  A    between atoms: C_5  and  C_6
REMARK    6  A    between atoms: C_6  and  C_7
REMARK    7  A    between atoms: N_9  and  C_10
REMARK    8  A    between atoms: N_9  and  C_32
REMARK    9  A    between atoms: C_10  and  C_11
REMARK   10  A    between atoms: N_13  and  C_14
REMARK   11  A    between atoms: N_13  and  C_26
REMARK   12  A    between atoms: C_14  and  C_15
REMARK   13  A    between atoms: C_15  and  C_16
REMARK   14  A    between atoms: C_19  and  O_24
REMARK   15  A    between atoms: C_20  and  O_22
REMARK   16  A    between atoms: O_22  and  C_23
REMARK   17  A    between atoms: O_24  and  C_25
REMARK   18  A    between atoms: C_26  and  C_27
REMARK                            x       y       z     vdW  Elec       q    Type
REMARK                         _______ _______ _______ _____ _____    ______ ____
ROOT
ATOM      1  C   UNL     1      -0.036   1.089   0.079  0.00  0.00    +0.233 C 
ATOM      2  O   UNL     1       0.066  -0.120   0.071  0.00  0.00    -0.274 OA
ATOM      3  N   UNL     1      -1.255   1.662   0.133  0.00  0.00    -0.295 N 
ENDROOT
BRANCH   1   4
ATOM      4  C   UNL     1       1.199   1.950   0.022  0.00  0.00    +0.203 C 
BRANCH   4   7
ATOM      5  C   UNL     1       2.990   0.699   1.102  0.00  0.00    +0.216 C 
ATOM      6  O   UNL     1       2.492   0.965   2.175  0.00  0.00    -0.276 OA
ATOM      7  N   UNL     1       2.388   1.095  -0.037  0.00  0.00    -0.290 N 
BRANCH   7   8
ATOM      8  C   UNL     1       2.921   0.670  -1.333  0.00  0.00    +0.077 C 
ATOM      9  C   UNL     1       3.322   1.902  -2.148  0.00  0.00    +0.022 C 
ATOM     10  C   UNL     1       3.879   1.459  -3.502  0.00  0.00    +0.002 C 
ATOM     11  C   UNL     1       2.809   0.672  -4.261  0.00  0.00    +0.000 C 
ATOM     12  C   UNL     1       2.409  -0.560  -3.447  0.00  0.00    +0.002 C 
ATOM     13  C   UNL     1       1.851  -0.117  -2.092  0.00  0.00    +0.022 C 
ENDBRANCH   7   8
BRANCH   5  14
ATOM     14  C   UNL     1       4.282  -0.075   1.042  0.00  0.00    +0.096 C 
BRANCH  14  15
ATOM     15  C   UNL     1       4.710  -0.463   2.458  0.00  0.00    +0.009 C 
BRANCH  15  16
ATOM     16  C   UNL     1       6.022  -1.248   2.397  0.00  0.00    +0.000 C 
BRANCH  16  17
ATOM     17  C   UNL     1       6.451  -1.637   3.813  0.00  0.00    -0.000 C 
BRANCH  17  19
ATOM     18  C   UNL     1       8.191  -2.810   5.168  0.00  0.00    +0.004 C 
ATOM     19  C   UNL     1       7.763  -2.422   3.752  0.00  0.00    -0.003 C 
ENDBRANCH  17  19
ENDBRANCH  16  17
ENDBRANCH  15  16
ENDBRANCH  14  15
ENDBRANCH   5  14
ENDBRANCH   4   7
ENDBRANCH   1   4
BRANCH   3  20
ATOM     20  C   UNL     1      -2.456   0.825   0.182  0.00  0.00    +0.113 C 
BRANCH  20  21
ATOM     21  C   UNL     1      -2.813   0.530   1.640  0.00  0.00    +0.054 C 
BRANCH  21  22
ATOM     22  C   UNL     1      -4.049  -0.331   1.690  0.00  0.00    -0.042 A 
ATOM     23  C   UNL     1      -5.298   0.259   1.752  0.00  0.00    +0.007 A 
ATOM     24  C   UNL     1      -6.435  -0.526   1.792  0.00  0.00    +0.049 A 
ATOM     25  C   UNL     1      -6.324  -1.907   1.783  0.00  0.00    +0.161 A 
ATOM     26  C   UNL     1      -5.066  -2.501   1.728  0.00  0.00    +0.162 A 
ATOM     27  C   UNL     1      -3.931  -1.708   1.681  0.00  0.00    +0.053 A 
BRANCH  26  28
ATOM     28  O   UNL     1      -4.952  -3.856   1.718  0.00  0.00    -0.491 OA
ATOM     29  C   UNL     1      -3.630  -4.395   1.660  0.00  0.00    +0.277 C 
ENDBRANCH  26  28
BRANCH  25  30
ATOM     30  O   UNL     1      -7.441  -2.681   1.829  0.00  0.00    -0.491 OA
ATOM     31  C   UNL     1      -8.698  -2.004   1.885  0.00  0.00    +0.277 C 
ENDBRANCH  25  30
ENDBRANCH  21  22
ENDBRANCH  20  21
ENDBRANCH   3  20
BRANCH   3  32
ATOM     32  C   UNL     1      -1.378   3.122   0.142  0.00  0.00    +0.150 C 
BRANCH  32  33
ATOM     33  C   UNL     1      -1.481   3.627  -1.274  0.00  0.00    +0.007 A 
ATOM     34  C   UNL     1      -2.587   3.819  -2.033  0.00  0.00    +0.013 A 
ATOM     35  C   UNL     1      -2.441   4.299  -3.321  0.00  0.00    +0.008 A 
ATOM     36  C   UNL     1      -1.195   4.555  -3.790  0.00  0.00    +0.045 A 
ATOM     37  S   UNL     1      -0.177   4.119  -2.390  0.00  0.00    -0.100 S 
ENDBRANCH  32  33
ENDBRANCH   3  32
TORSDOF 15
