REMARK  Name = ZINC12891972
REMARK  6 active torsions:
REMARK  status: ('A' for Active; 'I' for Inactive)
REMARK    1  A    between atoms: C_1  and  C_2
REMARK    2  A    between atoms: C_2  and  O_3
REMARK    3  A    between atoms: O_3  and  C_4
REMARK    4  A    between atoms: C_9  and  C_10
REMARK    5  A    between atoms: C_10  and  C_12
REMARK    6  A    between atoms: C_34  and  C_39
REMARK                            x       y       z     vdW  Elec       q    Type
REMARK                         _______ _______ _______ _____ _____    ______ ____
ROOT
ATOM      1  C   UNL     1       2.913   4.495   1.219  0.00  0.00    +0.066 C 
ATOM      2  C   UNL     1       4.126   5.315   0.712  0.00  0.00    -0.055 C 
ATOM      3  C   UNL     1       4.166   6.665   1.446  0.00  0.00    -0.016 C 
ATOM      4  C   UNL     1       3.913   7.728   0.354  0.00  0.00    -0.020 C 
ATOM      5  C   UNL     1       3.169   6.928  -0.742  0.00  0.00    -0.076 C 
ATOM      6  C   UNL     1       2.904   4.549  -1.198  0.00  0.00    +0.060 C 
ATOM      7  C   UNL     1       2.581   3.638  -0.018  0.00  0.00    +0.085 C 
ATOM      8  C   UNL     1       1.149   3.192  -0.014  0.00  0.00    -0.011 A 
ATOM      9  C   UNL     1      -0.056   3.860  -0.000  0.00  0.00    +0.006 A 
ATOM     10  C   UNL     1      -1.242   3.149  -0.006  0.00  0.00    +0.000 A 
ATOM     11  C   UNL     1      -1.217   1.767  -0.030  0.00  0.00    +0.002 A 
ATOM     12  C   UNL     1      -0.013   1.093  -0.038  0.00  0.00    +0.023 A 
ATOM     13  C   UNL     1       1.186   1.800  -0.032  0.00  0.00    +0.038 A 
ATOM     14  N   UNL     1       2.510   1.353  -0.043  0.00  0.00    -0.285 N 
ATOM     15  C   UNL     1       3.391   2.373  -0.038  0.00  0.00    +0.228 C 
ATOM     16  O   UNL     1       4.600   2.286  -0.048  0.00  0.00    -0.275 OA
ATOM     17  C   UNL     1       3.491   3.776  -2.348  0.00  0.00    -0.026 A 
ATOM     18  C   UNL     1       4.614   2.991  -2.482  0.00  0.00    +0.004 A 
ATOM     19  C   UNL     1       4.901   2.394  -3.697  0.00  0.00    +0.001 A 
ATOM     20  C   UNL     1       4.056   2.588  -4.775  0.00  0.00    +0.005 A 
ATOM     21  C   UNL     1       2.929   3.372  -4.644  0.00  0.00    -0.029 A 
ATOM     22  C   UNL     1       2.633   3.977  -3.424  0.00  0.00    +0.039 A 
ATOM     23  N   UNL     1       1.571   4.800  -3.048  0.00  0.00    -0.286 N 
ATOM     24  C   UNL     1       1.653   5.178  -1.759  0.00  0.00    +0.212 C 
ATOM     25  O   UNL     1       0.871   5.888  -1.163  0.00  0.00    -0.277 OA
ATOM     26  C   UNL     1       2.014   3.577  -5.825  0.00  0.00    +0.045 C 
ATOM     27  H   UNL     1       2.764   0.417  -0.052  0.00  0.00    +0.155 HD
ATOM     28  H   UNL     1       0.856   5.069  -3.646  0.00  0.00    +0.155 HD
ATOM     29  N   UNL     1       3.825   5.599  -0.684  0.00  0.00    +0.395 N 
ATOM     30  H   UNL     1       4.687   5.607  -1.241  0.00  0.00    -0.079 HD
ENDROOT
BRANCH   1  31
ATOM     31  C   UNL     1       1.760   5.399   1.575  0.00  0.00    +0.169 C 
ATOM     32  O   UNL     1       1.732   6.538   1.158  0.00  0.00    -0.292 OA
BRANCH  31  38
ATOM     33  C   UNL     1      -0.403   5.739   2.761  0.00  0.00    +0.131 A 
ATOM     34  C   UNL     1      -1.425   5.256   3.565  0.00  0.00    +0.046 A 
ATOM     35  C   UNL     1      -1.383   3.958   4.034  0.00  0.00    +0.004 A 
ATOM     36  C   UNL     1      -0.323   3.127   3.706  0.00  0.00    +0.001 A 
ATOM     37  C   UNL     1       0.699   3.585   2.905  0.00  0.00    +0.015 A 
ATOM     38  C   UNL     1       0.673   4.901   2.426  0.00  0.00    +0.059 A 
BRANCH  33  39
ATOM     39  O   UNL     1      -0.443   7.013   2.299  0.00  0.00    -0.492 OA
BRANCH  39  41
ATOM     40  C   UNL     1      -1.440   9.203   2.071  0.00  0.00    +0.048 C 
ATOM     41  C   UNL     1      -1.569   7.806   2.681  0.00  0.00    +0.226 C 
ENDBRANCH  39  41
ENDBRANCH  33  39
ENDBRANCH  31  38
ENDBRANCH   1  31
TORSDOF 4
