REMARK  Name = ZINC36093547
REMARK  4 active torsions:
REMARK  status: ('A' for Active; 'I' for Inactive)
REMARK    1  A    between atoms: C_3  and  C_11
REMARK    2  A    between atoms: C_4  and  N_8
REMARK    3  A    between atoms: N_13  and  C_14
REMARK    4  A    between atoms: C_14  and  C_15
REMARK                            x       y       z     vdW  Elec       q    Type
REMARK                         _______ _______ _______ _____ _____    ______ ____
ROOT
ATOM      1  C   UNL     1      -0.005   1.361  -0.238  0.00  0.00    +0.021 A 
ATOM      2  C   UNL     1       1.134   2.088   0.040  0.00  0.00    +0.017 A 
ATOM      3  C   UNL     1       2.340   1.426   0.275  0.00  0.00    +0.067 A 
ATOM      4  C   UNL     1       2.386   0.031   0.228  0.00  0.00    +0.140 A 
ATOM      5  C   UNL     1       1.241  -0.684  -0.050  0.00  0.00    +0.053 A 
ATOM      6  C   UNL     1       0.046  -0.022  -0.283  0.00  0.00    +0.043 A 
ATOM      7 CL   UNL     1      -1.391  -0.930  -0.633  0.00  0.00    -0.083 Cl
ENDROOT
BRANCH   3   8
ATOM      8  C   UNL     1       3.564   2.199   0.573  0.00  0.00    +0.247 C 
ATOM      9  O   UNL     1       4.636   1.631   0.658  0.00  0.00    -0.270 OA
ATOM     10  N   UNL     1       3.492   3.533   0.750  0.00  0.00    -0.303 N 
ATOM     11  H   UNL     1       2.637   3.986   0.682  0.00  0.00    +0.149 HD
BRANCH  10  12
ATOM     12  C   UNL     1       4.706   4.299   1.045  0.00  0.00    +0.217 C 
BRANCH  12  13
ATOM     13  C   UNL     1       4.350   5.779   1.199  0.00  0.00    +0.405 C 
ATOM     14  F   UNL     1       3.435   5.932   2.247  0.00  0.00    -0.169 F 
ATOM     15  F   UNL     1       5.508   6.511   1.481  0.00  0.00    -0.169 F 
ATOM     16  F   UNL     1       3.780   6.248   0.010  0.00  0.00    -0.169 F 
ENDBRANCH  12  13
ENDBRANCH  10  12
ENDBRANCH   3   8
BRANCH   4  17
ATOM     17  N   UNL     1       3.661  -0.678   0.476  0.00  0.00    +0.057 N 
ATOM     18  O   UNL     1       4.052  -1.512  -0.307  0.00  0.00    -0.126 OA
ATOM     19  O   UNL     1       4.313  -0.422   1.462  0.00  0.00    -0.126 OA
ENDBRANCH   4  17
TORSDOF 4
