REMARK  Name = ZINC11391444
REMARK  6 active torsions:
REMARK  status: ('A' for Active; 'I' for Inactive)
REMARK    1  A    between atoms: C_1  and  C_2
REMARK    2  A    between atoms: C_8  and  C_10
REMARK    3  A    between atoms: C_10  and  C_12
REMARK    4  A    between atoms: C_10  and  S_13
REMARK    5  A    between atoms: S_13  and  C_14
REMARK    6  A    between atoms: C_18  and  N_20
REMARK                            x       y       z     vdW  Elec       q    Type
REMARK                         _______ _______ _______ _____ _____    ______ ____
ROOT
ATOM      1  S   UNL     1      -1.247  -4.662   4.379  0.00  0.00    -0.073 S 
ENDROOT
BRANCH   1   2
ATOM      2  C   UNL     1      -0.117  -5.052   5.673  0.00  0.00    +0.192 A 
ATOM      3  N   UNL     1       1.171  -4.790   5.507  0.00  0.00    -0.207 NA
ATOM      4  C   UNL     1       2.053  -5.071   6.463  0.00  0.00    +0.122 A 
ATOM      5  C   UNL     1       1.607  -5.647   7.649  0.00  0.00    +0.086 A 
ATOM      6  C   UNL     1       0.246  -5.909   7.787  0.00  0.00    +0.122 A 
ATOM      7  N   UNL     1      -0.578  -5.596   6.790  0.00  0.00    -0.207 NA
ATOM      8  N   UNL     1       3.399  -4.793   6.281  0.00  0.00    -0.343 N 
ATOM      9  H   UNL     1       3.703  -4.391   5.452  0.00  0.00    +0.144 HD
ATOM     10  H   UNL     1       4.036  -5.000   6.982  0.00  0.00    +0.144 HD
BRANCH   6  11
ATOM     11  N   UNL     1      -0.243  -6.482   8.950  0.00  0.00    -0.343 N 
ATOM     12  H   UNL     1       0.363  -6.704   9.674  0.00  0.00    +0.144 HD
ATOM     13  H   UNL     1      -1.192  -6.662   9.040  0.00  0.00    +0.144 HD
ENDBRANCH   6  11
ENDBRANCH   1   2
BRANCH   1  14
ATOM     14  C   UNL     1      -0.198  -3.955   3.079  0.00  0.00    +0.137 C 
ATOM     15  C   UNL     1       0.760  -5.028   2.557  0.00  0.00    +0.029 C 
BRANCH  14  23
ATOM     16  C   UNL     1      -0.019   1.526   0.010  0.00  0.00    +0.007 C 
ATOM     17  C   UNL     1       0.002  -0.004   0.002  0.00  0.00    -0.011 C 
ATOM     18  C   UNL     1      -1.434  -0.533   0.011  0.00  0.00    +0.022 C 
ATOM     19  C   UNL     1      -1.409  -2.065  -0.032  0.00  0.00    +0.108 C 
ATOM     20  N   UNL     1      -0.578  -2.556   1.075  0.00  0.00    -0.301 N 
ATOM     21  C   UNL     1       0.791  -2.042   1.212  0.00  0.00    +0.108 C 
ATOM     22  C   UNL     1       0.742  -0.511   1.242  0.00  0.00    +0.022 C 
ATOM     23  C   UNL     1      -1.063  -3.461   1.948  0.00  0.00    +0.229 C 
ATOM     24  O   UNL     1      -2.195  -3.878   1.824  0.00  0.00    -0.274 OA
ENDBRANCH  14  23
ENDBRANCH   1  14
TORSDOF 4
