REMARK  Name = ZINC36014247
REMARK  8 active torsions:
REMARK  status: ('A' for Active; 'I' for Inactive)
REMARK    1  A    between atoms: C_1  and  O_2
REMARK    2  A    between atoms: O_2  and  C_3
REMARK    3  A    between atoms: C_6  and  S_9
REMARK    4  A    between atoms: S_9  and  N_12
REMARK    5  A    between atoms: C_19  and  C_32
REMARK    6  A    between atoms: N_23  and  C_24
REMARK    7  A    between atoms: C_24  and  C_25
REMARK    8  A    between atoms: C_32  and  C_33
REMARK                            x       y       z     vdW  Elec       q    Type
REMARK                         _______ _______ _______ _____ _____    ______ ____
ROOT
ATOM      1  N   UNL     1      -6.081  -2.667  -1.968  0.00  0.00    -0.177 NA
ATOM      2  C   UNL     1      -6.788  -1.768  -2.891  0.00  0.00    +0.109 C 
ATOM      3  C   UNL     1      -7.984  -2.518  -3.488  0.00  0.00    +0.023 C 
ATOM      4  C   UNL     1      -7.503  -3.824  -4.115  0.00  0.00    +0.006 C 
ATOM      5  C   UNL     1      -6.847  -4.711  -3.057  0.00  0.00    +0.023 C 
ATOM      6  C   UNL     1      -5.637  -3.978  -2.459  0.00  0.00    +0.109 C 
ATOM      7  N   UNL     1      -8.645  -4.537  -4.725  0.00  0.00    +0.401 N 
ATOM      8  C   UNL     1      -8.038  -5.197  -5.905  0.00  0.00    +0.023 C 
ATOM      9  C   UNL     1      -6.844  -4.337  -6.258  0.00  0.00    +0.201 C 
ATOM     10  O   UNL     1      -6.245  -4.354  -7.312  0.00  0.00    -0.277 OA
ATOM     11  N   UNL     1      -6.558  -3.548  -5.201  0.00  0.00    -0.309 N 
ATOM     12  H   UNL     1      -9.020  -5.222  -4.086  0.00  0.00    -0.082 HD
ATOM     13  H   UNL     1      -9.361  -3.884  -5.010  0.00  0.00    -0.082 HD
ENDROOT
BRANCH   1  14
ATOM     14  S   UNL     1      -5.785  -2.207  -0.405  0.00  0.00    +0.061 S 
ATOM     15  O   UNL     1      -5.623  -3.402   0.347  0.00  0.00    -0.153 OA
ATOM     16  O   UNL     1      -6.762  -1.228  -0.077  0.00  0.00    -0.153 OA
BRANCH  14  20
ATOM     17  C   UNL     1      -1.778  -0.099  -0.365  0.00  0.00    +0.120 A 
ATOM     18  C   UNL     1      -2.942   0.626  -0.576  0.00  0.00    +0.047 A 
ATOM     19  C   UNL     1      -4.163  -0.019  -0.587  0.00  0.00    +0.032 A 
ATOM     20  C   UNL     1      -4.226  -1.386  -0.389  0.00  0.00    +0.106 A 
ATOM     21  C   UNL     1      -3.067  -2.111  -0.179  0.00  0.00    +0.032 A 
ATOM     22  C   UNL     1      -1.843  -1.471  -0.172  0.00  0.00    +0.047 A 
BRANCH  17  24
ATOM     23  C   UNL     1      -0.584   1.948  -0.559  0.00  0.00    +0.277 C 
ATOM     24  O   UNL     1      -0.575   0.534  -0.354  0.00  0.00    -0.495 OA
ENDBRANCH  17  24
ENDBRANCH  14  20
ENDBRANCH   1  14
BRANCH  11  25
ATOM     25  C   UNL     1      -5.472  -2.567  -5.148  0.00  0.00    +0.141 C 
BRANCH  25  26
ATOM     26  C   UNL     1      -5.873  -1.332  -5.912  0.00  0.00    -0.030 A 
ATOM     27  C   UNL     1      -5.748  -1.301  -7.289  0.00  0.00    +0.008 A 
ATOM     28  C   UNL     1      -6.116  -0.169  -7.991  0.00  0.00    +0.038 A 
ATOM     29  C   UNL     1      -6.610   0.934  -7.316  0.00  0.00    +0.123 A 
ATOM     30  C   UNL     1      -6.735   0.902  -5.938  0.00  0.00    +0.038 A 
ATOM     31  C   UNL     1      -6.371  -0.233  -5.238  0.00  0.00    +0.008 A 
ATOM     32  F   UNL     1      -6.970   2.042  -8.002  0.00  0.00    -0.205 F 
ENDBRANCH  25  26
ENDBRANCH  11  25
BRANCH   8  33
ATOM     33  C   UNL     1      -7.590  -6.616  -5.550  0.00  0.00    +0.028 C 
BRANCH  33  34
ATOM     34  C   UNL     1      -8.797  -7.458  -5.224  0.00  0.00    -0.048 A 
ATOM     35  C   UNL     1      -9.264  -7.522  -3.925  0.00  0.00    +0.003 A 
ATOM     36  C   UNL     1     -10.371  -8.294  -3.626  0.00  0.00    +0.000 A 
ATOM     37  C   UNL     1     -11.011  -9.001  -4.627  0.00  0.00    +0.000 A 
ATOM     38  C   UNL     1     -10.544  -8.936  -5.927  0.00  0.00    +0.000 A 
ATOM     39  C   UNL     1      -9.440  -8.160  -6.226  0.00  0.00    +0.003 A 
ENDBRANCH  33  34
ENDBRANCH   8  33
TORSDOF 7
