REMARK  Name = ZINC06724589
REMARK  3 active torsions:
REMARK  status: ('A' for Active; 'I' for Inactive)
REMARK    1  A    between atoms: C_4  and  N_23
REMARK    2  A    between atoms: C_5  and  C_7
REMARK    3  A    between atoms: N_9  and  C_14
REMARK                            x       y       z     vdW  Elec       q    Type
REMARK                         _______ _______ _______ _____ _____    ______ ____
ROOT
ATOM      1  C   UNL     1       1.195  -2.062  -0.170  0.00  0.00    +0.172 C 
ATOM      2  N   UNL     1      -0.110  -2.732  -0.329  0.00  0.00    -0.254 N 
ATOM      3  C   UNL     1      -0.196  -3.808  -1.100  0.00  0.00    +0.231 C 
ATOM      4  O   UNL     1      -1.249  -4.390  -1.252  0.00  0.00    -0.274 OA
ATOM      5  C   UNL     1       1.075  -4.285  -1.786  0.00  0.00    +0.167 C 
ATOM      6  S   UNL     1       2.158  -2.809  -1.555  0.00  0.00    -0.124 S 
ENDROOT
BRANCH   2   7
ATOM      7  C   UNL     1      -1.245  -2.239   0.327  0.00  0.00    +0.041 A 
ATOM      8  C   UNL     1      -2.320  -1.760  -0.410  0.00  0.00    +0.027 A 
ATOM      9  C   UNL     1      -3.440  -1.273   0.236  0.00  0.00    +0.051 A 
ATOM     10  C   UNL     1      -3.494  -1.260   1.621  0.00  0.00    +0.166 A 
ATOM     11  C   UNL     1      -2.417  -1.739   2.363  0.00  0.00    +0.168 A 
ATOM     12  C   UNL     1      -1.297  -2.233   1.714  0.00  0.00    +0.073 A 
ATOM     13  O   UNL     1      -2.713  -1.619   3.690  0.00  0.00    -0.453 OA
ATOM     14  C   UNL     1      -3.809  -0.687   3.756  0.00  0.00    +0.466 C 
ATOM     15  O   UNL     1      -4.465  -0.840   2.484  0.00  0.00    -0.453 OA
ENDBRANCH   2   7
BRANCH   1  20
ATOM     16  C   UNL     1       0.039   1.308  -1.420  0.00  0.00    +0.000 A 
ATOM     17  C   UNL     1       0.818   2.169  -0.668  0.00  0.00    +0.002 A 
ATOM     18  C   UNL     1       1.721   1.664   0.247  0.00  0.00    +0.023 A 
ATOM     19  C   UNL     1       1.846   0.290   0.411  0.00  0.00    +0.030 A 
ATOM     20  C   UNL     1       1.062  -0.571  -0.345  0.00  0.00    +0.004 A 
ATOM     21  C   UNL     1       0.161  -0.059  -1.258  0.00  0.00    +0.008 A 
BRANCH  19  22
ATOM     22  N   UNL     1       2.759  -0.223   1.335  0.00  0.00    -0.358 N 
ATOM     23  H   UNL     1       3.306   0.379   1.863  0.00  0.00    +0.142 HD
ATOM     24  H   UNL     1       2.845  -1.183   1.450  0.00  0.00    +0.142 HD
ENDBRANCH  19  22
ENDBRANCH   1  20
TORSDOF 3
