REMARK  Name = ZINC63735897
REMARK  10 active torsions:
REMARK  status: ('A' for Active; 'I' for Inactive)
REMARK    1  A    between atoms: C_1  and  N_2
REMARK    2  A    between atoms: N_2  and  C_3
REMARK    3  A    between atoms: N_2  and  C_20
REMARK    4  A    between atoms: C_3  and  C_4
REMARK    5  A    between atoms: C_4  and  C_5
REMARK    6  A    between atoms: C_5  and  C_6
REMARK    7  A    between atoms: C_6  and  C_7
REMARK    8  A    between atoms: C_7  and  C_8
REMARK    9  A    between atoms: C_10  and  C_13
REMARK   10  A    between atoms: C_20  and  N_21
REMARK                            x       y       z     vdW  Elec       q    Type
REMARK                         _______ _______ _______ _____ _____    ______ ____
ROOT
ATOM      1  C   UNL     1       4.388  -0.147   2.286  0.00  0.00    +0.008 C 
ENDROOT
BRANCH   1   2
ATOM      2  C   UNL     1       2.921  -0.572   2.359  0.00  0.00    -0.001 C 
BRANCH   2   3
ATOM      3  C   UNL     1       2.180  -0.066   1.119  0.00  0.00    -0.019 C 
BRANCH   3   4
ATOM      4  C   UNL     1       0.713  -0.491   1.192  0.00  0.00    -0.077 C 
BRANCH   4   6
ATOM      5  C   UNL     1      -0.018   1.465   0.010  0.00  0.00    -0.094 C 
ATOM      6  N   UNL     1       0.002  -0.004   0.002  0.00  0.00    +0.388 N 
ATOM      7  H   UNL     1       0.474  -0.330  -0.828  0.00  0.00    -0.080 HD
BRANCH   6   8
ATOM      8  C   UNL     1      -1.376  -0.512   0.012  0.00  0.00    +0.033 C 
BRANCH   8   9
ATOM      9  N   UNL     1      -2.048  -0.127  -1.231  0.00  0.00    -0.309 N 
ATOM     10  C   UNL     1      -2.812   1.116  -1.459  0.00  0.00    +0.147 C 
ATOM     11  C   UNL     1      -2.941   1.143  -3.000  0.00  0.00    +0.250 C 
ATOM     12  O   UNL     1      -2.802  -0.251  -3.338  0.00  0.00    -0.472 OA
ATOM     13  C   UNL     1      -2.075  -0.840  -2.373  0.00  0.00    +0.229 C 
ATOM     14  S   UNL     1      -1.274  -2.340  -2.572  0.00  0.00    +0.006 S 
ENDBRANCH   8   9
ENDBRANCH   6   8
ENDBRANCH   4   6
ENDBRANCH   3   4
ENDBRANCH   2   3
ENDBRANCH   1   2
BRANCH   1  15
ATOM     15  C   UNL     1       5.128  -0.654   3.525  0.00  0.00    +0.077 C 
BRANCH  15  16
ATOM     16  C   UNL     1       6.574  -0.235   3.453  0.00  0.00    +0.138 A 
ATOM     17  C   UNL     1       7.089   0.906   3.943  0.00  0.00    +0.076 A 
ATOM     18  C   UNL     1       8.478   0.913   3.670  0.00  0.00    +0.114 A 
ATOM     19  N   UNL     1       8.768  -0.197   3.036  0.00  0.00    -0.078 NA
ATOM     20  O   UNL     1       7.570  -0.940   2.894  0.00  0.00    -0.359 OA
BRANCH  18  21
ATOM     21  C   UNL     1       9.436   1.987   4.035  0.00  0.00    +0.006 A 
ATOM     22  C   UNL     1       8.991   3.118   4.716  0.00  0.00    +0.010 A 
ATOM     23  C   UNL     1       9.885   4.114   5.054  0.00  0.00    +0.003 A 
ATOM     24  C   UNL     1      11.221   3.992   4.718  0.00  0.00    +0.038 A 
ATOM     25  C   UNL     1      11.669   2.870   4.040  0.00  0.00    +0.124 A 
ATOM     26  C   UNL     1      10.783   1.864   3.703  0.00  0.00    +0.048 A 
ATOM     27  F   UNL     1      12.976   2.756   3.714  0.00  0.00    -0.205 F 
ENDBRANCH  18  21
ENDBRANCH  15  16
ENDBRANCH   1  15
TORSDOF 9
