REMARK  Name = ZINC24635257
REMARK  7 active torsions:
REMARK  status: ('A' for Active; 'I' for Inactive)
REMARK    1  A    between atoms: C_1  and  C_2
REMARK    2  A    between atoms: C_2  and  C_3
REMARK    3  A    between atoms: C_6  and  C_9
REMARK    4  A    between atoms: C_11  and  C_14
REMARK    5  A    between atoms: C_14  and  C_15
REMARK    6  A    between atoms: N_17  and  C_18
REMARK    7  A    between atoms: C_21  and  N_24
REMARK                            x       y       z     vdW  Elec       q    Type
REMARK                         _______ _______ _______ _____ _____    ______ ____
ROOT
ATOM      1  C   UNL     1      -8.286  -3.068  -1.963  0.00  0.00    +0.152 C 
ENDROOT
BRANCH   1   4
ATOM      2  C   UNL     1      -5.401  -1.987   0.046  0.00  0.00    +0.109 A 
ATOM      3  N   UNL     1      -6.193  -2.283  -0.974  0.00  0.00    -0.243 NA
ATOM      4  C   UNL     1      -7.408  -2.740  -0.783  0.00  0.00    +0.058 A 
ATOM      5  C   UNL     1      -7.874  -2.918   0.482  0.00  0.00    +0.071 A 
ATOM      6  S   UNL     1      -6.453  -2.394   1.433  0.00  0.00    -0.075 S 
BRANCH   2  10
ATOM      7  C   UNL     1      -1.425  -0.492   0.025  0.00  0.00    -0.048 A 
ATOM      8  C   UNL     1      -2.061  -0.740   1.229  0.00  0.00    +0.004 A 
ATOM      9  C   UNL     1      -3.352  -1.226   1.242  0.00  0.00    +0.011 A 
ATOM     10  C   UNL     1      -4.017  -1.466   0.039  0.00  0.00    +0.007 A 
ATOM     11  C   UNL     1      -3.369  -1.214  -1.171  0.00  0.00    +0.011 A 
ATOM     12  C   UNL     1      -2.079  -0.724  -1.171  0.00  0.00    +0.004 A 
BRANCH   7  14
ATOM     13  C   UNL     1      -0.044   1.568   0.032  0.00  0.00    +0.009 C 
ATOM     14  C   UNL     1      -0.014   0.038   0.018  0.00  0.00    +0.032 C 
ENDBRANCH   7  14
ENDBRANCH   2  10
ENDBRANCH   1   4
BRANCH   1  15
ATOM     15  C   UNL     1      -8.391  -1.862  -2.861  0.00  0.00    +0.223 C 
ATOM     16  O   UNL     1      -7.810  -0.838  -2.571  0.00  0.00    -0.275 OA
ATOM     17  N   UNL     1      -9.131  -1.922  -3.986  0.00  0.00    -0.285 N 
ATOM     18  H   UNL     1      -9.540  -2.760  -4.253  0.00  0.00    +0.155 HD
BRANCH  17  19
ATOM     19  C   UNL     1      -9.307  -0.776  -4.769  0.00  0.00    +0.034 A 
ATOM     20  C   UNL     1     -10.514  -0.558  -5.421  0.00  0.00    +0.025 A 
ATOM     21  C   UNL     1     -10.685   0.574  -6.193  0.00  0.00    +0.034 A 
ATOM     22  C   UNL     1      -9.657   1.490  -6.317  0.00  0.00    +0.126 A 
ATOM     23  C   UNL     1      -8.454   1.276  -5.670  0.00  0.00    +0.034 A 
ATOM     24  C   UNL     1      -8.278   0.149  -4.891  0.00  0.00    +0.025 A 
BRANCH  22  25
ATOM     25  N   UNL     1      -9.844   2.703  -7.146  0.00  0.00    +0.056 N 
ATOM     26  O   UNL     1     -10.894   2.891  -7.713  0.00  0.00    -0.126 OA
ATOM     27  O   UNL     1      -8.945   3.505  -7.255  0.00  0.00    -0.126 OA
ENDBRANCH  22  25
ENDBRANCH  17  19
ENDBRANCH   1  15
TORSDOF 6
