REMARK  Name = ZINC26371168
REMARK  12 active torsions:
REMARK  status: ('A' for Active; 'I' for Inactive)
REMARK    1  A    between atoms: C_1  and  C_2
REMARK    2  A    between atoms: C_4  and  C_31
REMARK    3  A    between atoms: C_5  and  N_9
REMARK    4  A    between atoms: C_6  and  C_8
REMARK    5  A    between atoms: C_10  and  C_12
REMARK    6  A    between atoms: C_12  and  N_13
REMARK    7  A    between atoms: N_13  and  C_14
REMARK    8  A    between atoms: N_13  and  C_15
REMARK    9  A    between atoms: C_15  and  C_17
REMARK   10  A    between atoms: C_15  and  C_18
REMARK   11  A    between atoms: N_20  and  C_21
REMARK   12  A    between atoms: C_26  and  N_27
REMARK                            x       y       z     vdW  Elec       q    Type
REMARK                         _______ _______ _______ _____ _____    ______ ____
ROOT
ATOM      1  N   UNL     1       3.592   7.583   0.717  0.00  0.00    +0.391 N 
ATOM      2  C   UNL     1       2.816   8.049   1.874  0.00  0.00    -0.094 C 
ATOM      3  H   UNL     1       3.167   8.049  -0.184  0.00  0.00    -0.080 HD
ENDROOT
BRANCH   1   4
ATOM      4  C   UNL     1       4.996   8.000   0.822  0.00  0.00    +0.017 C 
ATOM      5  C   UNL     1       5.706   7.143   1.871  0.00  0.00    -0.004 C 
BRANCH   4   6
ATOM      6  C   UNL     1       5.674   7.824  -0.513  0.00  0.00    +0.203 C 
ATOM      7  O   UNL     1       5.056   7.364  -1.450  0.00  0.00    -0.277 OA
ATOM      8  N   UNL     1       6.966   8.176  -0.665  0.00  0.00    -0.285 N 
ATOM      9  H   UNL     1       7.551   8.508   0.206  0.00  0.00    +0.155 HD
BRANCH   8  10
ATOM     10  C   UNL     1       7.563   8.120  -1.929  0.00  0.00    +0.064 A 
ATOM     11  C   UNL     1       7.157   7.161  -2.848  0.00  0.00    +0.027 A 
ATOM     12  C   UNL     1       7.747   7.108  -4.096  0.00  0.00    +0.022 A 
ATOM     13  C   UNL     1       8.742   8.010  -4.431  0.00  0.00    +0.043 A 
ATOM     14  C   UNL     1       9.148   8.967  -3.517  0.00  0.00    +0.054 A 
ATOM     15  C   UNL     1       8.557   9.027  -2.270  0.00  0.00    +0.149 A 
ATOM     16 CL   UNL     1       9.482   7.941  -5.999  0.00  0.00    -0.083 Cl
BRANCH  15  17
ATOM     17  N   UNL     1       8.987  10.055  -1.296  0.00  0.00    +0.058 N 
ATOM     18  O   UNL     1       9.805  10.898  -1.620  0.00  0.00    -0.126 OA
ATOM     19  O   UNL     1       8.524  10.058  -0.169  0.00  0.00    -0.126 OA
ENDBRANCH  15  17
ENDBRANCH   8  10
ENDBRANCH   4   6
ENDBRANCH   1   4
BRANCH   1  20
ATOM     20  C   UNL     1       3.486   6.126   0.564  0.00  0.00    +0.020 C 
BRANCH  20  22
ATOM     21  N   UNL     1       1.730   4.468   0.026  0.00  0.00    -0.287 N 
ATOM     22  C   UNL     1       2.066   5.759   0.215  0.00  0.00    +0.201 C 
ATOM     23  O   UNL     1       1.225   6.627   0.105  0.00  0.00    -0.278 OA
ATOM     24  H   UNL     1       2.508   3.690   0.035  0.00  0.00    +0.155 HD
BRANCH  21  29
ATOM     25  C   UNL     1      -3.698   3.049  -0.815  0.00  0.00    +0.044 C 
ATOM     26  C   UNL     1      -2.255   3.424  -0.593  0.00  0.00    -0.050 A 
ATOM     27  C   UNL     1      -1.643   4.336  -1.432  0.00  0.00    +0.008 A 
ATOM     28  C   UNL     1      -0.322   4.686  -1.229  0.00  0.00    -0.029 A 
ATOM     29  C   UNL     1       0.392   4.116  -0.183  0.00  0.00    +0.039 A 
ATOM     30  C   UNL     1      -0.224   3.196   0.655  0.00  0.00    -0.029 A 
ATOM     31  C   UNL     1      -1.545   2.851   0.446  0.00  0.00    +0.008 A 
ATOM     32  C   UNL     1       0.547   2.576   1.792  0.00  0.00    +0.045 C 
ATOM     33  C   UNL     1       0.343   5.685  -2.140  0.00  0.00    +0.045 C 
ENDBRANCH  21  29
ENDBRANCH  20  22
ENDBRANCH   1  20
TORSDOF 7
