REMARK  Name = ZINC65266312
REMARK  7 active torsions:
REMARK  status: ('A' for Active; 'I' for Inactive)
REMARK    1  A    between atoms: C_1  and  C_2
REMARK    2  A    between atoms: C_2  and  N_3
REMARK    3  A    between atoms: C_6  and  C_9
REMARK    4  A    between atoms: C_9  and  C_10
REMARK    5  A    between atoms: C_10  and  N_11
REMARK    6  A    between atoms: C_12  and  C_14
REMARK    7  A    between atoms: C_25  and  C_27
REMARK                            x       y       z     vdW  Elec       q    Type
REMARK                         _______ _______ _______ _____ _____    ______ ____
ROOT
ATOM      1  C   UNL     1       3.703  -6.154   7.462  0.00  0.00    +0.100 C 
ATOM      2  C   UNL     1       5.180  -5.761   7.234  0.00  0.00    +0.121 C 
ATOM      3  N   UNL     1       5.959  -6.879   7.816  0.00  0.00    -0.296 N 
ATOM      4  C   UNL     1       5.197  -8.094   7.440  0.00  0.00    +0.115 C 
ATOM      5  C   UNL     1       3.718  -7.686   7.597  0.00  0.00    -0.001 C 
ATOM      6  C   UNL     1       3.202  -8.098   8.972  0.00  0.00    +0.009 C 
ATOM      7  C   UNL     1       3.245  -9.623   9.098  0.00  0.00    +0.001 C 
ATOM      8  C   UNL     1       2.381 -10.249   8.002  0.00  0.00    +0.000 C 
ATOM      9  C   UNL     1       2.923  -9.845   6.630  0.00  0.00    +0.001 C 
ATOM     10  C   UNL     1       2.879  -8.321   6.493  0.00  0.00    +0.009 C 
ATOM     11  C   UNL     1       7.102  -6.807   8.526  0.00  0.00    +0.253 C 
ATOM     12  O   UNL     1       7.556  -5.723   8.840  0.00  0.00    -0.269 OA
ENDROOT
BRANCH  11  13
ATOM     13  C   UNL     1       7.798  -8.036   8.920  0.00  0.00    +0.074 A 
ATOM     14  C   UNL     1       8.908  -8.187   9.738  0.00  0.00    +0.021 A 
ATOM     15  C   UNL     1       9.339  -9.479   9.926  0.00  0.00    +0.008 A 
ATOM     16  C   UNL     1       8.672 -10.491   9.317  0.00  0.00    +0.046 A 
ATOM     17  S   UNL     1       7.435  -9.724   8.478  0.00  0.00    -0.092 S 
ENDBRANCH  11  13
BRANCH   1  19
ATOM     18  N   UNL     1       1.529  -5.594   6.422  0.00  0.00    -0.315 N 
ATOM     19  C   UNL     1       2.862  -5.740   6.282  0.00  0.00    +0.218 C 
ATOM     20  O   UNL     1       3.384  -5.538   5.206  0.00  0.00    -0.275 OA
ATOM     21  H   UNL     1       1.112  -5.755   7.283  0.00  0.00    +0.149 HD
BRANCH  18  22
ATOM     22  C   UNL     1       0.712  -5.191   5.276  0.00  0.00    +0.104 C 
BRANCH  22  23
ATOM     23  C   UNL     1      -0.755  -5.099   5.702  0.00  0.00    +0.022 C 
BRANCH  23  27
ATOM     24  N   UNL     1      -3.541  -2.837   3.378  0.00  0.00    +0.380 N 
ATOM     25  C   UNL     1      -3.932  -4.210   3.719  0.00  0.00    -0.079 C 
ATOM     26  C   UNL     1      -3.089  -4.707   4.896  0.00  0.00    -0.015 C 
ATOM     27  C   UNL     1      -1.609  -4.679   4.504  0.00  0.00    -0.013 C 
ATOM     28  C   UNL     1      -1.231  -3.257   4.080  0.00  0.00    -0.015 C 
ATOM     29  C   UNL     1      -2.142  -2.813   2.933  0.00  0.00    -0.079 C 
ATOM     30  H   UNL     1      -3.644  -2.248   4.192  0.00  0.00    -0.082 HD
BRANCH  24  32
ATOM     31  C   UNL     1      -5.846  -2.243   2.805  0.00  0.00    -0.017 C 
ATOM     32  C   UNL     1      -4.405  -2.336   2.301  0.00  0.00    -0.082 C 
ENDBRANCH  24  32
ENDBRANCH  23  27
ENDBRANCH  22  23
ENDBRANCH  18  22
ENDBRANCH   1  19
TORSDOF 6
