REMARK  Name = ZINC22521817
REMARK  10 active torsions:
REMARK  status: ('A' for Active; 'I' for Inactive)
REMARK    1  A    between atoms: C_1  and  C_2
REMARK    2  A    between atoms: C_2  and  C_4
REMARK    3  A    between atoms: C_2  and  S_13
REMARK    4  A    between atoms: N_6  and  C_7
REMARK    5  A    between atoms: C_7  and  C_8
REMARK    6  A    between atoms: S_13  and  C_14
REMARK    7  A    between atoms: N_24  and  C_25
REMARK    8  A    between atoms: C_25  and  C_26
REMARK    9  A    between atoms: C_26  and  O_27
REMARK   10  A    between atoms: O_27  and  C_28
REMARK                            x       y       z     vdW  Elec       q    Type
REMARK                         _______ _______ _______ _____ _____    ______ ____
ROOT
ATOM      1  C   UNL     1      -2.416   0.827  -1.275  0.00  0.00    +0.173 A 
ATOM      2  N   UNL     1      -2.566   0.033  -0.244  0.00  0.00    -0.223 NA
ATOM      3  C   UNL     1      -3.715  -0.653  -0.040  0.00  0.00    +0.079 A 
ATOM      4  C   UNL     1      -3.878  -1.497   1.063  0.00  0.00    +0.029 A 
ATOM      5  C   UNL     1      -5.051  -2.176   1.231  0.00  0.00    +0.017 A 
ATOM      6  C   UNL     1      -6.093  -2.041   0.320  0.00  0.00    +0.019 A 
ATOM      7  C   UNL     1      -5.962  -1.216  -0.776  0.00  0.00    +0.030 A 
ATOM      8  C   UNL     1      -4.773  -0.515  -0.967  0.00  0.00    +0.066 A 
ATOM      9  C   UNL     1      -4.575   0.379  -2.117  0.00  0.00    +0.263 A 
ATOM     10  O   UNL     1      -5.449   0.539  -2.949  0.00  0.00    -0.267 OA
ATOM     11  N   UNL     1      -3.386   1.017  -2.217  0.00  0.00    -0.285 N 
ATOM     12 BR   UNL     1      -7.702  -2.998   0.588  0.00  0.00    -0.050 Br
ENDROOT
BRANCH   1  13
ATOM     13  S   UNL     1      -0.888   1.685  -1.458  0.00  0.00    -0.075 S 
BRANCH  13  15
ATOM     14  C   UNL     1      -0.729   1.579   1.267  0.00  0.00    +0.029 C 
ATOM     15  C   UNL     1      -0.013   1.086   0.008  0.00  0.00    +0.137 C 
BRANCH  15  16
ATOM     16  C   UNL     1       1.401   1.607  -0.003  0.00  0.00    +0.227 C 
ATOM     17  O   UNL     1       1.667   2.628  -0.602  0.00  0.00    -0.275 OA
ATOM     18  N   UNL     1       2.371   0.940   0.654  0.00  0.00    -0.307 N 
ATOM     19  H   UNL     1       2.130   0.015   1.198  0.00  0.00    +0.149 HD
BRANCH  18  20
ATOM     20  C   UNL     1       3.745   1.447   0.644  0.00  0.00    +0.178 C 
BRANCH  20  21
ATOM     21  C   UNL     1       4.627   0.525   1.445  0.00  0.00    +0.122 A 
ATOM     22  C   UNL     1       5.295  -0.539   0.965  0.00  0.00    +0.046 A 
ATOM     23  C   UNL     1       5.990  -1.113   2.054  0.00  0.00    +0.041 A 
ATOM     24  C   UNL     1       5.705  -0.365   3.135  0.00  0.00    +0.195 A 
ATOM     25  O   UNL     1       4.883   0.629   2.759  0.00  0.00    -0.466 OA
ENDBRANCH  20  21
ENDBRANCH  18  20
ENDBRANCH  15  16
ENDBRANCH  13  15
ENDBRANCH   1  13
BRANCH  11  26
ATOM     26  C   UNL     1      -3.139   1.920  -3.344  0.00  0.00    +0.155 C 
BRANCH  26  27
ATOM     27  C   UNL     1      -2.524   1.132  -4.503  0.00  0.00    +0.181 C 
BRANCH  27  28
ATOM     28  O   UNL     1      -3.472   0.176  -4.984  0.00  0.00    -0.381 OA
ATOM     29  C   UNL     1      -2.995  -0.617  -6.073  0.00  0.00    +0.194 C 
ENDBRANCH  27  28
ENDBRANCH  26  27
ENDBRANCH  11  26
TORSDOF 8
