REMARK  Name = ZINC40824647
REMARK  8 active torsions:
REMARK  status: ('A' for Active; 'I' for Inactive)
REMARK    1  A    between atoms: C_1  and  C_2
REMARK    2  A    between atoms: C_5  and  O_8
REMARK    3  A    between atoms: O_8  and  C_9
REMARK    4  A    between atoms: C_9  and  C_11
REMARK    5  A    between atoms: C_12  and  C_25
REMARK    6  A    between atoms: N_20  and  N_21
REMARK    7  A    between atoms: N_21  and  C_22
REMARK    8  A    between atoms: C_22  and  N_24
REMARK                            x       y       z     vdW  Elec       q    Type
REMARK                         _______ _______ _______ _____ _____    ______ ____
ROOT
ATOM      1  C   UNL     1       0.309  -6.226   1.197  0.00  0.00    +0.215 A 
ATOM      2  C   UNL     1       0.430  -6.991   2.325  0.00  0.00    +0.011 A 
ATOM      3  C   UNL     1       0.531  -8.317   1.889  0.00  0.00    +0.042 A 
ATOM      4  C   UNL     1       0.468  -8.307   0.516  0.00  0.00    +0.115 A 
ATOM      5  O   UNL     1       0.327  -7.044   0.119  0.00  0.00    -0.452 OA
ATOM      6  C   UNL     1       0.550  -9.560  -0.319  0.00  0.00    +0.075 C 
ATOM      7  C   UNL     1       1.204 -10.675   0.501  0.00  0.00    +0.014 C 
ATOM      8  C   UNL     1       0.487 -10.850   1.845  0.00  0.00    +0.058 C 
ATOM      9  C   UNL     1       0.677  -9.576   2.655  0.00  0.00    +0.070 C 
ATOM     10  N   UNL     1       0.947  -9.591   3.923  0.00  0.00    -0.185 NA
ATOM     11  C   UNL     1       0.451  -6.503   3.750  0.00  0.00    +0.048 C 
ENDROOT
BRANCH   1  12
ATOM     12  C   UNL     1       0.175  -4.768   1.162  0.00  0.00    +0.380 C 
ATOM     13  O   UNL     1       0.170  -4.132   2.199  0.00  0.00    -0.241 OA
BRANCH  12  14
ATOM     14  O   UNL     1       0.057  -4.129  -0.021  0.00  0.00    -0.420 OA
BRANCH  14  19
ATOM     15  C   UNL     1       0.049   1.503   0.002  0.00  0.00    +0.044 C 
ATOM     16  C   UNL     1       0.051  -0.004  -0.004  0.00  0.00    -0.050 A 
ATOM     17  C   UNL     1       1.209  -0.694   0.305  0.00  0.00    +0.007 A 
ATOM     18  C   UNL     1       1.213  -2.075   0.300  0.00  0.00    +0.046 A 
ATOM     19  C   UNL     1       0.055  -2.770  -0.015  0.00  0.00    +0.132 A 
ATOM     20  C   UNL     1      -1.106  -2.075  -0.324  0.00  0.00    +0.046 A 
ATOM     21  C   UNL     1      -1.107  -0.694  -0.312  0.00  0.00    +0.007 A 
ENDBRANCH  14  19
ENDBRANCH  12  14
ENDBRANCH   1  12
BRANCH  10  22
ATOM     22  N   UNL     1       1.074 -10.813   4.598  0.00  0.00    -0.218 N 
ATOM     23  H   UNL     1       0.960 -11.647   4.116  0.00  0.00    +0.176 HD
BRANCH  22  24
ATOM     24  C   UNL     1       1.354 -10.829   5.916  0.00  0.00    +0.147 C 
ATOM     25  S   UNL     1       1.510 -12.322   6.739  0.00  0.00    -0.017 S 
BRANCH  24  26
ATOM     26  N   UNL     1       1.512  -9.670   6.585  0.00  0.00    -0.339 N 
ATOM     27  H   UNL     1       1.424  -8.825   6.119  0.00  0.00    +0.144 HD
ATOM     28  H   UNL     1       1.714  -9.682   7.534  0.00  0.00    +0.144 HD
ENDBRANCH  24  26
ENDBRANCH  22  24
ENDBRANCH  10  22
TORSDOF 6
