REMARK  Name = ZINC42709903
REMARK  8 active torsions:
REMARK  status: ('A' for Active; 'I' for Inactive)
REMARK    1  A    between atoms: C_1  and  C_2
REMARK    2  A    between atoms: C_2  and  C_4
REMARK    3  A    between atoms: C_2  and  C_18
REMARK    4  A    between atoms: C_4  and  N_5
REMARK    5  A    between atoms: N_5  and  C_6
REMARK    6  A    between atoms: C_12  and  C_15
REMARK    7  A    between atoms: C_15  and  C_16
REMARK    8  A    between atoms: C_15  and  C_17
REMARK                            x       y       z     vdW  Elec       q    Type
REMARK                         _______ _______ _______ _____ _____    ______ ____
ROOT
ATOM      1  N   UNL     1      -0.008  -0.140   2.444  0.00  0.00    -0.288 N 
ATOM      2  C   UNL     1      -1.025  -1.047   2.982  0.00  0.00    +0.133 C 
ATOM      3  C   UNL     1       0.237   1.036   3.055  0.00  0.00    +0.308 C 
ATOM      4  O   UNL     1       1.081   1.788   2.609  0.00  0.00    -0.252 OA
ATOM      5  N   UNL     1      -0.453   1.377   4.162  0.00  0.00    -0.248 N 
ATOM      6  C   UNL     1      -0.200   2.589   4.792  0.00  0.00    +0.166 A 
ATOM      7  N   UNL     1      -0.766   3.082   5.873  0.00  0.00    -0.229 NA
ATOM      8  C   UNL     1      -0.411   4.261   6.352  0.00  0.00    +0.053 A 
ATOM      9  C   UNL     1       0.556   4.932   5.681  0.00  0.00    +0.072 A 
ATOM     10  S   UNL     1       0.909   3.780   4.363  0.00  0.00    -0.060 S 
ATOM     11  H   UNL     1      -1.127   0.776   4.518  0.00  0.00    +0.158 HD
ENDROOT
BRANCH   8  12
ATOM     12  C   UNL     1      -1.053   4.833   7.589  0.00  0.00    +0.032 C 
ATOM     13  C   UNL     1      -0.196   4.498   8.811  0.00  0.00    +0.014 C 
ATOM     14  C   UNL     1      -1.168   6.353   7.447  0.00  0.00    +0.014 C 
ENDBRANCH   8  12
BRANCH   1  15
ATOM     15  C   UNL     1       0.742  -0.511   1.242  0.00  0.00    +0.123 C 
BRANCH  15  17
ATOM     16  C   UNL     1      -0.019   1.526   0.010  0.00  0.00    +0.021 C 
ATOM     17  C   UNL     1       0.002  -0.004   0.002  0.00  0.00    +0.116 C 
BRANCH  17  18
ATOM     18  C   UNL     1       0.707  -0.490  -1.238  0.00  0.00    +0.360 C 
ATOM     19  O   UNL     1       1.709  -1.178  -1.139  0.00  0.00    -0.246 OA
ATOM     20  O   UNL     1       0.276  -0.195  -2.340  0.00  0.00    -0.246 OA
ENDBRANCH  17  18
ENDBRANCH  15  17
ENDBRANCH   1  15
TORSDOF 4
