REMARK  Name = ZINC13161647
REMARK  12 active torsions:
REMARK  status: ('A' for Active; 'I' for Inactive)
REMARK    1  A    between atoms: C_1  and  N_2
REMARK    2  A    between atoms: C_10  and  S_11
REMARK    3  A    between atoms: S_11  and  C_12
REMARK    4  A    between atoms: C_12  and  C_13
REMARK    5  A    between atoms: C_13  and  C_15
REMARK    6  A    between atoms: C_16  and  N_35
REMARK    7  A    between atoms: N_17  and  C_28
REMARK    8  A    between atoms: N_20  and  C_23
REMARK    9  A    between atoms: C_23  and  C_24
REMARK   10  A    between atoms: C_24  and  O_26
REMARK   11  A    between atoms: O_26  and  C_27
REMARK   12  A    between atoms: C_28  and  C_29
REMARK                            x       y       z     vdW  Elec       q    Type
REMARK                         _______ _______ _______ _____ _____    ______ ____
ROOT
ATOM      1  C   UNL     1       4.065   1.515  -3.370  0.00  0.00    +0.121 A 
ATOM      2  C   UNL     1       3.661   1.760  -2.046  0.00  0.00    +0.116 A 
ATOM      3  N   UNL     1       2.891   0.829  -1.408  0.00  0.00    -0.277 N 
ATOM      4  C   UNL     1       2.522  -0.308  -2.018  0.00  0.00    +0.334 A 
ATOM      5  O   UNL     1       1.841  -1.106  -1.405  0.00  0.00    -0.246 OA
ATOM      6  N   UNL     1       2.874  -0.594  -3.282  0.00  0.00    -0.249 N 
ATOM      7  C   UNL     1       3.633   0.260  -3.999  0.00  0.00    +0.269 A 
ATOM      8  O   UNL     1       3.954  -0.004  -5.143  0.00  0.00    -0.267 OA
ENDROOT
BRANCH   2   9
ATOM      9  N   UNL     1       4.031   2.905  -1.411  0.00  0.00    -0.344 N 
ATOM     10  H   UNL     1       4.080   2.928  -0.442  0.00  0.00    +0.144 HD
ATOM     11  H   UNL     1       4.245   3.698  -1.926  0.00  0.00    +0.144 HD
ENDBRANCH   2   9
BRANCH   1  12
ATOM     12  C   UNL     1       4.861   2.445  -4.072  0.00  0.00    +0.182 C 
ATOM     13  O   UNL     1       5.297   3.425  -3.501  0.00  0.00    -0.291 OA
BRANCH  12  14
ATOM     14  C   UNL     1       5.171   2.223  -5.530  0.00  0.00    +0.157 C 
BRANCH  14  15
ATOM     15  S   UNL     1       6.204   3.578  -6.141  0.00  0.00    -0.080 S 
BRANCH  15  25
ATOM     16  C   UNL     1       7.845   5.017  -8.560  0.00  0.00    +0.151 C 
ATOM     17  N   UNL     1       7.122   3.759  -8.761  0.00  0.00    -0.322 N 
ATOM     18  C   UNL     1       7.037   3.039  -9.941  0.00  0.00    +0.069 A 
ATOM     19  C   UNL     1       7.545   3.223 -11.218  0.00  0.00    +0.028 A 
ATOM     20  C   UNL     1       7.272   2.299 -12.206  0.00  0.00    +0.002 A 
ATOM     21  C   UNL     1       6.493   1.185 -11.930  0.00  0.00    +0.002 A 
ATOM     22  C   UNL     1       5.981   0.986 -10.668  0.00  0.00    +0.030 A 
ATOM     23  C   UNL     1       6.247   1.913  -9.656  0.00  0.00    +0.090 A 
ATOM     24  N   UNL     1       5.898   1.990  -8.345  0.00  0.00    -0.222 NA
ATOM     25  C   UNL     1       6.407   3.076  -7.818  0.00  0.00    +0.170 A 
ENDBRANCH  15  25
ENDBRANCH  14  15
ENDBRANCH  12  14
ENDBRANCH   1  12
BRANCH   6  26
ATOM     26  C   UNL     1       2.431  -1.851  -3.889  0.00  0.00    +0.250 C 
BRANCH  26  27
ATOM     27  C   UNL     1       3.452  -2.926  -3.620  0.00  0.00    +0.327 C 
ATOM     28  O   UNL     1       4.448  -2.668  -2.986  0.00  0.00    -0.249 OA
BRANCH  27  29
ATOM     29  O   UNL     1       3.256  -4.170  -4.084  0.00  0.00    -0.467 OA
ATOM     30  C   UNL     1       4.281  -5.154  -3.787  0.00  0.00    +0.280 C 
ENDBRANCH  27  29
ENDBRANCH  26  27
ENDBRANCH   6  26
BRANCH   3  31
ATOM     31  C   UNL     1       2.465   1.075  -0.028  0.00  0.00    +0.163 C 
BRANCH  31  32
ATOM     32  C   UNL     1       1.145   1.802  -0.032  0.00  0.00    -0.028 A 
ATOM     33  C   UNL     1      -0.038   1.088  -0.025  0.00  0.00    +0.005 A 
ATOM     34  C   UNL     1      -1.248   1.755  -0.034  0.00  0.00    +0.000 A 
ATOM     35  C   UNL     1      -1.276   3.137  -0.040  0.00  0.00    +0.000 A 
ATOM     36  C   UNL     1      -0.092   3.852  -0.045  0.00  0.00    +0.000 A 
ATOM     37  C   UNL     1       1.118   3.184  -0.041  0.00  0.00    +0.005 A 
ENDBRANCH  31  32
ENDBRANCH   3  31
TORSDOF 10
