REMARK  Name = ZINC14477475
REMARK  3 active torsions:
REMARK  status: ('A' for Active; 'I' for Inactive)
REMARK    1  A    between atoms: C_1  and  C_2
REMARK    2  A    between atoms: C_3  and  N_26
REMARK    3  A    between atoms: C_9  and  C_18
REMARK                            x       y       z     vdW  Elec       q    Type
REMARK                         _______ _______ _______ _____ _____    ______ ____
ROOT
ATOM      1  C   UNL     1       3.522  -2.759   0.890  0.00  0.00    +0.048 C 
ATOM      2  C   UNL     1       2.097  -2.380   0.581  0.00  0.00    +0.001 A 
ATOM      3  C   UNL     1       1.186  -3.357   0.238  0.00  0.00    +0.131 A 
ATOM      4  C   UNL     1      -0.122  -3.007  -0.045  0.00  0.00    +0.033 A 
ATOM      5  C   UNL     1      -0.512  -1.685   0.016  0.00  0.00    +0.008 A 
ATOM      6  C   UNL     1       0.397  -0.694   0.360  0.00  0.00    -0.019 A 
ATOM      7  C   UNL     1       1.706  -1.043   0.643  0.00  0.00    +0.037 A 
ATOM      8  N   UNL     1       2.669  -0.096   0.991  0.00  0.00    -0.336 N 
ATOM      9  C   UNL     1       2.076   1.096   1.600  0.00  0.00    +0.106 C 
ATOM     10  C   UNL     1       1.069   1.716   0.629  0.00  0.00    +0.029 C 
ATOM     11  C   UNL     1      -0.092   0.723   0.410  0.00  0.00    +0.049 C 
ATOM     12  C   UNL     1      -0.989   0.935   1.608  0.00  0.00    -0.023 C 
ATOM     13  C   UNL     1      -0.763   2.106   2.149  0.00  0.00    -0.030 C 
ATOM     14  C   UNL     1       0.315   2.847   1.382  0.00  0.00    +0.033 C 
ATOM     15  H   UNL     1       3.371  -0.498   1.593  0.00  0.00    +0.147 HD
ENDROOT
BRANCH   9  16
ATOM     16  C   UNL     1       1.373   0.712   2.876  0.00  0.00    -0.009 A 
ATOM     17  C   UNL     1       0.776  -0.530   2.989  0.00  0.00    +0.008 A 
ATOM     18  C   UNL     1       0.131  -0.883   4.159  0.00  0.00    +0.020 A 
ATOM     19  C   UNL     1       0.082   0.006   5.218  0.00  0.00    +0.042 A 
ATOM     20  C   UNL     1       0.679   1.248   5.105  0.00  0.00    +0.040 A 
ATOM     21  C   UNL     1       1.329   1.599   3.936  0.00  0.00    +0.047 A 
ATOM     22 CL   UNL     1       2.086   3.156   3.796  0.00  0.00    -0.083 Cl
ATOM     23 CL   UNL     1      -0.728  -0.438   6.688  0.00  0.00    -0.083 Cl
ENDBRANCH   9  16
BRANCH   3  24
ATOM     24  N   UNL     1       1.606  -4.774   0.174  0.00  0.00    +0.057 N 
ATOM     25  O   UNL     1       0.777  -5.647  -0.010  0.00  0.00    -0.126 OA
ATOM     26  O   UNL     1       2.781  -5.068   0.305  0.00  0.00    -0.126 OA
ENDBRANCH   3  24
TORSDOF 2
