REMARK  Name = ZINC18057504
REMARK  5 active torsions:
REMARK  status: ('A' for Active; 'I' for Inactive)
REMARK    1  A    between atoms: C_4  and  C_7
REMARK    2  A    between atoms: N_8  and  N_9
REMARK    3  A    between atoms: C_10  and  S_12
REMARK    4  A    between atoms: S_12  and  C_13
REMARK    5  A    between atoms: N_18  and  C_21
REMARK                            x       y       z     vdW  Elec       q    Type
REMARK                         _______ _______ _______ _____ _____    ______ ____
ROOT
ATOM      1  S   UNL     1       6.094  -4.964   0.054  0.00  0.00    -0.078 S 
ENDROOT
BRANCH   1   2
ATOM      2  C   UNL     1       5.957  -6.771  -0.018  0.00  0.00    +0.149 C 
ATOM      3  C   UNL     1       7.354  -7.417  -0.117  0.00  0.00    +0.120 C 
ATOM      4  C   UNL     1       7.315  -8.146  -1.442  0.00  0.00    +0.228 C 
ATOM      5  O   UNL     1       8.223  -8.796  -1.913  0.00  0.00    -0.275 OA
ATOM      6  N   UNL     1       6.118  -7.960  -2.012  0.00  0.00    -0.209 N 
ATOM      7  C   UNL     1       5.272  -7.203  -1.296  0.00  0.00    +0.240 C 
ATOM      8  O   UNL     1       4.141  -6.909  -1.620  0.00  0.00    -0.274 OA
BRANCH   6   9
ATOM      9  C   UNL     1       5.774  -8.514  -3.254  0.00  0.00    +0.044 A 
ATOM     10  C   UNL     1       5.636  -9.888  -3.388  0.00  0.00    +0.025 A 
ATOM     11  C   UNL     1       5.297 -10.431  -4.612  0.00  0.00    +0.017 A 
ATOM     12  C   UNL     1       5.096  -9.605  -5.704  0.00  0.00    +0.018 A 
ATOM     13  C   UNL     1       5.233  -8.235  -5.573  0.00  0.00    +0.017 A 
ATOM     14  C   UNL     1       5.566  -7.687  -4.349  0.00  0.00    +0.025 A 
ATOM     15 BR   UNL     1       4.633 -10.351  -7.379  0.00  0.00    -0.050 Br
ENDBRANCH   6   9
ENDBRANCH   1   2
BRANCH   1  17
ATOM     16  N   UNL     1       4.152  -3.072   0.339  0.00  0.00    -0.217 N 
ATOM     17  C   UNL     1       4.430  -4.418   0.247  0.00  0.00    +0.146 C 
ATOM     18  N   UNL     1       3.460  -5.289   0.303  0.00  0.00    -0.380 N 
ATOM     19  H   UNL     1       4.873  -2.425   0.298  0.00  0.00    +0.176 HD
ATOM     20  H   UNL     1       3.655  -6.237   0.238  0.00  0.00    +0.158 HD
ATOM     21  H   UNL     1       2.544  -4.988   0.409  0.00  0.00    +0.158 HD
BRANCH  16  23
ATOM     22  C   UNL     1       2.568  -1.370   0.579  0.00  0.00    +0.138 C 
ATOM     23  N   UNL     1       2.829  -2.638   0.493  0.00  0.00    -0.188 NA
BRANCH  22  27
ATOM     24  C   UNL     1      -1.441  -0.055   1.043  0.00  0.00    +0.000 A 
ATOM     25  C   UNL     1      -0.415   0.871   0.985  0.00  0.00    +0.001 A 
ATOM     26  C   UNL     1       0.891   0.451   0.835  0.00  0.00    +0.009 A 
ATOM     27  C   UNL     1       1.175  -0.913   0.741  0.00  0.00    -0.005 A 
ATOM     28  C   UNL     1       0.134  -1.843   0.801  0.00  0.00    +0.009 A 
ATOM     29  C   UNL     1      -1.166  -1.409   0.951  0.00  0.00    +0.001 A 
ENDBRANCH  22  27
ENDBRANCH  16  23
ENDBRANCH   1  17
TORSDOF 5
