REMARK  Name = ZINC39693540
REMARK  10 active torsions:
REMARK  status: ('A' for Active; 'I' for Inactive)
REMARK    1  A    between atoms: C_1  and  C_2
REMARK    2  A    between atoms: C_2  and  C_3
REMARK    3  A    between atoms: C_2  and  C_4
REMARK    4  A    between atoms: C_2  and  O_5
REMARK    5  A    between atoms: O_5  and  C_6
REMARK    6  A    between atoms: N_8  and  C_9
REMARK    7  A    between atoms: C_9  and  C_10
REMARK    8  A    between atoms: C_10  and  N_11
REMARK    9  A    between atoms: C_12  and  C_14
REMARK   10  A    between atoms: C_25  and  C_27
REMARK                            x       y       z     vdW  Elec       q    Type
REMARK                         _______ _______ _______ _____ _____    ______ ____
ROOT
ATOM      1  C   UNL     1       8.847  -0.340  -4.747  0.00  0.00    +0.100 C 
ATOM      2  C   UNL     1       8.521   1.051  -5.337  0.00  0.00    +0.121 C 
ATOM      3  N   UNL     1       9.560   1.272  -6.370  0.00  0.00    -0.300 N 
ATOM      4  C   UNL     1       9.728  -0.053  -7.013  0.00  0.00    +0.115 C 
ATOM      5  C   UNL     1       9.638  -1.061  -5.850  0.00  0.00    -0.004 C 
ATOM      6  C   UNL     1       8.897  -2.317  -6.297  0.00  0.00    -0.010 C 
ATOM      7  C   UNL     1       9.730  -3.049  -7.353  0.00  0.00    -0.082 C 
ATOM      8  N   UNL     1      11.038  -3.403  -6.787  0.00  0.00    +0.379 N 
ATOM      9  C   UNL     1      11.783  -2.186  -6.446  0.00  0.00    -0.082 C 
ATOM     10  C   UNL     1      11.036  -1.417  -5.352  0.00  0.00    -0.010 C 
ATOM     11  C   UNL     1      10.206   2.419  -6.660  0.00  0.00    +0.219 C 
ATOM     12  O   UNL     1      10.014   3.409  -5.987  0.00  0.00    -0.275 OA
ATOM     13  H   UNL     1      10.903  -3.958  -5.955  0.00  0.00    -0.086 HD
ATOM     14  H   UNL     1      11.562  -3.938  -7.464  0.00  0.00    -0.086 HD
ENDROOT
BRANCH  11  15
ATOM     15  C   UNL     1      11.166   2.470  -7.820  0.00  0.00    +0.079 C 
ATOM     16  C   UNL     1      12.200   3.579  -7.584  0.00  0.00    +0.017 C 
ATOM     17  C   UNL     1      13.262   3.491  -8.683  0.00  0.00    +0.027 C 
ATOM     18  C   UNL     1      12.606   3.412 -10.030  0.00  0.00    -0.031 C 
ATOM     19  C   UNL     1      11.363   3.102 -10.215  0.00  0.00    -0.030 C 
ATOM     20  C   UNL     1      10.401   2.782  -9.108  0.00  0.00    +0.039 C 
ENDBRANCH  11  15
BRANCH   1  22
ATOM     21  N   UNL     1       7.562  -2.012  -3.454  0.00  0.00    -0.314 N 
ATOM     22  C   UNL     1       7.577  -1.089  -4.436  0.00  0.00    +0.218 C 
ATOM     23  O   UNL     1       6.568  -0.862  -5.070  0.00  0.00    -0.275 OA
ATOM     24  H   UNL     1       8.369  -2.193  -2.947  0.00  0.00    +0.149 HD
BRANCH  21  25
ATOM     25  C   UNL     1       6.327  -2.740  -3.152  0.00  0.00    +0.123 C 
BRANCH  25  26
ATOM     26  C   UNL     1       6.581  -3.720  -2.005  0.00  0.00    +0.126 C 
BRANCH  26  29
ATOM     27  C   UNL     1       5.332  -5.371  -0.720  0.00  0.00    +0.401 C 
ATOM     28  O   UNL     1       6.342  -5.599  -0.085  0.00  0.00    -0.226 OA
ATOM     29  N   UNL     1       5.346  -4.449  -1.703  0.00  0.00    -0.280 N 
ATOM     30  H   UNL     1       4.540  -4.267  -2.210  0.00  0.00    +0.152 HD
BRANCH  27  31
ATOM     31  O   UNL     1       4.197  -6.041  -0.443  0.00  0.00    -0.445 OA
BRANCH  31  33
ATOM     32  C   UNL     1       4.651  -6.311   1.915  0.00  0.00    +0.055 C 
ATOM     33  C   UNL     1       4.253  -7.004   0.611  0.00  0.00    +0.107 C 
ATOM     34  C   UNL     1       5.289  -8.076   0.267  0.00  0.00    +0.055 C 
ATOM     35  C   UNL     1       2.880  -7.658   0.779  0.00  0.00    +0.055 C 
ENDBRANCH  31  33
ENDBRANCH  27  31
ENDBRANCH  26  29
ENDBRANCH  25  26
ENDBRANCH  21  25
ENDBRANCH   1  22
TORSDOF 7
