REMARK  Name = ZINC14548185
REMARK  5 active torsions:
REMARK  status: ('A' for Active; 'I' for Inactive)
REMARK    1  A    between atoms: C_2  and  C_3
REMARK    2  A    between atoms: C_3  and  O_4
REMARK    3  A    between atoms: O_4  and  C_5
REMARK    4  A    between atoms: C_12  and  C_21
REMARK    5  A    between atoms: C_30  and  O_31
REMARK                            x       y       z     vdW  Elec       q    Type
REMARK                         _______ _______ _______ _____ _____    ______ ____
ROOT
ATOM      1  C   UNL     1       2.358   2.844   0.365  0.00  0.00    +0.142 A 
ATOM      2  C   UNL     1       3.701   3.034   0.625  0.00  0.00    +0.047 A 
ATOM      3  C   UNL     1       4.526   1.948   0.848  0.00  0.00    +0.004 A 
ATOM      4  C   UNL     1       4.002   0.670   0.803  0.00  0.00    +0.006 A 
ATOM      5  C   UNL     1       2.663   0.469   0.538  0.00  0.00    -0.016 A 
ATOM      6  C   UNL     1       1.813   1.555   0.322  0.00  0.00    +0.074 A 
ATOM      7  N   UNL     1       0.445   1.440   0.070  0.00  0.00    -0.334 N 
ATOM      8  C   UNL     1      -0.095   0.076  -0.045  0.00  0.00    +0.109 C 
ATOM      9  C   UNL     1       0.613  -0.771   0.992  0.00  0.00    +0.029 C 
ATOM     10  C   UNL     1       2.079  -0.889   0.470  0.00  0.00    +0.049 C 
ATOM     11  C   UNL     1       2.621  -2.030   1.247  0.00  0.00    -0.023 C 
ATOM     12  C   UNL     1       1.617  -2.843   1.560  0.00  0.00    -0.030 C 
ATOM     13  C   UNL     1       0.299  -2.271   1.034  0.00  0.00    +0.033 C 
ATOM     14  H   UNL     1       0.175   2.004  -0.723  0.00  0.00    +0.147 HD
ENDROOT
BRANCH   8  15
ATOM     15  C   UNL     1       0.175  -0.469  -1.424  0.00  0.00    +0.022 A 
ATOM     16  C   UNL     1      -0.529  -1.591  -1.890  0.00  0.00    -0.009 A 
ATOM     17  C   UNL     1      -1.494  -2.230  -1.092  0.00  0.00    +0.009 A 
ATOM     18  C   UNL     1      -2.157  -3.315  -1.576  0.00  0.00    +0.001 A 
ATOM     19  C   UNL     1      -1.895  -3.805  -2.854  0.00  0.00    +0.001 A 
ATOM     20  C   UNL     1      -0.967  -3.213  -3.655  0.00  0.00    +0.008 A 
ATOM     21  C   UNL     1      -0.262  -2.090  -3.190  0.00  0.00    -0.017 A 
ATOM     22  C   UNL     1       0.703  -1.453  -3.990  0.00  0.00    +0.012 A 
ATOM     23  C   UNL     1       1.368  -0.368  -3.509  0.00  0.00    +0.046 A 
ATOM     24  C   UNL     1       1.102   0.129  -2.229  0.00  0.00    +0.122 A 
BRANCH  24  25
ATOM     25  O   UNL     1       1.779   1.218  -1.779  0.00  0.00    -0.506 OA
ATOM     26  H   UNL     1       2.657   1.018  -1.429  0.00  0.00    +0.292 HD
ENDBRANCH  24  25
ENDBRANCH   8  15
BRANCH   1  27
ATOM     27  O   UNL     1       1.556   3.921   0.148  0.00  0.00    -0.486 OA
BRANCH  27  28
ATOM     28  C   UNL     1       2.171   5.210   0.204  0.00  0.00    +0.256 C 
BRANCH  28  30
ATOM     29  C   UNL     1       1.088   7.343   0.694  0.00  0.00    +0.007 C 
ATOM     30  C   UNL     1       1.135   6.272  -0.060  0.00  0.00    +0.006 C 
ENDBRANCH  28  30
ENDBRANCH  27  28
ENDBRANCH   1  27
TORSDOF 5
