REMARK  Name = ZINC40135384
REMARK  15 active torsions:
REMARK  status: ('A' for Active; 'I' for Inactive)
REMARK    1  A    between atoms: C_1  and  C_2
REMARK    2  A    between atoms: C_2  and  N_3
REMARK    3  A    between atoms: N_3  and  C_4
REMARK    4  A    between atoms: N_3  and  C_25
REMARK    5  A    between atoms: C_4  and  C_5
REMARK    6  A    between atoms: N_7  and  C_8
REMARK    7  A    between atoms: C_9  and  C_23
REMARK    8  A    between atoms: C_10  and  C_22
REMARK    9  A    between atoms: C_11  and  C_21
REMARK   10  A    between atoms: N_12  and  C_13
REMARK   11  A    between atoms: C_16  and  O_19
REMARK   12  A    between atoms: O_19  and  C_20
REMARK   13  A    between atoms: C_25  and  C_27
REMARK   14  A    between atoms: C_25  and  C_28
REMARK   15  A    between atoms: C_31  and  C_34
REMARK                            x       y       z     vdW  Elec       q    Type
REMARK                         _______ _______ _______ _____ _____    ______ ____
ROOT
ATOM      1  C   UNL     1       1.174  -2.886  -0.194  0.00  0.00    +0.202 C 
ATOM      2  O   UNL     1       1.165  -2.229  -1.214  0.00  0.00    -0.278 OA
ATOM      3  N   UNL     1       1.865  -4.042  -0.144  0.00  0.00    -0.272 N 
ATOM      4  H   UNL     1       1.938  -4.528   0.692  0.00  0.00    +0.156 HD
ENDROOT
BRANCH   3   5
ATOM      5  C   UNL     1       2.472  -4.537  -1.289  0.00  0.00    +0.128 A 
ATOM      6  C   UNL     1       2.217  -5.766  -1.883  0.00  0.00    +0.095 A 
ATOM      7  C   UNL     1       3.095  -5.838  -3.058  0.00  0.00    -0.010 A 
ATOM      8  C   UNL     1       3.793  -4.690  -3.090  0.00  0.00    +0.027 A 
ATOM      9  N   UNL     1       3.418  -3.903  -2.032  0.00  0.00    -0.300 N 
ATOM     10  C   UNL     1       4.821  -4.324  -4.128  0.00  0.00    +0.064 C 
ATOM     11  C   UNL     1       3.194  -6.978  -4.037  0.00  0.00    +0.047 C 
BRANCH   9  12
ATOM     12  C   UNL     1       3.938  -2.630  -1.754  0.00  0.00    +0.048 A 
ATOM     13  C   UNL     1       3.648  -1.563  -2.593  0.00  0.00    +0.030 A 
ATOM     14  C   UNL     1       4.160  -0.310  -2.319  0.00  0.00    +0.047 A 
ATOM     15  C   UNL     1       4.965  -0.117  -1.206  0.00  0.00    +0.120 A 
ATOM     16  C   UNL     1       5.255  -1.184  -0.367  0.00  0.00    +0.047 A 
ATOM     17  C   UNL     1       4.739  -2.436  -0.637  0.00  0.00    +0.030 A 
BRANCH  15  18
ATOM     18  O   UNL     1       5.469   1.116  -0.936  0.00  0.00    -0.495 OA
ATOM     19  C   UNL     1       6.290   1.242   0.226  0.00  0.00    +0.277 C 
ENDBRANCH  15  18
ENDBRANCH   9  12
BRANCH   6  20
ATOM     20  C   UNL     1       1.288  -6.761  -1.440  0.00  0.00    +0.103 C 
ATOM     21  N   UNL     1       0.550  -7.550  -1.088  0.00  0.00    -0.191 NA
ENDBRANCH   6  20
ENDBRANCH   3   5
BRANCH   1  22
ATOM     22  C   UNL     1       0.413  -2.410   1.016  0.00  0.00    +0.020 C 
BRANCH  22  23
ATOM     23  N   UNL     1      -0.250  -1.136   0.708  0.00  0.00    +0.390 N 
ATOM     24  H   UNL     1       0.434  -0.472   0.376  0.00  0.00    -0.080 HD
BRANCH  23  26
ATOM     25  C   UNL     1      -2.318  -2.338   0.183  0.00  0.00    -0.017 C 
ATOM     26  C   UNL     1      -1.267  -1.352  -0.330  0.00  0.00    -0.081 C 
ENDBRANCH  23  26
BRANCH  23  27
ATOM     27  C   UNL     1      -0.892  -0.612   1.921  0.00  0.00    -0.040 C 
ATOM     28  C   UNL     1       0.179  -0.271   2.958  0.00  0.00    -0.008 C 
BRANCH  27  29
ATOM     29  C   UNL     1      -1.674   0.630   1.579  0.00  0.00    -0.061 A 
ATOM     30  C   UNL     1      -1.097   1.613   0.794  0.00  0.00    +0.003 A 
ATOM     31  C   UNL     1      -1.807   2.752   0.477  0.00  0.00    +0.019 A 
ATOM     32  C   UNL     1      -3.111   2.913   0.950  0.00  0.00    +0.052 A 
ATOM     33  C   UNL     1      -3.687   1.917   1.741  0.00  0.00    +0.019 A 
ATOM     34  C   UNL     1      -2.968   0.780   2.046  0.00  0.00    +0.003 A 
BRANCH  32  35
ATOM     35  C   UNL     1      -3.854   4.093   0.625  0.00  0.00    +0.099 C 
ATOM     36  N   UNL     1      -4.443   5.029   0.368  0.00  0.00    -0.191 NA
ENDBRANCH  32  35
ENDBRANCH  27  29
ENDBRANCH  23  27
ENDBRANCH  22  23
ENDBRANCH   1  22
TORSDOF 10
