REMARK  Name = ZINC21179791
REMARK  9 active torsions:
REMARK  status: ('A' for Active; 'I' for Inactive)
REMARK    1  A    between atoms: C_1  and  N_2
REMARK    2  A    between atoms: C_3  and  C_25
REMARK    3  A    between atoms: C_6  and  S_7
REMARK    4  A    between atoms: S_7  and  C_8
REMARK    5  A    between atoms: C_8  and  C_9
REMARK    6  A    between atoms: C_9  and  C_11
REMARK    7  A    between atoms: C_11  and  C_21
REMARK    8  A    between atoms: C_21  and  O_23
REMARK    9  A    between atoms: O_23  and  C_24
REMARK                            x       y       z     vdW  Elec       q    Type
REMARK                         _______ _______ _______ _____ _____    ______ ____
ROOT
ATOM      1  C   UNL     1      -1.309   2.121   0.862  0.00  0.00    +0.183 C 
ATOM      2  O   UNL     1      -1.324   3.336   0.886  0.00  0.00    -0.291 OA
ENDROOT
BRANCH   1   3
ATOM      3  C   UNL     1      -0.098   1.429   1.046  0.00  0.00    +0.138 C 
ATOM      4  C   UNL     1       1.097   2.144   1.252  0.00  0.00    +0.110 C 
ATOM      5  N   UNL     1       1.207   3.496   1.294  0.00  0.00    -0.301 N 
ATOM      6  C   UNL     1       2.540   3.819   1.519  0.00  0.00    +0.054 A 
ATOM      7  C   UNL     1       3.214   5.025   1.651  0.00  0.00    +0.025 A 
ATOM      8  C   UNL     1       4.577   5.030   1.868  0.00  0.00    +0.002 A 
ATOM      9  C   UNL     1       5.276   3.837   1.954  0.00  0.00    +0.002 A 
ATOM     10  C   UNL     1       4.615   2.632   1.823  0.00  0.00    +0.025 A 
ATOM     11  C   UNL     1       3.244   2.616   1.605  0.00  0.00    +0.054 A 
ATOM     12  N   UNL     1       2.322   1.590   1.436  0.00  0.00    -0.301 N 
ATOM     13  H   UNL     1       0.314   4.124   1.157  0.00  0.00    +0.153 HD
ATOM     14  H   UNL     1       2.437   0.496   1.430  0.00  0.00    +0.153 HD
BRANCH   3  15
ATOM     15  C   UNL     1      -0.080  -0.032   1.017  0.00  0.00    +0.345 C 
ATOM     16  O   UNL     1       0.968  -0.631   1.171  0.00  0.00    -0.245 OA
BRANCH  15  17
ATOM     17  O   UNL     1      -1.225  -0.717   0.819  0.00  0.00    -0.464 OA
ATOM     18  C   UNL     1      -1.134  -2.143   0.802  0.00  0.00    +0.280 C 
ENDBRANCH  15  17
ENDBRANCH   3  15
ENDBRANCH   1   3
BRANCH   1  19
ATOM     19  C   UNL     1      -2.587   1.356   0.635  0.00  0.00    +0.157 C 
BRANCH  19  20
ATOM     20  S   UNL     1      -3.959   2.520   0.435  0.00  0.00    -0.078 S 
BRANCH  20  26
ATOM     21  C   UNL     1      -7.181   3.052  -0.084  0.00  0.00    +0.153 C 
ATOM     22  N   UNL     1      -6.598   1.710  -0.017  0.00  0.00    -0.305 N 
ATOM     23  C   UNL     1      -7.258   0.510  -0.153  0.00  0.00    +0.167 A 
ATOM     24  N   UNL     1      -6.360  -0.440  -0.026  0.00  0.00    -0.128 NA
ATOM     25  N   UNL     1      -5.200   0.077   0.171  0.00  0.00    -0.122 NA
ATOM     26  C   UNL     1      -5.287   1.388   0.191  0.00  0.00    +0.192 A 
BRANCH  23  27
ATOM     27  C   UNL     1      -8.704   0.325  -0.396  0.00  0.00    +0.054 A 
ATOM     28  C   UNL     1      -9.352   1.075  -1.379  0.00  0.00    +0.014 A 
ATOM     29  C   UNL     1     -10.702   0.898  -1.600  0.00  0.00    +0.001 A 
ATOM     30  C   UNL     1     -11.415  -0.021  -0.851  0.00  0.00    +0.003 A 
ATOM     31  C   UNL     1     -10.782  -0.769   0.125  0.00  0.00    +0.039 A 
ATOM     32  C   UNL     1      -9.429  -0.606   0.354  0.00  0.00    +0.134 A 
ATOM     33  F   UNL     1      -8.809  -1.340   1.304  0.00  0.00    -0.205 F 
ENDBRANCH  23  27
ENDBRANCH  20  26
ENDBRANCH  19  20
ENDBRANCH   1  19
TORSDOF 7
