REMARK  Name = ZINC00887089
REMARK  9 active torsions:
REMARK  status: ('A' for Active; 'I' for Inactive)
REMARK    1  A    between atoms: C_1  and  C_2
REMARK    2  A    between atoms: C_2  and  C_3
REMARK    3  A    between atoms: N_9  and  S_10
REMARK    4  A    between atoms: S_10  and  C_13
REMARK    5  A    between atoms: C_16  and  N_19
REMARK    6  A    between atoms: C_20  and  C_22
REMARK    7  A    between atoms: C_22  and  S_23
REMARK    8  A    between atoms: S_23  and  C_24
REMARK    9  A    between atoms: C_36  and  C_37
REMARK                            x       y       z     vdW  Elec       q    Type
REMARK                         _______ _______ _______ _____ _____    ______ ____
ROOT
ATOM      1  N   UNL     1       8.723   2.510  -0.528  0.00  0.00    -0.285 N 
ATOM      2  C   UNL     1       9.340   3.700  -0.661  0.00  0.00    +0.227 C 
ATOM      3  O   UNL     1       8.771   4.718  -0.327  0.00  0.00    -0.275 OA
ATOM      4  H   UNL     1       9.155   1.701  -0.847  0.00  0.00    +0.155 HD
ENDROOT
BRANCH   1   8
ATOM      5  C   UNL     1       4.960   2.299   1.247  0.00  0.00    +0.106 A 
ATOM      6  C   UNL     1       5.876   1.283   1.450  0.00  0.00    +0.030 A 
ATOM      7  C   UNL     1       7.123   1.348   0.859  0.00  0.00    +0.025 A 
ATOM      8  C   UNL     1       7.459   2.439   0.068  0.00  0.00    +0.034 A 
ATOM      9  C   UNL     1       6.538   3.460  -0.129  0.00  0.00    +0.025 A 
ATOM     10  C   UNL     1       5.292   3.387   0.461  0.00  0.00    +0.030 A 
BRANCH   5  11
ATOM     11  S   UNL     1       3.368   2.210   1.997  0.00  0.00    +0.061 S 
ATOM     12  O   UNL     1       2.826   3.523   1.958  0.00  0.00    -0.153 OA
ATOM     13  O   UNL     1       3.531   1.489   3.211  0.00  0.00    -0.153 OA
BRANCH  11  19
ATOM     14  C   UNL     1       1.768   1.854  -0.169  0.00  0.00    +0.080 C 
ATOM     15  C   UNL     1       0.266   1.559  -0.104  0.00  0.00    +0.021 C 
ATOM     16  C   UNL     1       0.053   0.052   0.056  0.00  0.00    +0.003 C 
ATOM     17  C   UNL     1       0.695  -0.420   1.363  0.00  0.00    +0.017 C 
ATOM     18  C   UNL     1       2.202  -0.147   1.314  0.00  0.00    +0.110 C 
ATOM     19  N   UNL     1       2.415   1.276   1.016  0.00  0.00    -0.174 NA
BRANCH  14  21
ATOM     20  C   UNL     1       1.498   3.939  -1.520  0.00  0.00    +0.005 C 
ATOM     21  C   UNL     1       1.993   3.368  -0.190  0.00  0.00    +0.017 C 
ENDBRANCH  14  21
ENDBRANCH  11  19
ENDBRANCH   5  11
ENDBRANCH   1   8
BRANCH   2  22
ATOM     22  C   UNL     1      10.737   3.767  -1.223  0.00  0.00    +0.173 C 
BRANCH  22  23
ATOM     23  S   UNL     1      11.285   5.491  -1.274  0.00  0.00    -0.076 S 
BRANCH  23  24
ATOM     24  C   UNL     1      12.898   5.279  -1.951  0.00  0.00    +0.197 A 
ATOM     25  N   UNL     1      13.457   4.139  -2.293  0.00  0.00    -0.122 NA
ATOM     26  N   UNL     1      14.639   4.344  -2.754  0.00  0.00    -0.128 NA
ATOM     27  C   UNL     1      14.909   5.637  -2.735  0.00  0.00    +0.165 A 
ATOM     28  N   UNL     1      13.797   6.268  -2.225  0.00  0.00    -0.270 N 
ATOM     29  C   UNL     1      13.769   7.644  -2.072  0.00  0.00    +0.061 A 
ATOM     30  C   UNL     1      12.649   8.280  -1.553  0.00  0.00    +0.076 A 
ATOM     31  C   UNL     1      12.635   9.656  -1.415  0.00  0.00    +0.168 A 
ATOM     32  C   UNL     1      13.745  10.416  -1.796  0.00  0.00    +0.167 A 
ATOM     33  C   UNL     1      14.865   9.798  -2.311  0.00  0.00    +0.059 A 
ATOM     34  C   UNL     1      14.888   8.406  -2.453  0.00  0.00    +0.003 A 
ATOM     35  C   UNL     1      16.066   7.725  -2.998  0.00  0.00    +0.017 A 
ATOM     36  C   UNL     1      16.049   6.379  -3.124  0.00  0.00    -0.005 A 
ATOM     37  C   UNL     1      17.253   5.664  -3.683  0.00  0.00    +0.047 C 
ATOM     38  O   UNL     1      13.472  11.733  -1.559  0.00  0.00    -0.453 OA
ATOM     39  C   UNL     1      12.041  11.809  -1.416  0.00  0.00    +0.466 C 
ATOM     40  O   UNL     1      11.673  10.501  -0.941  0.00  0.00    -0.453 OA
ENDBRANCH  23  24
ENDBRANCH  22  23
ENDBRANCH   2  22
TORSDOF 7
