REMARK  Name = ZINC36155992
REMARK  13 active torsions:
REMARK  status: ('A' for Active; 'I' for Inactive)
REMARK    1  A    between atoms: C_1  and  C_2
REMARK    2  A    between atoms: C_2  and  C_3
REMARK    3  A    between atoms: C_2  and  O_4
REMARK    4  A    between atoms: O_4  and  C_5
REMARK    5  A    between atoms: C_5  and  C_6
REMARK    6  A    between atoms: C_6  and  C_8
REMARK    7  A    between atoms: C_6  and  O_34
REMARK    8  A    between atoms: C_8  and  N_9
REMARK    9  A    between atoms: N_9  and  C_10
REMARK   10  A    between atoms: N_9  and  C_18
REMARK   11  A    between atoms: C_10  and  C_11
REMARK   12  A    between atoms: C_11  and  N_12
REMARK   13  A    between atoms: C_18  and  C_19
REMARK                            x       y       z     vdW  Elec       q    Type
REMARK                         _______ _______ _______ _____ _____    ______ ____
ROOT
ATOM      1  N   UNL     1      -4.697  -4.058  -1.150  0.00  0.00    +0.387 N 
ATOM      2  H   UNL     1      -4.647  -3.712  -0.203  0.00  0.00    -0.081 HD
ENDROOT
BRANCH   1   3
ATOM      3  C   UNL     1      -3.471  -3.689  -1.871  0.00  0.00    -0.044 C 
BRANCH   3   4
ATOM      4  C   UNL     1      -3.257  -2.177  -1.772  0.00  0.00    +0.124 C 
BRANCH   4   5
ATOM      5  O   UNL     1      -4.279  -1.502  -2.506  0.00  0.00    -0.391 OA
ATOM      6  H   UNL     1      -4.302  -1.725  -3.447  0.00  0.00    +0.210 HD
ENDBRANCH   4   5
BRANCH   4   7
ATOM      7  C   UNL     1      -1.888  -1.817  -2.354  0.00  0.00    +0.189 C 
BRANCH   7   8
ATOM      8  O   UNL     1      -1.638  -0.424  -2.156  0.00  0.00    -0.375 OA
BRANCH   8  10
ATOM      9  C   UNL     1      -0.489   1.482  -3.097  0.00  0.00    +0.037 C 
ATOM     10  C   UNL     1      -0.379   0.018  -2.667  0.00  0.00    +0.112 C 
ATOM     11  C   UNL     1       0.688  -0.115  -1.578  0.00  0.00    +0.037 C 
ENDBRANCH   8  10
ENDBRANCH   7   8
ENDBRANCH   4   7
ENDBRANCH   3   4
ENDBRANCH   1   3
BRANCH   1  12
ATOM     12  C   UNL     1      -5.859  -3.466  -1.826  0.00  0.00    -0.063 C 
BRANCH  12  13
ATOM     13  C   UNL     1      -5.848  -3.865  -3.303  0.00  0.00    +0.066 C 
BRANCH  13  14
ATOM     14  N   UNL     1      -6.947  -3.187  -4.003  0.00  0.00    -0.300 NA
ATOM     15  C   UNL     1      -8.252  -3.670  -3.527  0.00  0.00    +0.112 C 
ATOM     16  C   UNL     1      -9.366  -2.896  -4.237  0.00  0.00    +0.175 C 
ATOM     17  O   UNL     1      -9.216  -3.045  -5.652  0.00  0.00    -0.377 OA
ATOM     18  C   UNL     1      -7.957  -2.584  -6.149  0.00  0.00    +0.175 C 
ATOM     19  C   UNL     1      -6.829  -3.355  -5.458  0.00  0.00    +0.112 C 
ENDBRANCH  13  14
ENDBRANCH  12  13
ENDBRANCH   1  12
BRANCH   1  20
ATOM     20  C   UNL     1      -4.833  -5.520  -1.132  0.00  0.00    -0.003 C 
BRANCH  20  21
ATOM     21  C   UNL     1      -5.998  -5.905  -0.256  0.00  0.00    +0.094 A 
ATOM     22  N   UNL     1      -6.339  -7.214  -0.138  0.00  0.00    -0.312 N 
ATOM     23  H   UNL     1      -5.828  -7.884  -0.619  0.00  0.00    +0.170 HD
ATOM     24  C   UNL     1      -7.372  -7.602   0.633  0.00  0.00    +0.260 A 
ATOM     25  O   UNL     1      -7.665  -8.781   0.730  0.00  0.00    -0.267 OA
ATOM     26  C   UNL     1      -8.121  -6.605   1.340  0.00  0.00    +0.075 A 
ATOM     27  C   UNL     1      -9.270  -6.790   2.225  0.00  0.00    -0.023 A 
ATOM     28  C   UNL     1      -9.804  -5.679   2.775  0.00  0.00    -0.004 A 
ATOM     29  S   UNL     1      -8.820  -4.341   2.155  0.00  0.00    -0.073 S 
ATOM     30  C   UNL     1      -7.694  -5.280   1.156  0.00  0.00    +0.116 A 
ATOM     31  N   UNL     1      -6.658  -4.975   0.379  0.00  0.00    -0.229 NA
ATOM     32  C   UNL     1     -10.975  -5.600   3.707  0.00  0.00    +0.043 C 
ATOM     33  C   UNL     1     -11.723  -6.940   3.659  0.00  0.00    +0.005 C 
ATOM     34  C   UNL     1     -10.704  -8.076   3.795  0.00  0.00    +0.005 C 
ATOM     35  C   UNL     1      -9.855  -8.167   2.526  0.00  0.00    +0.037 C 
ENDBRANCH  20  21
ENDBRANCH   1  20
TORSDOF 11
