REMARK  Name = ZINC14456863
REMARK  6 active torsions:
REMARK  status: ('A' for Active; 'I' for Inactive)
REMARK    1  A    between atoms: C_1  and  C_2
REMARK    2  A    between atoms: C_2  and  C_3
REMARK    3  A    between atoms: C_3  and  C_4
REMARK    4  A    between atoms: N_6  and  C_7
REMARK    5  A    between atoms: C_20  and  C_23
REMARK    6  A    between atoms: C_26  and  C_28
REMARK                            x       y       z     vdW  Elec       q    Type
REMARK                         _______ _______ _______ _____ _____    ______ ____
ROOT
ATOM      1  C   UNL     1      -3.346   0.155   3.302  0.00  0.00    +0.034 A 
ATOM      2  C   UNL     1      -4.238  -0.098   2.268  0.00  0.00    +0.025 A 
ATOM      3  C   UNL     1      -3.893   0.204   0.968  0.00  0.00    +0.025 A 
ATOM      4  C   UNL     1      -2.654   0.762   0.680  0.00  0.00    +0.031 A 
ATOM      5  C   UNL     1      -1.763   1.028   1.726  0.00  0.00    -0.018 A 
ATOM      6  C   UNL     1      -2.109   0.720   3.023  0.00  0.00    +0.029 A 
ATOM      7  C   UNL     1      -0.464   1.643   1.377  0.00  0.00    +0.049 C 
ATOM      8  C   UNL     1       0.742   1.464   2.225  0.00  0.00    -0.023 C 
ATOM      9  C   UNL     1       1.817   1.488   1.446  0.00  0.00    -0.030 C 
ATOM     10  C   UNL     1       1.399   1.655  -0.016  0.00  0.00    +0.033 C 
ATOM     11  C   UNL     1      -0.018   1.068  -0.001  0.00  0.00    +0.029 C 
ATOM     12  C   UNL     1      -1.001   1.604  -1.027  0.00  0.00    +0.111 C 
ATOM     13  N   UNL     1      -2.315   1.026  -0.655  0.00  0.00    -0.336 N 
ATOM     14  H   UNL     1      -2.949   0.814  -1.358  0.00  0.00    +0.147 HD
ENDROOT
BRANCH  12  15
ATOM     15  C   UNL     1      -1.090   3.106  -0.927  0.00  0.00    +0.010 A 
ATOM     16  C   UNL     1      -0.493   4.049  -1.696  0.00  0.00    +0.013 A 
ATOM     17  C   UNL     1      -0.722   5.383  -1.419  0.00  0.00    +0.011 A 
ATOM     18  C   UNL     1      -1.536   5.709  -0.385  0.00  0.00    -0.013 A 
ATOM     19  S   UNL     1      -2.014   4.103   0.229  0.00  0.00    -0.097 S 
ATOM     20  C   UNL     1      -1.937   7.074   0.113  0.00  0.00    +0.051 C 
ENDBRANCH  12  15
BRANCH   1  23
ATOM     21  C   UNL     1      -4.971  -0.020   5.034  0.00  0.00    +0.217 C 
ATOM     22  O   UNL     1      -5.833   0.293   4.241  0.00  0.00    -0.275 OA
ATOM     23  N   UNL     1      -3.694  -0.157   4.623  0.00  0.00    -0.285 N 
ATOM     24  H   UNL     1      -3.017  -0.472   5.242  0.00  0.00    +0.155 HD
BRANCH  21  25
ATOM     25  C   UNL     1      -5.326  -0.256   6.480  0.00  0.00    +0.096 C 
BRANCH  25  27
ATOM     26  C   UNL     1      -7.188  -0.275   8.145  0.00  0.00    +0.004 C 
ATOM     27  C   UNL     1      -6.827  -0.036   6.678  0.00  0.00    +0.006 C 
ENDBRANCH  25  27
ENDBRANCH  21  25
ENDBRANCH   1  23
TORSDOF 4
