REMARK  Name = ZINC14475902
REMARK  5 active torsions:
REMARK  status: ('A' for Active; 'I' for Inactive)
REMARK    1  A    between atoms: C_5  and  C_7
REMARK    2  A    between atoms: N_9  and  C_10
REMARK    3  A    between atoms: C_17  and  C_26
REMARK    4  A    between atoms: C_28  and  N_33
REMARK    5  A    between atoms: C_31  and  O_32
REMARK                            x       y       z     vdW  Elec       q    Type
REMARK                         _______ _______ _______ _____ _____    ______ ____
ROOT
ATOM      1  C   UNL     1       3.327   1.544   0.202  0.00  0.00    +0.001 A 
ATOM      2  C   UNL     1       2.774   2.805   0.068  0.00  0.00    +0.006 A 
ATOM      3  C   UNL     1       1.399   2.981   0.020  0.00  0.00    -0.019 A 
ATOM      4  C   UNL     1       0.568   1.877   0.106  0.00  0.00    +0.044 A 
ATOM      5  C   UNL     1       1.128   0.592   0.241  0.00  0.00    +0.058 A 
ATOM      6  C   UNL     1       2.514   0.436   0.289  0.00  0.00    +0.015 A 
ATOM      7  N   UNL     1      -0.813   1.984   0.070  0.00  0.00    -0.336 N 
ATOM      8  C   UNL     1      -1.258   3.181  -0.648  0.00  0.00    +0.108 C 
ATOM      9  C   UNL     1      -0.663   4.423   0.019  0.00  0.00    +0.029 C 
ATOM     10  C   UNL     1       0.874   4.379  -0.127  0.00  0.00    +0.049 C 
ATOM     11  C   UNL     1       1.127   4.900  -1.523  0.00  0.00    -0.023 C 
ATOM     12  C   UNL     1       0.102   5.598  -1.945  0.00  0.00    -0.030 C 
ATOM     13  C   UNL     1      -0.980   5.647  -0.884  0.00  0.00    +0.033 C 
ATOM     14  H   UNL     1      -1.554   1.296   0.504  0.00  0.00    +0.147 HD
ENDROOT
BRANCH   8  15
ATOM     15  C   UNL     1      -0.797   3.110  -2.081  0.00  0.00    +0.017 A 
ATOM     16  C   UNL     1       0.397   2.488  -2.394  0.00  0.00    +0.041 A 
ATOM     17  C   UNL     1       0.817   2.418  -3.709  0.00  0.00    +0.127 A 
ATOM     18  C   UNL     1       0.051   2.981  -4.713  0.00  0.00    +0.036 A 
ATOM     19  C   UNL     1      -1.140   3.609  -4.405  0.00  0.00    +0.048 A 
ATOM     20  C   UNL     1      -1.567   3.675  -3.087  0.00  0.00    +0.122 A 
BRANCH  17  21
ATOM     21  N   UNL     1       2.093   1.746  -4.042  0.00  0.00    +0.056 N 
ATOM     22  O   UNL     1       2.468   1.689  -5.199  0.00  0.00    -0.126 OA
ATOM     23  O   UNL     1       2.769   1.250  -3.158  0.00  0.00    -0.126 OA
ENDBRANCH  17  21
BRANCH  20  24
ATOM     24  O   UNL     1      -2.739   4.292  -2.781  0.00  0.00    -0.506 OA
ATOM     25  H   UNL     1      -3.349   4.740  -3.580  0.00  0.00    +0.292 HD
ENDBRANCH  20  24
ENDBRANCH   8  15
BRANCH   5  26
ATOM     26  C   UNL     1       0.250  -0.589   0.333  0.00  0.00    +0.246 C 
ATOM     27  O   UNL     1      -0.955  -0.446   0.417  0.00  0.00    -0.270 OA
ATOM     28  N   UNL     1       0.782  -1.827   0.323  0.00  0.00    -0.308 N 
ATOM     29  H   UNL     1       1.872  -1.957   0.246  0.00  0.00    +0.149 HD
BRANCH  28  30
ATOM     30  C   UNL     1      -0.090  -3.000   0.414  0.00  0.00    +0.073 C 
ATOM     31  C   UNL     1      -0.391  -3.300   1.884  0.00  0.00    +0.022 C 
ATOM     32  C   UNL     1      -1.302  -4.525   1.979  0.00  0.00    +0.002 C 
ATOM     33  C   UNL     1      -0.604  -5.730   1.345  0.00  0.00    +0.000 C 
ATOM     34  C   UNL     1      -0.304  -5.431  -0.125  0.00  0.00    +0.002 C 
ATOM     35  C   UNL     1       0.607  -4.205  -0.220  0.00  0.00    +0.022 C 
ENDBRANCH  28  30
ENDBRANCH   5  26
TORSDOF 5
