REMARK  Name = ZINC65301314
REMARK  9 active torsions:
REMARK  status: ('A' for Active; 'I' for Inactive)
REMARK    1  A    between atoms: C_1  and  C_2
REMARK    2  A    between atoms: C_2  and  N_3
REMARK    3  A    between atoms: N_3  and  C_4
REMARK    4  A    between atoms: C_4  and  C_5
REMARK    5  A    between atoms: C_6  and  C_8
REMARK    6  A    between atoms: C_13  and  N_14
REMARK    7  A    between atoms: C_17  and  C_20
REMARK    8  A    between atoms: N_22  and  C_23
REMARK    9  A    between atoms: C_30  and  C_33
REMARK                            x       y       z     vdW  Elec       q    Type
REMARK                         _______ _______ _______ _____ _____    ______ ____
ROOT
ATOM      1  C   UNL     1      -1.171  -0.486  -2.423  0.00  0.00    +0.074 A 
ATOM      2  C   UNL     1      -1.917  -0.005  -1.338  0.00  0.00    +0.098 A 
ATOM      3  N   UNL     1      -3.231   0.031  -1.395  0.00  0.00    -0.353 N 
ATOM      4  C   UNL     1      -3.889  -0.379  -2.459  0.00  0.00    +0.107 A 
ATOM      5  C   UNL     1      -3.245  -0.883  -3.613  0.00  0.00    +0.050 A 
ATOM      6  C   UNL     1      -1.826  -0.928  -3.581  0.00  0.00    +0.055 A 
ATOM      7  C   UNL     1      -4.148  -1.260  -4.622  0.00  0.00    +0.058 A 
ATOM      8  N   UNL     1      -5.428  -1.131  -4.449  0.00  0.00    -0.213 NA
ATOM      9  S   UNL     1      -5.602  -0.489  -2.911  0.00  0.00    +0.030 S 
ATOM     10  C   UNL     1      -3.624  -1.818  -5.921  0.00  0.00    +0.067 C 
ATOM     11  H   UNL     1      -3.728   0.367  -0.632  0.00  0.00    +0.166 HD
ENDROOT
BRANCH   6  12
ATOM     12  N   UNL     1      -1.109  -1.399  -4.661  0.00  0.00    -0.329 N 
ATOM     13  C   UNL     1      -0.890  -2.841  -4.842  0.00  0.00    +0.106 C 
ATOM     14  C   UNL     1       0.613  -3.094  -5.001  0.00  0.00    +0.031 C 
ATOM     15  C   UNL     1       1.154  -2.228  -6.141  0.00  0.00    +0.078 C 
ATOM     16  C   UNL     1       0.947  -0.750  -5.803  0.00  0.00    +0.031 C 
ATOM     17  C   UNL     1      -0.557  -0.470  -5.656  0.00  0.00    +0.106 C 
BRANCH  15  18
ATOM     18  C   UNL     1       2.625  -2.500  -6.323  0.00  0.00    +0.220 C 
ATOM     19  O   UNL     1       3.185  -3.307  -5.612  0.00  0.00    -0.275 OA
ATOM     20  N   UNL     1       3.318  -1.846  -7.276  0.00  0.00    -0.285 N 
ATOM     21  H   UNL     1       2.890  -1.147  -7.794  0.00  0.00    +0.155 HD
BRANCH  20  22
ATOM     22  C   UNL     1       4.656  -2.178  -7.520  0.00  0.00    +0.033 A 
ATOM     23  C   UNL     1       5.559  -1.192  -7.896  0.00  0.00    +0.025 A 
ATOM     24  C   UNL     1       6.879  -1.522  -8.136  0.00  0.00    +0.022 A 
ATOM     25  C   UNL     1       7.301  -2.832  -8.002  0.00  0.00    +0.041 A 
ATOM     26  C   UNL     1       6.404  -3.816  -7.627  0.00  0.00    +0.022 A 
ATOM     27  C   UNL     1       5.084  -3.491  -7.380  0.00  0.00    +0.025 A 
ATOM     28 CL   UNL     1       8.961  -3.243  -8.305  0.00  0.00    -0.084 Cl
ENDBRANCH  20  22
ENDBRANCH  15  18
ENDBRANCH   6  12
BRANCH   1  30
ATOM     29  N   UNL     1       0.993   0.623  -2.193  0.00  0.00    -0.298 N 
ATOM     30  C   UNL     1       0.298  -0.521  -2.348  0.00  0.00    +0.250 C 
ATOM     31  O   UNL     1       0.885  -1.583  -2.426  0.00  0.00    -0.270 OA
BRANCH  29  33
ATOM     32  C   UNL     1       3.012   0.498  -0.819  0.00  0.00    +0.024 C 
ATOM     33  C   UNL     1       2.457   0.603  -2.241  0.00  0.00    +0.104 C 
ENDBRANCH  29  33
BRANCH  29  34
ATOM     34  C   UNL     1       0.284   1.887  -1.978  0.00  0.00    +0.104 C 
ATOM     35  C   UNL     1      -0.006   2.546  -3.328  0.00  0.00    +0.024 C 
ENDBRANCH  29  34
ENDBRANCH   1  30
TORSDOF 6
