REMARK  Name = ZINC07800312
REMARK  7 active torsions:
REMARK  status: ('A' for Active; 'I' for Inactive)
REMARK    1  A    between atoms: C_1  and  C_2
REMARK    2  A    between atoms: C_11  and  C_13
REMARK    3  A    between atoms: C_13  and  O_14
REMARK    4  A    between atoms: O_14  and  C_15
REMARK    5  A    between atoms: C_15  and  C_17
REMARK    6  A    between atoms: C_17  and  C_18
REMARK    7  A    between atoms: C_21  and  C_23
REMARK                            x       y       z     vdW  Elec       q    Type
REMARK                         _______ _______ _______ _____ _____    ______ ____
ROOT
ATOM      1  O   UNL     1       0.553  -0.493   4.838  0.00  0.00    -0.455 OA
ENDROOT
BRANCH   1   2
ATOM      2  C   UNL     1       1.158  -0.929   5.954  0.00  0.00    +0.313 C 
ATOM      3  O   UNL     1       2.158  -1.603   5.875  0.00  0.00    -0.250 OA
BRANCH   2   4
ATOM      4  C   UNL     1       0.591  -0.578   7.305  0.00  0.00    +0.176 C 
BRANCH   4   5
ATOM      5  C   UNL     1       1.450  -1.185   8.384  0.00  0.00    +0.060 A 
ATOM      6  C   UNL     1       1.968  -0.399   9.365  0.00  0.00    +0.071 A 
ATOM      7  S   UNL     1       2.864  -1.614  10.323  0.00  0.00    -0.075 S 
ATOM      8  C   UNL     1       2.452  -3.033   9.316  0.00  0.00    +0.110 A 
ATOM      9  N   UNL     1       1.695  -2.474   8.382  0.00  0.00    -0.243 NA
BRANCH   8  10
ATOM     10  C   UNL     1       2.845  -4.449   9.483  0.00  0.00    +0.025 A 
ATOM     11  C   UNL     1       3.651  -4.841  10.557  0.00  0.00    +0.013 A 
ATOM     12  C   UNL     1       3.990  -6.178  10.668  0.00  0.00    +0.020 A 
ATOM     13  C   UNL     1       3.526  -7.075   9.723  0.00  0.00    +0.111 A 
ATOM     14  N   UNL     1       2.766  -6.677   8.721  0.00  0.00    -0.263 NA
ATOM     15  C   UNL     1       2.413  -5.416   8.575  0.00  0.00    +0.121 A 
ENDBRANCH   8  10
ENDBRANCH   4   5
ENDBRANCH   2   4
ENDBRANCH   1   2
BRANCH   1  16
ATOM     16  C   UNL     1       1.145  -0.864   3.591  0.00  0.00    +0.328 C 
BRANCH  16  27
ATOM     17  C   UNL     1      -0.019   1.526   0.010  0.00  0.00    +0.029 C 
ATOM     18  C   UNL     1       0.002  -0.004   0.002  0.00  0.00    +0.083 C 
ATOM     19  C   UNL     1       0.809  -0.520  -1.201  0.00  0.00    +0.059 C 
ATOM     20  C   UNL     1       1.947  -1.304  -0.588  0.00  0.00    -0.024 A 
ATOM     21  C   UNL     1       2.991  -1.995  -1.174  0.00  0.00    +0.005 A 
ATOM     22  C   UNL     1       3.923  -2.644  -0.386  0.00  0.00    +0.000 A 
ATOM     23  C   UNL     1       3.809  -2.600   0.992  0.00  0.00    +0.002 A 
ATOM     24  C   UNL     1       2.770  -1.913   1.581  0.00  0.00    +0.024 A 
ATOM     25  C   UNL     1       1.824  -1.254   0.792  0.00  0.00    +0.040 A 
ATOM     26  N   UNL     1       0.707  -0.509   1.183  0.00  0.00    -0.265 N 
ATOM     27  C   UNL     1       0.335  -0.288   2.459  0.00  0.00    +0.258 C 
ATOM     28  O   UNL     1      -0.653   0.374   2.696  0.00  0.00    -0.272 OA
ENDBRANCH  16  27
ENDBRANCH   1  16
TORSDOF 6
