REMARK  Name = ZINC59464881
REMARK  14 active torsions:
REMARK  status: ('A' for Active; 'I' for Inactive)
REMARK    1  A    between atoms: C_1  and  C_2
REMARK    2  A    between atoms: C_2  and  O_3
REMARK    3  A    between atoms: O_3  and  C_4
REMARK    4  A    between atoms: C_4  and  C_6
REMARK    5  A    between atoms: C_6  and  C_8
REMARK    6  A    between atoms: C_6  and  C_10
REMARK    7  A    between atoms: C_10  and  C_11
REMARK    8  A    between atoms: C_10  and  C_20
REMARK    9  A    between atoms: C_15  and  N_17
REMARK   10  A    between atoms: C_20  and  C_22
REMARK   11  A    between atoms: C_20  and  C_24
REMARK   12  A    between atoms: C_24  and  O_26
REMARK   13  A    between atoms: O_26  and  C_27
REMARK   14  A    between atoms: C_27  and  C_28
REMARK                            x       y       z     vdW  Elec       q    Type
REMARK                         _______ _______ _______ _____ _____    ______ ____
ROOT
ATOM      1  C   UNL     1       1.348  -3.873  -2.414  0.00  0.00    +0.074 C 
ENDROOT
BRANCH   1   2
ATOM      2  C   UNL     1       2.224  -4.324  -3.555  0.00  0.00    -0.039 A 
ATOM      3  C   UNL     1       3.535  -3.892  -3.633  0.00  0.00    +0.004 A 
ATOM      4  C   UNL     1       4.338  -4.306  -4.679  0.00  0.00    +0.002 A 
ATOM      5  C   UNL     1       3.830  -5.152  -5.647  0.00  0.00    +0.033 A 
ATOM      6  C   UNL     1       2.520  -5.585  -5.568  0.00  0.00    +0.126 A 
ATOM      7  C   UNL     1       1.718  -5.174  -4.520  0.00  0.00    +0.036 A 
BRANCH   6   8
ATOM      8  N   UNL     1       1.977  -6.491  -6.605  0.00  0.00    +0.056 N 
ATOM      9  O   UNL     1       2.679  -6.852  -7.521  0.00  0.00    -0.126 OA
ATOM     10  O   UNL     1       0.831  -6.870  -6.537  0.00  0.00    -0.126 OA
ENDBRANCH   6   8
ENDBRANCH   1   2
BRANCH   1  11
ATOM     11  C   UNL     1       1.228  -2.348  -2.436  0.00  0.00    +0.209 C 
BRANCH  11  12
ATOM     12  C   UNL     1       0.674  -1.906  -3.766  0.00  0.00    +0.325 C 
ATOM     13  O   UNL     1       0.344  -2.729  -4.586  0.00  0.00    -0.249 OA
BRANCH  12  14
ATOM     14  O   UNL     1       0.548  -0.598  -4.039  0.00  0.00    -0.464 OA
BRANCH  14  16
ATOM     15  C   UNL     1      -0.053   1.272  -5.447  0.00  0.00    +0.048 C 
ATOM     16  C   UNL     1       0.016  -0.251  -5.319  0.00  0.00    +0.229 C 
ENDBRANCH  14  16
ENDBRANCH  12  14
ENDBRANCH  11  12
BRANCH  11  17
ATOM     17  C   UNL     1       2.558  -1.748  -2.234  0.00  0.00    +0.078 C 
ATOM     18  N   UNL     1       3.583  -1.286  -2.079  0.00  0.00    -0.196 NA
ENDBRANCH  11  17
ENDBRANCH   1  11
BRANCH   1  19
ATOM     19  C   UNL     1       1.969  -4.317  -1.088  0.00  0.00    +0.209 C 
BRANCH  19  20
ATOM     20  C   UNL     1       1.187  -3.763   0.029  0.00  0.00    +0.078 C 
ATOM     21  N   UNL     1       0.583  -3.336   0.892  0.00  0.00    -0.196 NA
ENDBRANCH  19  20
BRANCH  19  22
ATOM     22  C   UNL     1       1.962  -5.822  -1.009  0.00  0.00    +0.325 C 
ATOM     23  O   UNL     1       1.507  -6.472  -1.920  0.00  0.00    -0.249 OA
BRANCH  22  24
ATOM     24  O   UNL     1       2.460  -6.440   0.073  0.00  0.00    -0.464 OA
BRANCH  24  25
ATOM     25  C   UNL     1       2.421  -7.868   0.080  0.00  0.00    +0.229 C 
ATOM     26  C   UNL     1       3.029  -8.388   1.384  0.00  0.00    +0.048 C 
ENDBRANCH  24  25
ENDBRANCH  22  24
ENDBRANCH  19  22
ENDBRANCH   1  19
TORSDOF 12
