REMARK  Name = ZINC12462788
REMARK  7 active torsions:
REMARK  status: ('A' for Active; 'I' for Inactive)
REMARK    1  A    between atoms: C_1  and  C_2
REMARK    2  A    between atoms: C_6  and  N_8
REMARK    3  A    between atoms: C_14  and  C_16
REMARK    4  A    between atoms: C_14  and  C_17
REMARK    5  A    between atoms: N_25  and  C_28
REMARK    6  A    between atoms: C_29  and  C_32
REMARK    7  A    between atoms: C_30  and  N_31
REMARK                            x       y       z     vdW  Elec       q    Type
REMARK                         _______ _______ _______ _____ _____    ______ ____
ROOT
ATOM      1  N   UNL     1       0.001   5.196  -0.188  0.00  0.00    -0.260 N 
ATOM      2  C   UNL     1      -1.231   5.788  -0.284  0.00  0.00    +0.026 C 
ATOM      3  C   UNL     1      -1.341   7.123  -0.457  0.00  0.00    +0.037 C 
ATOM      4  C   UNL     1      -2.601   7.740  -0.546  0.00  0.00    +0.163 C 
ATOM      5  O   UNL     1      -2.666   8.942  -0.716  0.00  0.00    -0.292 OA
ATOM      6  C   UNL     1      -3.871   6.942  -0.434  0.00  0.00    +0.086 C 
ATOM      7  C   UNL     1      -3.608   5.704   0.430  0.00  0.00    -0.023 C 
ATOM      8  C   UNL     1      -2.457   4.913  -0.195  0.00  0.00    +0.058 C 
ATOM      9  C   UNL     1      -3.226   6.138   1.847  0.00  0.00    +0.011 C 
ATOM     10  C   UNL     1      -4.865   4.833   0.476  0.00  0.00    +0.011 C 
ATOM     11  C   UNL     1      -0.114   7.990  -0.560  0.00  0.00    +0.141 C 
ATOM     12  C   UNL     1       0.101   8.434  -1.975  0.00  0.00    -0.001 A 
ATOM     13  C   UNL     1       0.352   7.720  -3.127  0.00  0.00    +0.007 A 
ATOM     14  C   UNL     1       0.506   8.450  -4.300  0.00  0.00    +0.000 A 
ATOM     15  C   UNL     1       0.410   9.827  -4.308  0.00  0.00    +0.002 A 
ATOM     16  C   UNL     1       0.158  10.551  -3.154  0.00  0.00    +0.024 A 
ATOM     17  C   UNL     1       0.003   9.830  -1.968  0.00  0.00    +0.041 A 
ATOM     18  N   UNL     1      -0.253  10.289  -0.689  0.00  0.00    -0.273 N 
ATOM     19  C   UNL     1      -0.339   9.280   0.203  0.00  0.00    +0.240 C 
ATOM     20  O   UNL     1      -0.556   9.386   1.391  0.00  0.00    -0.274 OA
ATOM     21  C   UNL     1      -0.411  11.703  -0.342  0.00  0.00    +0.138 C 
ATOM     22  C   UNL     1       1.101   7.289  -0.030  0.00  0.00    +0.089 C 
ATOM     23  C   UNL     1       1.114   5.939   0.136  0.00  0.00    +0.108 C 
ENDROOT
BRANCH   1  29
ATOM     24  C   UNL     1       0.668   1.468  -3.324  0.00  0.00    +0.044 C 
ATOM     25  C   UNL     1       0.452   1.987  -1.926  0.00  0.00    -0.049 A 
ATOM     26  C   UNL     1       0.381   1.102  -0.865  0.00  0.00    +0.003 A 
ATOM     27  C   UNL     1       0.177   1.573   0.419  0.00  0.00    +0.002 A 
ATOM     28  C   UNL     1       0.056   2.930   0.648  0.00  0.00    +0.024 A 
ATOM     29  C   UNL     1       0.128   3.821  -0.415  0.00  0.00    +0.040 A 
ATOM     30  C   UNL     1       0.327   3.344  -1.705  0.00  0.00    +0.027 A 
ENDBRANCH   1  29
BRANCH  23  31
ATOM     31  N   UNL     1       2.238   5.315   0.622  0.00  0.00    -0.345 N 
ATOM     32  H   UNL     1       2.217   4.366   0.824  0.00  0.00    +0.144 HD
ATOM     33  H   UNL     1       3.052   5.823   0.763  0.00  0.00    +0.144 HD
ENDBRANCH  23  31
BRANCH  22  34
ATOM     34  C   UNL     1       2.264   8.053   0.310  0.00  0.00    +0.100 C 
ATOM     35  N   UNL     1       3.186   8.658   0.581  0.00  0.00    -0.191 NA
ENDBRANCH  22  34
TORSDOF 3
