REMARK  Name = ZINC66586627
REMARK  3 active torsions:
REMARK  status: ('A' for Active; 'I' for Inactive)
REMARK    1  A    between atoms: C_1  and  C_2
REMARK    2  A    between atoms: C_2  and  C_3
REMARK    3  A    between atoms: C_6  and  C_8
REMARK                            x       y       z     vdW  Elec       q    Type
REMARK                         _______ _______ _______ _____ _____    ______ ____
ROOT
ATOM      1  C   UNL     1      -5.223  -1.938   1.027  0.00  0.00    +0.196 C 
ATOM      2  N   UNL     1      -5.016  -2.597   2.323  0.00  0.00    -0.321 N 
ATOM      3  C   UNL     1      -4.468  -3.875   2.337  0.00  0.00    +0.041 A 
ATOM      4  C   UNL     1      -3.700  -4.330   3.395  0.00  0.00    +0.025 A 
ATOM      5  C   UNL     1      -3.175  -5.608   3.359  0.00  0.00    +0.022 A 
ATOM      6  C   UNL     1      -3.411  -6.436   2.271  0.00  0.00    +0.042 A 
ATOM      7  C   UNL     1      -4.175  -5.997   1.209  0.00  0.00    +0.035 A 
ATOM      8  C   UNL     1      -4.712  -4.712   1.234  0.00  0.00    +0.059 A 
ATOM      9  C   UNL     1      -5.542  -4.196   0.131  0.00  0.00    +0.247 C 
ATOM     10  O   UNL     1      -5.982  -4.952  -0.713  0.00  0.00    -0.270 OA
ATOM     11  N   UNL     1      -5.806  -2.878   0.071  0.00  0.00    -0.289 N 
ATOM     12 CL   UNL     1      -2.739  -8.037   2.246  0.00  0.00    -0.084 Cl
ATOM     13  H   UNL     1      -5.257  -2.151   3.150  0.00  0.00    +0.148 HD
ATOM     14  H   UNL     1      -6.396  -2.546  -0.624  0.00  0.00    +0.151 HD
ENDROOT
BRANCH   1  18
ATOM     15  C   UNL     1      -1.412  -0.526   0.013  0.00  0.00    -0.010 A 
ATOM     16  C   UNL     1      -2.221  -0.821  -1.034  0.00  0.00    +0.011 A 
ATOM     17  C   UNL     1      -3.495  -1.293  -0.784  0.00  0.00    +0.015 A 
ATOM     18  C   UNL     1      -3.899  -1.446   0.501  0.00  0.00    +0.028 A 
ATOM     19  S   UNL     1      -2.453  -0.923   1.407  0.00  0.00    -0.095 S 
BRANCH  15  21
ATOM     20  C   UNL     1      -0.019   1.526   0.010  0.00  0.00    +0.009 C 
ATOM     21  C   UNL     1       0.002  -0.004   0.002  0.00  0.00    +0.039 C 
ENDBRANCH  15  21
ENDBRANCH   1  18
TORSDOF 2
