REMARK  Name = ZINC59157068
REMARK  9 active torsions:
REMARK  status: ('A' for Active; 'I' for Inactive)
REMARK    1  A    between atoms: C_1  and  C_2
REMARK    2  A    between atoms: C_4  and  C_25
REMARK    3  A    between atoms: C_5  and  O_9
REMARK    4  A    between atoms: C_6  and  C_8
REMARK    5  A    between atoms: O_9  and  C_10
REMARK    6  A    between atoms: C_10  and  C_11
REMARK    7  A    between atoms: N_13  and  N_14
REMARK    8  A    between atoms: C_15  and  C_16
REMARK    9  A    between atoms: C_21  and  O_22
REMARK                            x       y       z     vdW  Elec       q    Type
REMARK                         _______ _______ _______ _____ _____    ______ ____
ROOT
ATOM      1  C   UNL     1       1.160  -6.258  -0.038  0.00  0.00    +0.270 C 
ATOM      2  O   UNL     1       0.045  -6.736  -0.035  0.00  0.00    -0.270 OA
ATOM      3  N   UNL     1       2.239  -7.065  -0.048  0.00  0.00    -0.204 N 
ATOM      4  H   UNL     1       3.131  -6.683  -0.051  0.00  0.00    +0.177 HD
ENDROOT
BRANCH   3   5
ATOM      5  N   UNL     1       2.074  -8.456  -0.055  0.00  0.00    -0.188 NA
ATOM      6  C   UNL     1       3.113  -9.233  -0.064  0.00  0.00    +0.142 C 
BRANCH   6   7
ATOM      7  C   UNL     1       2.939 -10.697  -0.071  0.00  0.00    +0.039 A 
ATOM      8  C   UNL     1       4.055 -11.537  -0.076  0.00  0.00    +0.033 A 
ATOM      9  C   UNL     1       3.885 -12.906  -0.083  0.00  0.00    +0.043 A 
ATOM     10  C   UNL     1       2.612 -13.452  -0.085  0.00  0.00    +0.043 A 
ATOM     11  C   UNL     1       1.500 -12.631  -0.081  0.00  0.00    +0.084 A 
ATOM     12  C   UNL     1       1.653 -11.253  -0.068  0.00  0.00    +0.144 A 
ATOM     13 CL   UNL     1      -0.091 -13.326  -0.085  0.00  0.00    -0.080 Cl
ATOM     14 CL   UNL     1       5.273 -13.949  -0.088  0.00  0.00    -0.083 Cl
BRANCH  12  15
ATOM     15  O   UNL     1       0.561 -10.445  -0.057  0.00  0.00    -0.505 OA
ATOM     16  H   UNL     1       0.240 -10.206  -0.938  0.00  0.00    +0.292 HD
ENDBRANCH  12  15
ENDBRANCH   6   7
ENDBRANCH   3   5
BRANCH   1  17
ATOM     17  C   UNL     1       1.338  -4.761  -0.031  0.00  0.00    +0.326 C 
BRANCH  17  18
ATOM     18  O   UNL     1       0.057  -4.129  -0.021  0.00  0.00    -0.482 OA
BRANCH  18  23
ATOM     19  C   UNL     1      -0.018   1.503   0.010  0.00  0.00    +0.044 C 
ATOM     20  C   UNL     1       0.002  -0.004   0.002  0.00  0.00    -0.050 A 
ATOM     21  C   UNL     1       0.006  -0.688  -1.200  0.00  0.00    +0.010 A 
ATOM     22  C   UNL     1       0.024  -2.069  -1.210  0.00  0.00    -0.008 A 
ATOM     23  C   UNL     1       0.039  -2.770  -0.013  0.00  0.00    +0.127 A 
ATOM     24  C   UNL     1       0.036  -2.082   1.191  0.00  0.00    -0.008 A 
ATOM     25  C   UNL     1       0.023  -0.701   1.196  0.00  0.00    +0.010 A 
ATOM     26  C   UNL     1       0.052  -2.841   2.493  0.00  0.00    +0.047 C 
ATOM     27  C   UNL     1       0.027  -2.813  -2.520  0.00  0.00    +0.047 C 
ENDBRANCH  18  23
ENDBRANCH  17  18
ENDBRANCH   1  17
TORSDOF 6
