REMARK  Name = ZINC14660462
REMARK  13 active torsions:
REMARK  status: ('A' for Active; 'I' for Inactive)
REMARK    1  A    between atoms: C_1  and  C_2
REMARK    2  A    between atoms: C_2  and  C_3
REMARK    3  A    between atoms: C_2  and  O_4
REMARK    4  A    between atoms: O_4  and  C_5
REMARK    5  A    between atoms: C_8  and  C_12
REMARK    6  A    between atoms: N_14  and  C_15
REMARK    7  A    between atoms: C_15  and  N_17
REMARK    8  A    between atoms: N_17  and  N_18
REMARK    9  A    between atoms: C_19  and  C_21
REMARK   10  A    between atoms: C_24  and  O_29
REMARK   11  A    between atoms: C_25  and  O_27
REMARK   12  A    between atoms: O_27  and  C_28
REMARK   13  A    between atoms: O_29  and  C_30
REMARK                            x       y       z     vdW  Elec       q    Type
REMARK                         _______ _______ _______ _____ _____    ______ ____
ROOT
ATOM      1  C   UNL     1      -0.011  -6.281  -1.105  0.00  0.00    +0.153 C 
ATOM      2  S   UNL     1       1.550  -6.847  -1.520  0.00  0.00    -0.017 S 
ENDROOT
BRANCH   1   5
ATOM      3  C   UNL     1       0.817  -4.103  -0.963  0.00  0.00    +0.250 C 
ATOM      4  O   UNL     1       1.925  -4.505  -1.258  0.00  0.00    -0.270 OA
ATOM      5  N   UNL     1      -0.212  -4.969  -0.871  0.00  0.00    -0.263 N 
ATOM      6  H   UNL     1      -1.097  -4.648  -0.635  0.00  0.00    +0.157 HD
BRANCH   3  10
ATOM      7  C   UNL     1       0.185   0.032  -0.226  0.00  0.00    +0.135 A 
ATOM      8  C   UNL     1       1.453  -0.427  -0.563  0.00  0.00    +0.047 A 
ATOM      9  C   UNL     1       1.662  -1.766  -0.803  0.00  0.00    +0.017 A 
ATOM     10  C   UNL     1       0.597  -2.666  -0.707  0.00  0.00    +0.038 A 
ATOM     11  C   UNL     1      -0.677  -2.202  -0.368  0.00  0.00    +0.032 A 
ATOM     12  C   UNL     1      -0.877  -0.861  -0.124  0.00  0.00    +0.060 A 
ATOM     13 BR   UNL     1      -2.598  -0.232   0.343  0.00  0.00    -0.046 Br
BRANCH   7  14
ATOM     14  O   UNL     1      -0.016   1.353   0.009  0.00  0.00    -0.488 OA
BRANCH  14  16
ATOM     15  C   UNL     1       1.462   2.618  -1.424  0.00  0.00    +0.051 C 
ATOM     16  C   UNL     1       1.138   2.195   0.011  0.00  0.00    +0.167 C 
ATOM     17  C   UNL     1       0.862   3.438   0.859  0.00  0.00    +0.051 C 
ENDBRANCH  14  16
ENDBRANCH   7  14
ENDBRANCH   3  10
ENDBRANCH   1   5
BRANCH   1  18
ATOM     18  N   UNL     1      -1.040  -7.147  -1.012  0.00  0.00    -0.245 N 
ATOM     19  H   UNL     1      -0.895  -8.091  -1.180  0.00  0.00    +0.172 HD
BRANCH  18  20
ATOM     20  N   UNL     1      -2.317  -6.683  -0.672  0.00  0.00    -0.231 N 
ATOM     21  C   UNL     1      -3.346  -7.549  -0.579  0.00  0.00    +0.260 C 
ATOM     22  O   UNL     1      -3.165  -8.733  -0.790  0.00  0.00    -0.269 OA
ATOM     23  H   UNL     1      -2.462  -5.739  -0.503  0.00  0.00    +0.173 HD
BRANCH  21  24
ATOM     24  C   UNL     1      -4.692  -7.061  -0.221  0.00  0.00    +0.042 A 
ATOM     25  C   UNL     1      -4.900  -5.702   0.028  0.00  0.00    +0.017 A 
ATOM     26  C   UNL     1      -6.159  -5.247   0.357  0.00  0.00    +0.050 A 
ATOM     27  C   UNL     1      -7.219  -6.138   0.453  0.00  0.00    +0.162 A 
ATOM     28  C   UNL     1      -7.017  -7.496   0.212  0.00  0.00    +0.162 A 
ATOM     29  C   UNL     1      -5.759  -7.958  -0.124  0.00  0.00    +0.062 A 
BRANCH  28  30
ATOM     30  O   UNL     1      -8.058  -8.366   0.306  0.00  0.00    -0.491 OA
ATOM     31  C   UNL     1      -7.779  -9.743   0.045  0.00  0.00    +0.277 C 
ENDBRANCH  28  30
BRANCH  27  32
ATOM     32  O   UNL     1      -8.456  -5.685   0.783  0.00  0.00    -0.491 OA
ATOM     33  C   UNL     1      -8.593  -4.282   1.017  0.00  0.00    +0.277 C 
ENDBRANCH  27  32
ENDBRANCH  21  24
ENDBRANCH  18  20
ENDBRANCH   1  18
TORSDOF 9
