REMARK  Name = ZINC52903553
REMARK  1 active torsions:
REMARK  status: ('A' for Active; 'I' for Inactive)
REMARK    1  A    between atoms: C_4  and  C_8
REMARK                            x       y       z     vdW  Elec       q    Type
REMARK                         _______ _______ _______ _____ _____    ______ ____
ROOT
ATOM      1  C   UNL     1       3.699  -0.690  -0.038  0.00  0.00    +0.167 A 
ATOM      2  N   UNL     1       4.832   0.006  -0.041  0.00  0.00    -0.212 NA
ATOM      3  C   UNL     1       6.016  -0.582  -0.056  0.00  0.00    +0.129 A 
ATOM      4  C   UNL     1       6.084  -2.003  -0.071  0.00  0.00    +0.051 A 
ATOM      5  C   UNL     1       7.280  -2.860  -0.090  0.00  0.00    -0.025 A 
ATOM      6  C   UNL     1       7.077  -4.187  -0.101  0.00  0.00    -0.004 A 
ATOM      7  S   UNL     1       5.309  -4.385  -0.085  0.00  0.00    -0.073 S 
ATOM      8  C   UNL     1       4.847  -2.674  -0.066  0.00  0.00    +0.114 A 
ATOM      9  N   UNL     1       3.704  -2.017  -0.045  0.00  0.00    -0.220 NA
ATOM     10  C   UNL     1       8.368  -4.960  -0.126  0.00  0.00    +0.043 C 
ATOM     11  C   UNL     1       9.430  -3.928  -0.563  0.00  0.00    +0.010 C 
ATOM     12  C   UNL     1       8.790  -2.605  -0.097  0.00  0.00    +0.037 C 
ATOM     13  N   UNL     1       7.174   0.175  -0.059  0.00  0.00    -0.343 N 
ATOM     14  H   UNL     1       7.121   1.144  -0.049  0.00  0.00    +0.144 HD
ATOM     15  H   UNL     1       8.040  -0.263  -0.071  0.00  0.00    +0.144 HD
ENDROOT
BRANCH   1  19
ATOM     16  C   UNL     1      -0.017   1.379   0.010  0.00  0.00    +0.004 A 
ATOM     17  C   UNL     1       1.168   2.093   0.002  0.00  0.00    +0.039 A 
ATOM     18  C   UNL     1       2.379   1.427  -0.013  0.00  0.00    +0.135 A 
ATOM     19  C   UNL     1       2.405   0.031  -0.021  0.00  0.00    +0.073 A 
ATOM     20  C   UNL     1       1.206  -0.682  -0.013  0.00  0.00    +0.054 A 
ATOM     21  C   UNL     1       0.002  -0.004   0.002  0.00  0.00    +0.021 A 
ATOM     22 CL   UNL     1       1.226  -2.418  -0.023  0.00  0.00    -0.083 Cl
ATOM     23  F   UNL     1       3.536   2.126  -0.022  0.00  0.00    -0.205 F 
ENDBRANCH   1  19
TORSDOF 1
