REMARK  Name = ZINC38621662
REMARK  7 active torsions:
REMARK  status: ('A' for Active; 'I' for Inactive)
REMARK    1  A    between atoms: C_1  and  C_2
REMARK    2  A    between atoms: C_3  and  S_9
REMARK    3  A    between atoms: S_9  and  N_12
REMARK    4  A    between atoms: N_12  and  C_13
REMARK    5  A    between atoms: C_13  and  C_14
REMARK    6  A    between atoms: C_14  and  C_16
REMARK    7  A    between atoms: C_14  and  N_26
REMARK                            x       y       z     vdW  Elec       q    Type
REMARK                         _______ _______ _______ _____ _____    ______ ____
ROOT
ATOM      1  C   UNL     1      -2.857   3.064  -1.533  0.00  0.00    -0.021 C 
ENDROOT
BRANCH   1   2
ATOM      2  C   UNL     1      -2.517   4.285  -0.717  0.00  0.00    -0.052 A 
ATOM      3  C   UNL     1      -1.933   5.363  -1.309  0.00  0.00    +0.002 A 
ATOM      4  C   UNL     1      -1.611   6.500  -0.571  0.00  0.00    +0.001 A 
ATOM      5  C   UNL     1      -1.871   6.566   0.764  0.00  0.00    +0.008 A 
ATOM      6  C   UNL     1      -2.474   5.473   1.410  0.00  0.00    -0.018 A 
ATOM      7  C   UNL     1      -2.806   4.319   0.657  0.00  0.00    -0.016 A 
ATOM      8  C   UNL     1      -3.414   3.228   1.302  0.00  0.00    +0.009 A 
ATOM      9  C   UNL     1      -3.680   3.296   2.635  0.00  0.00    +0.001 A 
ATOM     10  C   UNL     1      -3.359   4.434   3.374  0.00  0.00    +0.001 A 
ATOM     11  C   UNL     1      -2.757   5.504   2.786  0.00  0.00    +0.008 A 
ENDBRANCH   1   2
BRANCH   1  12
ATOM     12  N   UNL     1      -2.913   3.427  -2.955  0.00  0.00    +0.385 N 
ATOM     13  C   UNL     1      -3.224   2.229  -3.777  0.00  0.00    -0.078 C 
ATOM     14  C   UNL     1      -3.793   2.834  -5.085  0.00  0.00    -0.020 C 
ATOM     15  C   UNL     1      -4.609   4.045  -4.579  0.00  0.00    -0.020 C 
ATOM     16  C   UNL     1      -4.019   4.379  -3.196  0.00  0.00    -0.078 C 
ATOM     17  H   UNL     1      -2.036   3.831  -3.247  0.00  0.00    -0.081 HD
ENDBRANCH   1  12
BRANCH   1  18
ATOM     18  C   UNL     1      -1.784   1.994  -1.321  0.00  0.00    +0.095 C 
BRANCH  18  19
ATOM     19  N   UNL     1      -0.498   2.487  -1.822  0.00  0.00    -0.191 NA
ATOM     20  H   UNL     1      -0.469   3.261  -2.405  0.00  0.00    +0.148 HD
BRANCH  19  21
ATOM     21  S   UNL     1       0.906   1.721  -1.391  0.00  0.00    +0.059 S 
ATOM     22  O   UNL     1       0.866   1.564   0.021  0.00  0.00    -0.153 OA
ATOM     23  O   UNL     1       1.962   2.406  -2.051  0.00  0.00    -0.153 OA
BRANCH  21  26
ATOM     24  C   UNL     1       0.826   1.139  -4.358  0.00  0.00    +0.047 C 
ATOM     25  C   UNL     1       0.815  -0.066  -3.452  0.00  0.00    -0.006 A 
ATOM     26  C   UNL     1       0.849   0.101  -2.080  0.00  0.00    +0.110 A 
ATOM     27  C   UNL     1       0.839  -1.004  -1.249  0.00  0.00    +0.029 A 
ATOM     28  C   UNL     1       0.794  -2.276  -1.790  0.00  0.00    +0.003 A 
ATOM     29  C   UNL     1       0.760  -2.443  -3.161  0.00  0.00    +0.020 A 
ATOM     30  C   UNL     1       0.764  -1.338  -3.993  0.00  0.00    +0.046 A 
ATOM     31 CL   UNL     1       0.715  -1.548  -5.716  0.00  0.00    -0.083 Cl
ENDBRANCH  21  26
ENDBRANCH  19  21
ENDBRANCH  18  19
ENDBRANCH   1  18
TORSDOF 6
