REMARK  Name = ZINC35464969
REMARK  20 active torsions:
REMARK  status: ('A' for Active; 'I' for Inactive)
REMARK    1  A    between atoms: C_1  and  C_2
REMARK    2  A    between atoms: C_2  and  C_3
REMARK    3  A    between atoms: C_3  and  C_5
REMARK    4  A    between atoms: C_3  and  C_6
REMARK    5  A    between atoms: C_6  and  O_8
REMARK    6  A    between atoms: O_8  and  C_9
REMARK    7  A    between atoms: C_14  and  C_40
REMARK    8  A    between atoms: C_14  and  C_41
REMARK    9  A    between atoms: C_15  and  C_39
REMARK   10  A    between atoms: C_17  and  O_38
REMARK   11  A    between atoms: C_19  and  O_37
REMARK   12  A    between atoms: C_22  and  O_33
REMARK   13  A    between atoms: C_25  and  O_29
REMARK   14  A    between atoms: O_29  and  C_30
REMARK   15  A    between atoms: C_30  and  C_32
REMARK   16  A    between atoms: O_33  and  C_34
REMARK   17  A    between atoms: C_34  and  C_36
REMARK   18  A    between atoms: C_41  and  C_42
REMARK   19  A    between atoms: C_42  and  C_43
REMARK   20  A    between atoms: C_43  and  C_45
REMARK                            x       y       z     vdW  Elec       q    Type
REMARK                         _______ _______ _______ _____ _____    ______ ____
ROOT
ATOM      1  C   UNL     1       1.547  -4.235  -3.727  0.00  0.00    +0.200 C 
ATOM      2  C   UNL     1       1.228  -5.084  -4.970  0.00  0.00    +0.054 C 
ATOM      3  C   UNL     1       0.603  -6.411  -4.552  0.00  0.00    +0.018 C 
ATOM      4  C   UNL     1      -0.897  -6.394  -4.645  0.00  0.00    -0.023 C 
ATOM      5  C   UNL     1      -1.598  -7.239  -3.590  0.00  0.00    +0.023 C 
ATOM      6  C   UNL     1      -1.032  -6.943  -2.208  0.00  0.00    +0.147 C 
ATOM      7  C   UNL     1       0.431  -7.331  -2.135  0.00  0.00    +0.160 C 
ATOM      8  C   UNL     1       1.266  -7.021  -3.355  0.00  0.00    +0.092 C 
ATOM      9  C   UNL     1       1.949  -8.366  -3.774  0.00  0.00    +0.327 C 
ATOM     10  O   UNL     1       2.890  -8.578  -2.698  0.00  0.00    -0.297 OA
ATOM     11  C   UNL     1       3.450  -7.290  -2.375  0.00  0.00    +0.343 C 
ATOM     12  C   UNL     1       2.509  -6.249  -2.928  0.00  0.00    +0.012 C 
ATOM     13  C   UNL     1       2.697  -4.966  -3.049  0.00  0.00    +0.023 C 
ATOM     14  C   UNL     1      -3.101  -6.931  -3.615  0.00  0.00    +0.011 C 
ATOM     15  C   UNL     1      -1.475  -4.984  -4.602  0.00  0.00    +0.012 C 
ENDROOT
BRANCH   7  16
ATOM     16  O   UNL     1       0.999  -6.647  -1.006  0.00  0.00    -0.388 OA
ATOM     17  H   UNL     1       0.583  -6.869  -0.162  0.00  0.00    +0.210 HD
ENDBRANCH   7  16
BRANCH   6  18
ATOM     18  O   UNL     1      -1.200  -5.577  -1.834  0.00  0.00    -0.389 OA
ATOM     19  H   UNL     1      -0.848  -5.363  -0.959  0.00  0.00    +0.210 HD
ENDBRANCH   6  18
BRANCH   1  20
ATOM     20  O   UNL     1       1.958  -2.924  -4.115  0.00  0.00    -0.457 OA
BRANCH  20  21
ATOM     21  C   UNL     1       1.754  -1.934  -3.232  0.00  0.00    +0.310 C 
ATOM     22  O   UNL     1       1.243  -2.174  -2.163  0.00  0.00    -0.251 OA
BRANCH  21  23
ATOM     23  C   UNL     1       2.162  -0.524  -3.572  0.00  0.00    +0.094 C 
ATOM     24  C   UNL     1       3.668  -0.478  -3.836  0.00  0.00    +0.019 C 
BRANCH  23  26
ATOM     25  C   UNL     1       2.119   1.850  -2.795  0.00  0.00    +0.004 C 
ATOM     26  C   UNL     1       1.821   0.402  -2.403  0.00  0.00    +0.011 C 
ENDBRANCH  23  26
ENDBRANCH  21  23
ENDBRANCH  20  21
ENDBRANCH   1  20
BRANCH  11  27
ATOM     27  O   UNL     1       3.595  -7.145  -0.963  0.00  0.00    -0.431 OA
BRANCH  27  28
ATOM     28  C   UNL     1       4.557  -7.870  -0.371  0.00  0.00    +0.306 C 
ATOM     29  O   UNL     1       5.253  -8.604  -1.032  0.00  0.00    -0.251 OA
ATOM     30  C   UNL     1       4.769  -7.768   1.118  0.00  0.00    +0.136 C 
ENDBRANCH  27  28
ENDBRANCH  11  27
BRANCH   9  31
ATOM     31  O   UNL     1       1.002  -9.426  -3.850  0.00  0.00    -0.434 OA
BRANCH  31  32
ATOM     32  C   UNL     1       1.448 -10.610  -4.301  0.00  0.00    +0.306 C 
ATOM     33  O   UNL     1       2.606 -10.737  -4.620  0.00  0.00    -0.251 OA
ATOM     34  C   UNL     1       0.503 -11.779  -4.409  0.00  0.00    +0.136 C 
ENDBRANCH  31  32
ENDBRANCH   9  31
BRANCH   4  35
ATOM     35  C   UNL     1      -1.275  -7.000  -6.013  0.00  0.00    +0.012 C 
BRANCH  35  36
ATOM     36  C   UNL     1      -0.720  -6.117  -7.133  0.00  0.00    +0.035 C 
BRANCH  36  37
ATOM     37  C   UNL     1      -1.112  -6.693  -8.469  0.00  0.00    -0.055 C 
ATOM     38  C   UNL     1      -2.200  -6.250  -9.090  0.00  0.00    +0.012 C 
BRANCH  37  39
ATOM     39  C   UNL     1      -0.291  -7.747  -9.085  0.00  0.00    -0.005 C 
ATOM     40  C   UNL     1       0.797  -8.190  -8.464  0.00  0.00    +0.009 C 
ENDBRANCH  37  39
ENDBRANCH  36  37
ENDBRANCH  35  36
ENDBRANCH   4  35
TORSDOF 14
