REMARK  Name = ZINC14473672
REMARK  7 active torsions:
REMARK  status: ('A' for Active; 'I' for Inactive)
REMARK    1  A    between atoms: C_1  and  C_2
REMARK    2  A    between atoms: C_5  and  N_9
REMARK    3  A    between atoms: C_7  and  C_8
REMARK    4  A    between atoms: N_9  and  S_10
REMARK    5  A    between atoms: S_10  and  C_13
REMARK    6  A    between atoms: C_26  and  C_29
REMARK    7  A    between atoms: C_34  and  O_35
REMARK                            x       y       z     vdW  Elec       q    Type
REMARK                         _______ _______ _______ _____ _____    ______ ____
ROOT
ATOM      1  C   UNL     1      -3.344   5.374   2.341  0.00  0.00    +0.109 A 
ATOM      2  C   UNL     1      -2.201   6.137   2.496  0.00  0.00    +0.030 A 
ATOM      3  C   UNL     1      -1.955   7.186   1.634  0.00  0.00    +0.025 A 
ATOM      4  C   UNL     1      -2.858   7.479   0.619  0.00  0.00    +0.031 A 
ATOM      5  C   UNL     1      -4.008   6.720   0.463  0.00  0.00    -0.018 A 
ATOM      6  C   UNL     1      -4.242   5.665   1.334  0.00  0.00    +0.034 A 
ATOM      7  C   UNL     1      -5.009   6.996  -0.614  0.00  0.00    +0.049 C 
ATOM      8  C   UNL     1      -4.912   5.983  -1.729  0.00  0.00    -0.023 C 
ATOM      9  C   UNL     1      -5.137   6.557  -2.886  0.00  0.00    -0.030 C 
ATOM     10  C   UNL     1      -5.420   8.035  -2.698  0.00  0.00    +0.033 C 
ATOM     11  C   UNL     1      -4.783   8.351  -1.313  0.00  0.00    +0.029 C 
ATOM     12  C   UNL     1      -3.286   8.578  -1.541  0.00  0.00    +0.108 C 
ATOM     13  N   UNL     1      -2.598   8.547  -0.246  0.00  0.00    -0.336 N 
ATOM     14  H   UNL     1      -1.978   9.249   0.004  0.00  0.00    +0.147 HD
ENDROOT
BRANCH  12  15
ATOM     15  C   UNL     1      -2.740   7.489  -2.429  0.00  0.00    +0.014 A 
ATOM     16  C   UNL     1      -2.254   6.322  -1.872  0.00  0.00    +0.009 A 
ATOM     17  C   UNL     1      -1.758   5.321  -2.687  0.00  0.00    +0.001 A 
ATOM     18  C   UNL     1      -1.737   5.490  -4.059  0.00  0.00    +0.004 A 
ATOM     19  C   UNL     1      -2.217   6.657  -4.620  0.00  0.00    +0.046 A 
ATOM     20  C   UNL     1      -2.721   7.661  -3.805  0.00  0.00    +0.122 A 
BRANCH  20  21
ATOM     21  O   UNL     1      -3.193   8.811  -4.354  0.00  0.00    -0.506 OA
ATOM     22  H   UNL     1      -2.525   9.502  -4.457  0.00  0.00    +0.292 HD
ENDBRANCH  20  21
ENDBRANCH  12  15
BRANCH   1  23
ATOM     23  S   UNL     1      -3.659   4.031   3.436  0.00  0.00    +0.072 S 
ATOM     24  O   UNL     1      -5.064   3.818   3.425  0.00  0.00    -0.150 OA
ATOM     25  O   UNL     1      -2.939   4.303   4.631  0.00  0.00    -0.150 OA
BRANCH  23  26
ATOM     26  N   UNL     1      -2.970   2.681   2.767  0.00  0.00    -0.216 N 
ATOM     27  H   UNL     1      -3.530   1.944   2.478  0.00  0.00    +0.174 HD
BRANCH  26  32
ATOM     28  C   UNL     1       2.660   2.372   2.164  0.00  0.00    +0.044 C 
ATOM     29  C   UNL     1       1.163   2.454   2.325  0.00  0.00    -0.047 A 
ATOM     30  C   UNL     1       0.621   2.913   3.511  0.00  0.00    +0.005 A 
ATOM     31  C   UNL     1      -0.750   2.990   3.661  0.00  0.00    +0.025 A 
ATOM     32  C   UNL     1      -1.584   2.605   2.618  0.00  0.00    +0.048 A 
ATOM     33  C   UNL     1      -1.035   2.150   1.426  0.00  0.00    +0.028 A 
ATOM     34  C   UNL     1       0.337   2.070   1.285  0.00  0.00    -0.046 A 
ATOM     35  C   UNL     1       0.932   1.571  -0.006  0.00  0.00    +0.044 C 
ENDBRANCH  26  32
ENDBRANCH  23  26
ENDBRANCH   1  23
TORSDOF 5
