REMARK  Name = ZINC35968893
REMARK  7 active torsions:
REMARK  status: ('A' for Active; 'I' for Inactive)
REMARK    1  A    between atoms: C_2  and  C_3
REMARK    2  A    between atoms: C_3  and  N_4
REMARK    3  A    between atoms: C_7  and  C_12
REMARK    4  A    between atoms: N_21  and  C_23
REMARK    5  A    between atoms: C_23  and  C_24
REMARK    6  A    between atoms: N_26  and  C_27
REMARK    7  A    between atoms: C_27  and  C_28
REMARK                            x       y       z     vdW  Elec       q    Type
REMARK                         _______ _______ _______ _____ _____    ______ ____
ROOT
ATOM      1  N   UNL     1      -1.318  -1.700  -1.126  0.00  0.00    -0.253 N 
ATOM      2  C   UNL     1      -1.835  -1.255  -2.309  0.00  0.00    +0.043 C 
ATOM      3  C   UNL     1      -1.887  -2.054  -3.394  0.00  0.00    +0.058 C 
ATOM      4  C   UNL     1      -1.352  -3.465  -3.256  0.00  0.00    +0.142 C 
ATOM      5  N   UNL     1      -0.816  -3.849  -1.939  0.00  0.00    -0.288 N 
ATOM      6  C   UNL     1      -0.827  -2.933  -0.949  0.00  0.00    +0.307 C 
ATOM      7  O   UNL     1      -0.383  -3.239   0.140  0.00  0.00    -0.252 OA
ATOM      8  C   UNL     1      -2.460  -1.366  -4.483  0.00  0.00    +0.247 C 
ATOM      9  O   UNL     1      -2.631  -1.847  -5.588  0.00  0.00    -0.270 OA
ATOM     10  N   UNL     1      -2.795  -0.109  -4.141  0.00  0.00    -0.283 N 
ATOM     11  C   UNL     1      -2.427   0.072  -2.729  0.00  0.00    +0.160 C 
ATOM     12  H   UNL     1      -0.459  -4.738  -1.788  0.00  0.00    +0.151 HD
ENDROOT
BRANCH   4  13
ATOM     13  C   UNL     1      -0.257  -3.649  -4.274  0.00  0.00    -0.022 A 
ATOM     14  C   UNL     1       1.013  -3.164  -4.018  0.00  0.00    +0.007 A 
ATOM     15  C   UNL     1       2.018  -3.333  -4.952  0.00  0.00    +0.020 A 
ATOM     16  C   UNL     1       1.754  -3.985  -6.143  0.00  0.00    +0.041 A 
ATOM     17  C   UNL     1       0.483  -4.470  -6.398  0.00  0.00    +0.020 A 
ATOM     18  C   UNL     1      -0.520  -4.306  -5.461  0.00  0.00    +0.007 A 
ATOM     19 CL   UNL     1       3.015  -4.196  -7.316  0.00  0.00    -0.084 Cl
ENDBRANCH   4  13
BRANCH   1  20
ATOM     20  C   UNL     1      -1.293  -0.775   0.010  0.00  0.00    +0.141 C 
BRANCH  20  22
ATOM     21  C   UNL     1      -0.016   1.306   0.009  0.00  0.00    +0.005 C 
ATOM     22  C   UNL     1       0.002  -0.004   0.002  0.00  0.00    -0.015 C 
ENDBRANCH  20  22
ENDBRANCH   1  20
BRANCH  10  23
ATOM     23  C   UNL     1      -3.412   0.894  -5.014  0.00  0.00    +0.204 C 
BRANCH  23  24
ATOM     24  C   UNL     1      -4.912   0.787  -4.919  0.00  0.00    +0.231 C 
ATOM     25  O   UNL     1      -5.417  -0.044  -4.194  0.00  0.00    -0.274 OA
ATOM     26  N   UNL     1      -5.693   1.616  -5.639  0.00  0.00    -0.308 N 
ATOM     27  H   UNL     1      -5.290   2.281  -6.219  0.00  0.00    +0.149 HD
BRANCH  26  28
ATOM     28  C   UNL     1      -7.152   1.513  -5.547  0.00  0.00    +0.159 C 
BRANCH  28  29
ATOM     29  C   UNL     1      -7.786   2.544  -6.444  0.00  0.00    +0.058 A 
ATOM     30  C   UNL     1      -8.175   2.191  -7.723  0.00  0.00    +0.025 A 
ATOM     31  C   UNL     1      -8.758   3.147  -8.540  0.00  0.00    +0.003 A 
ATOM     32  C   UNL     1      -8.928   4.429  -8.039  0.00  0.00    +0.020 A 
ATOM     33  C   UNL     1      -8.514   4.708  -6.751  0.00  0.00    +0.111 A 
ATOM     34  N   UNL     1      -7.968   3.772  -5.999  0.00  0.00    -0.258 NA
ENDBRANCH  28  29
ENDBRANCH  26  28
ENDBRANCH  23  24
ENDBRANCH  10  23
TORSDOF 7
