REMARK  Name = ZINC18159007
REMARK  6 active torsions:
REMARK  status: ('A' for Active; 'I' for Inactive)
REMARK    1  A    between atoms: C_7  and  C_12
REMARK    2  A    between atoms: C_12  and  N_26
REMARK    3  A    between atoms: C_13  and  N_14
REMARK    4  A    between atoms: N_14  and  C_15
REMARK    5  A    between atoms: C_18  and  O_21
REMARK    6  A    between atoms: O_21  and  C_22
REMARK                            x       y       z     vdW  Elec       q    Type
REMARK                         _______ _______ _______ _____ _____    ______ ____
ROOT
ATOM      1  C   UNL     1       2.333   1.036   0.085  0.00  0.00    +0.162 C 
ATOM      2  C   UNL     1       1.190   1.677  -0.068  0.00  0.00    +0.104 C 
ENDROOT
BRANCH   1   9
ATOM      3  C   UNL     1       5.136  -1.403  -2.437  0.00  0.00    +0.000 A 
ATOM      4  C   UNL     1       4.341  -2.157  -3.282  0.00  0.00    +0.001 A 
ATOM      5  C   UNL     1       2.998  -2.323  -3.012  0.00  0.00    +0.015 A 
ATOM      6  C   UNL     1       2.440  -1.727  -1.880  0.00  0.00    +0.066 A 
ATOM      7  C   UNL     1       3.252  -0.968  -1.032  0.00  0.00    +0.013 A 
ATOM      8  C   UNL     1       4.589  -0.809  -1.312  0.00  0.00    +0.008 A 
ATOM      9  C   UNL     1       2.359  -0.471   0.077  0.00  0.00    +0.262 C 
ATOM     10  O   UNL     1       1.030  -0.991  -0.201  0.00  0.00    -0.446 OA
ATOM     11  C   UNL     1       1.071  -1.717  -1.331  0.00  0.00    +0.341 C 
ATOM     12  O   UNL     1       0.119  -2.285  -1.828  0.00  0.00    -0.245 OA
ENDBRANCH   1   9
BRANCH   1  13
ATOM     13  N   UNL     1       3.591   1.796   0.264  0.00  0.00    +0.058 N 
ATOM     14  O   UNL     1       3.571   3.014   0.271  0.00  0.00    -0.126 OA
ATOM     15  O   UNL     1       4.646   1.204   0.405  0.00  0.00    -0.126 OA
ENDBRANCH   1  13
BRANCH   2  16
ATOM     16  N   UNL     1      -0.010   1.032   0.204  0.00  0.00    -0.319 N 
ATOM     17  H   UNL     1      -0.006   0.026   0.648  0.00  0.00    +0.152 HD
BRANCH  16  18
ATOM     18  C   UNL     1      -1.225   1.663  -0.088  0.00  0.00    +0.031 A 
ATOM     19  C   UNL     1      -1.232   2.938  -0.639  0.00  0.00    +0.027 A 
ATOM     20  C   UNL     1      -2.431   3.556  -0.932  0.00  0.00    +0.048 A 
ATOM     21  C   UNL     1      -3.629   2.909  -0.666  0.00  0.00    +0.130 A 
ATOM     22  C   UNL     1      -3.623   1.639  -0.111  0.00  0.00    +0.048 A 
ATOM     23  C   UNL     1      -2.425   1.016   0.178  0.00  0.00    +0.027 A 
BRANCH  21  24
ATOM     24  O   UNL     1      -4.809   3.522  -0.951  0.00  0.00    -0.406 OA
BRANCH  24  25
ATOM     25  C   UNL     1      -4.741   4.830  -1.521  0.00  0.00    +0.575 C 
ATOM     26  F   UNL     1      -4.045   4.774  -2.734  0.00  0.00    -0.133 F 
ATOM     27  F   UNL     1      -6.036   5.308  -1.749  0.00  0.00    -0.133 F 
ATOM     28  F   UNL     1      -4.075   5.689  -0.640  0.00  0.00    -0.133 F 
ENDBRANCH  24  25
ENDBRANCH  21  24
ENDBRANCH  16  18
ENDBRANCH   2  16
TORSDOF 6
