REMARK  Name = ZINC22418688
REMARK  11 active torsions:
REMARK  status: ('A' for Active; 'I' for Inactive)
REMARK    1  A    between atoms: C_1  and  N_2
REMARK    2  A    between atoms: N_2  and  C_3
REMARK    3  A    between atoms: N_2  and  C_4
REMARK    4  A    between atoms: C_7  and  C_10
REMARK    5  A    between atoms: C_10  and  C_12
REMARK    6  A    between atoms: C_10  and  N_30
REMARK    7  A    between atoms: C_12  and  N_13
REMARK    8  A    between atoms: N_16  and  C_17
REMARK    9  A    between atoms: C_17  and  C_18
REMARK   10  A    between atoms: C_17  and  C_24
REMARK   11  A    between atoms: N_33  and  C_36
REMARK                            x       y       z     vdW  Elec       q    Type
REMARK                         _______ _______ _______ _____ _____    ______ ____
ROOT
ATOM      1  C   UNL     1       2.481   0.826  -0.079  0.00  0.00    +0.104 C 
ENDROOT
BRANCH   1   5
ATOM      2  C   UNL     1       6.069   3.101  -0.546  0.00  0.00    +0.029 A 
ATOM      3  C   UNL     1       5.729   2.586   0.698  0.00  0.00    +0.023 A 
ATOM      4  C   UNL     1       4.569   1.851   0.846  0.00  0.00    +0.007 A 
ATOM      5  C   UNL     1       3.747   1.628  -0.243  0.00  0.00    -0.029 A 
ATOM      6  C   UNL     1       4.085   2.135  -1.485  0.00  0.00    +0.007 A 
ATOM      7  C   UNL     1       5.241   2.875  -1.638  0.00  0.00    +0.023 A 
BRANCH   2   9
ATOM      8  C   UNL     1       8.051   4.185   0.473  0.00  0.00    +0.129 C 
ATOM      9  N   UNL     1       7.242   3.844  -0.700  0.00  0.00    -0.336 N 
ATOM     10  C   UNL     1       7.663   4.282  -2.033  0.00  0.00    +0.129 C 
ENDBRANCH   2   9
ENDBRANCH   1   5
BRANCH   1  11
ATOM     11  N   UNL     1       2.304  -0.053  -1.242  0.00  0.00    -0.291 NA
ATOM     12  C   UNL     1       0.990  -0.711  -1.209  0.00  0.00    +0.104 C 
ATOM     13  C   UNL     1       0.813  -1.553  -2.474  0.00  0.00    +0.120 C 
ATOM     14  N   UNL     1       1.894  -2.546  -2.555  0.00  0.00    -0.327 N 
ATOM     15  C   UNL     1       3.207  -1.888  -2.587  0.00  0.00    +0.120 C 
ATOM     16  C   UNL     1       3.385  -1.045  -1.322  0.00  0.00    +0.104 C 
BRANCH  14  17
ATOM     17  C   UNL     1       1.725  -3.382  -3.661  0.00  0.00    +0.030 A 
ATOM     18  C   UNL     1       2.733  -3.494  -4.609  0.00  0.00    +0.023 A 
ATOM     19  C   UNL     1       2.565  -4.325  -5.699  0.00  0.00    +0.002 A 
ATOM     20  C   UNL     1       1.390  -5.037  -5.853  0.00  0.00    +0.000 A 
ATOM     21  C   UNL     1       0.381  -4.924  -4.913  0.00  0.00    +0.002 A 
ATOM     22  C   UNL     1       0.545  -4.098  -3.818  0.00  0.00    +0.023 A 
ENDBRANCH  14  17
ENDBRANCH   1  11
BRANCH   1  23
ATOM     23  C   UNL     1       1.286   1.775   0.031  0.00  0.00    +0.129 C 
BRANCH  23  24
ATOM     24  N   UNL     1       1.431   2.606   1.229  0.00  0.00    -0.298 N 
ATOM     25  C   UNL     1       0.542   3.588   1.479  0.00  0.00    +0.300 C 
ATOM     26  O   UNL     1      -0.376   3.788   0.707  0.00  0.00    -0.253 OA
ATOM     27  N   UNL     1       0.671   4.349   2.584  0.00  0.00    -0.289 N 
ATOM     28  H   UNL     1       2.264   2.428   1.924  0.00  0.00    +0.150 HD
ATOM     29  H   UNL     1       1.502   4.168   3.281  0.00  0.00    +0.151 HD
BRANCH  27  30
ATOM     30  C   UNL     1      -0.294   5.417   2.855  0.00  0.00    +0.135 C 
BRANCH  30  31
ATOM     31  C   UNL     1      -0.334   5.693   4.336  0.00  0.00    -0.023 A 
ATOM     32  C   UNL     1       0.836   5.689   5.072  0.00  0.00    +0.006 A 
ATOM     33  C   UNL     1       0.800   5.948   6.429  0.00  0.00    +0.000 A 
ATOM     34  C   UNL     1      -0.408   6.200   7.053  0.00  0.00    +0.000 A 
ATOM     35  C   UNL     1      -1.579   6.197   6.318  0.00  0.00    +0.000 A 
ATOM     36  C   UNL     1      -1.542   5.944   4.960  0.00  0.00    +0.006 A 
ENDBRANCH  30  31
BRANCH  30  37
ATOM     37  C   UNL     1       0.119   6.667   2.122  0.00  0.00    -0.023 A 
ATOM     38  C   UNL     1       1.453   7.023   2.062  0.00  0.00    +0.006 A 
ATOM     39  C   UNL     1       1.833   8.167   1.385  0.00  0.00    +0.000 A 
ATOM     40  C   UNL     1       0.878   8.960   0.777  0.00  0.00    +0.000 A 
ATOM     41  C   UNL     1      -0.457   8.606   0.842  0.00  0.00    +0.000 A 
ATOM     42  C   UNL     1      -0.836   7.459   1.514  0.00  0.00    +0.006 A 
ENDBRANCH  30  37
ENDBRANCH  27  30
ENDBRANCH  23  24
ENDBRANCH   1  23
TORSDOF 9
