REMARK  Name = ZINC64344036
REMARK  7 active torsions:
REMARK  status: ('A' for Active; 'I' for Inactive)
REMARK    1  A    between atoms: C_1  and  C_2
REMARK    2  A    between atoms: C_14  and  C_16
REMARK    3  A    between atoms: C_16  and  N_17
REMARK    4  A    between atoms: N_17  and  C_18
REMARK    5  A    between atoms: C_18  and  C_19
REMARK    6  A    between atoms: C_18  and  C_20
REMARK    7  A    between atoms: C_18  and  C_21
REMARK                            x       y       z     vdW  Elec       q    Type
REMARK                         _______ _______ _______ _____ _____    ______ ____
ROOT
ATOM      1  C   UNL     1      -0.019   1.526   0.010  0.00  0.00    +0.029 C 
ATOM      2  C   UNL     1       0.002  -0.004   0.002  0.00  0.00    +0.087 C 
ATOM      3  C   UNL     1       0.710  -0.496  -1.261  0.00  0.00    +0.118 C 
ATOM      4  C   UNL     1       1.092  -1.944  -1.111  0.00  0.00    +0.219 C 
ATOM      5  O   UNL     1       0.452  -2.800  -1.685  0.00  0.00    -0.275 OA
ATOM      6  N   UNL     1       2.144  -2.297  -0.340  0.00  0.00    -0.284 N 
ATOM      7  C   UNL     1       2.833  -1.333   0.404  0.00  0.00    +0.055 A 
ATOM      8  C   UNL     1       4.215  -1.255   0.360  0.00  0.00    +0.025 A 
ATOM      9  C   UNL     1       4.876  -0.309   1.123  0.00  0.00    +0.002 A 
ATOM     10  C   UNL     1       4.162   0.558   1.930  0.00  0.00    +0.002 A 
ATOM     11  C   UNL     1       2.781   0.493   1.972  0.00  0.00    +0.025 A 
ATOM     12  C   UNL     1       2.112  -0.444   1.202  0.00  0.00    +0.058 A 
ATOM     13  N   UNL     1       0.711  -0.488   1.189  0.00  0.00    -0.265 N 
ATOM     14  C   UNL     1       0.028  -0.965   2.248  0.00  0.00    +0.234 C 
ATOM     15  O   UNL     1      -1.184  -0.998   2.224  0.00  0.00    -0.274 OA
ATOM     16  H   UNL     1       2.424  -3.225  -0.302  0.00  0.00    +0.155 HD
ENDROOT
BRANCH  14  17
ATOM     17  C   UNL     1       0.771  -1.460   3.462  0.00  0.00    +0.178 C 
BRANCH  17  18
ATOM     18  N   UNL     1      -0.191  -1.925   4.470  0.00  0.00    -0.299 NA
ATOM     19  H   UNL     1      -0.851  -1.197   4.703  0.00  0.00    +0.123 HD
BRANCH  18  20
ATOM     20  C   UNL     1       0.499  -2.415   5.670  0.00  0.00    +0.039 C 
ATOM     21  C   UNL     1       1.415  -3.580   5.292  0.00  0.00    +0.032 C 
ATOM     22  C   UNL     1       1.334  -1.285   6.276  0.00  0.00    +0.032 C 
BRANCH  20  23
ATOM     23  C   UNL     1      -0.519  -2.883   6.679  0.00  0.00    -0.024 A 
ATOM     24  C   UNL     1      -1.867  -2.809   6.383  0.00  0.00    +0.009 A 
ATOM     25  C   UNL     1      -2.804  -3.238   7.305  0.00  0.00    +0.050 A 
ATOM     26  C   UNL     1      -2.394  -3.741   8.528  0.00  0.00    +0.166 A 
ATOM     27  C   UNL     1      -1.035  -3.815   8.826  0.00  0.00    +0.167 A 
ATOM     28  C   UNL     1      -0.102  -3.389   7.896  0.00  0.00    +0.055 A 
ATOM     29  O   UNL     1      -0.891  -4.340  10.078  0.00  0.00    -0.453 OA
ATOM     30  C   UNL     1      -2.182  -4.207  10.702  0.00  0.00    +0.466 C 
ATOM     31  O   UNL     1      -3.101  -4.221   9.593  0.00  0.00    -0.453 OA
ENDBRANCH  20  23
ENDBRANCH  18  20
ENDBRANCH  17  18
ENDBRANCH  14  17
TORSDOF 4
