REMARK  Name = ZINC03454075
REMARK  7 active torsions:
REMARK  status: ('A' for Active; 'I' for Inactive)
REMARK    1  A    between atoms: C_1  and  C_2
REMARK    2  A    between atoms: C_2  and  C_4
REMARK    3  A    between atoms: C_2  and  N_52
REMARK    4  A    between atoms: N_6  and  C_7
REMARK    5  A    between atoms: N_18  and  S_21
REMARK    6  A    between atoms: S_21  and  C_24
REMARK    7  A    between atoms: C_29  and  C_30
REMARK                            x       y       z     vdW  Elec       q    Type
REMARK                         _______ _______ _______ _____ _____    ______ ____
ROOT
ATOM      1  C   UNL     1      -1.003   2.882   2.208  0.00  0.00    -0.060 C 
ATOM      2  C   UNL     1      -1.969   2.639   1.043  0.00  0.00    +0.091 C 
ATOM      3  N   UNL     1      -2.496   1.270   1.150  0.00  0.00    -0.180 NA
ATOM      4  C   UNL     1      -3.074   0.845   2.434  0.00  0.00    +0.091 C 
ATOM      5  C   UNL     1      -2.059   1.157   3.546  0.00  0.00    -0.060 C 
ATOM      6  N   UNL     1      -1.707   2.591   3.476  0.00  0.00    +0.389 N 
ATOM      7  H   UNL     1      -2.568   3.148   3.514  0.00  0.00    -0.081 HD
ENDROOT
BRANCH   3   8
ATOM      8  S   UNL     1      -2.446   0.237  -0.143  0.00  0.00    +0.061 S 
ATOM      9  O   UNL     1      -2.245   1.040  -1.298  0.00  0.00    -0.153 OA
ATOM     10  O   UNL     1      -3.558  -0.638  -0.007  0.00  0.00    -0.153 OA
BRANCH   8  11
ATOM     11  C   UNL     1      -1.001  -0.755   0.038  0.00  0.00    +0.117 A 
ATOM     12  C   UNL     1      -0.021  -0.390   0.943  0.00  0.00    +0.029 A 
ATOM     13  C   UNL     1       1.113  -1.168   1.085  0.00  0.00    +0.002 A 
ATOM     14  C   UNL     1       1.267  -2.311   0.323  0.00  0.00    +0.001 A 
ATOM     15  C   UNL     1       0.285  -2.678  -0.577  0.00  0.00    +0.014 A 
ATOM     16  C   UNL     1      -0.847  -1.897  -0.724  0.00  0.00    +0.081 A 
BRANCH  16  17
ATOM     17  C   UNL     1      -1.915  -2.296  -1.709  0.00  0.00    +0.419 C 
ATOM     18  F   UNL     1      -1.469  -3.386  -2.464  0.00  0.00    -0.166 F 
ATOM     19  F   UNL     1      -3.078  -2.651  -1.018  0.00  0.00    -0.166 F 
ATOM     20  F   UNL     1      -2.188  -1.220  -2.561  0.00  0.00    -0.166 F 
ENDBRANCH  16  17
ENDBRANCH   8  11
ENDBRANCH   3   8
BRANCH   6  22
ATOM     21  C   UNL     1      -1.511   2.473   5.915  0.00  0.00    -0.004 C 
ATOM     22  C   UNL     1      -0.849   2.956   4.623  0.00  0.00    +0.017 C 
BRANCH  22  23
ATOM     23  C   UNL     1      -0.706   4.456   4.663  0.00  0.00    +0.203 C 
ATOM     24  O   UNL     1      -1.375   5.149   3.926  0.00  0.00    -0.277 OA
ATOM     25  N   UNL     1       0.165   5.027   5.518  0.00  0.00    -0.284 N 
ATOM     26  H   UNL     1       0.749   4.472   6.058  0.00  0.00    +0.155 HD
BRANCH  25  27
ATOM     27  C   UNL     1       0.228   6.423   5.626  0.00  0.00    +0.072 A 
ATOM     28  C   UNL     1      -0.145   7.221   4.553  0.00  0.00    +0.029 A 
ATOM     29  C   UNL     1      -0.084   8.597   4.661  0.00  0.00    +0.043 A 
ATOM     30  C   UNL     1       0.348   9.183   5.838  0.00  0.00    +0.161 A 
ATOM     31  C   UNL     1       0.722   8.390   6.913  0.00  0.00    +0.195 A 
ATOM     32  C   UNL     1       0.657   7.011   6.810  0.00  0.00    +0.182 A 
ATOM     33  F   UNL     1       1.014   6.237   7.859  0.00  0.00    -0.200 F 
ATOM     34  F   UNL     1       1.144   8.963   8.061  0.00  0.00    -0.199 F 
ATOM     35  F   UNL     1       0.406  10.529   5.941  0.00  0.00    -0.202 F 
ENDBRANCH  25  27
ENDBRANCH  22  23
ENDBRANCH   6  22
TORSDOF 6
