REMARK  Name = ZINC00647517
REMARK  4 active torsions:
REMARK  status: ('A' for Active; 'I' for Inactive)
REMARK    1  A    between atoms: C_6  and  C_7
REMARK    2  A    between atoms: C_10  and  C_27
REMARK    3  A    between atoms: C_15  and  C_17
REMARK    4  A    between atoms: N_19  and  C_20
REMARK                            x       y       z     vdW  Elec       q    Type
REMARK                         _______ _______ _______ _____ _____    ______ ____
ROOT
ATOM      1  C   UNL     1      -1.293  -0.775   0.010  0.00  0.00    +0.104 C 
ATOM      2  C   UNL     1      -1.589  -1.269   1.431  0.00  0.00    +0.063 C 
ATOM      3  C   UNL     1      -0.417  -2.115   1.943  0.00  0.00    +0.215 C 
ATOM      4  N   UNL     1      -0.081  -3.121   0.932  0.00  0.00    -0.238 N 
ATOM      5  C   UNL     1      -0.446  -3.028  -0.381  0.00  0.00    +0.119 A 
ATOM      6  C   UNL     1       0.022  -4.115  -1.025  0.00  0.00    +0.078 A 
ATOM      7  C   UNL     1       0.704  -4.912  -0.078  0.00  0.00    +0.149 A 
ATOM      8  N   UNL     1       0.637  -4.306   1.094  0.00  0.00    -0.164 NA
ATOM      9  N   UNL     1      -1.179  -1.944  -0.884  0.00  0.00    -0.322 N 
ATOM     10  H   UNL     1      -1.589  -1.960  -1.763  0.00  0.00    +0.148 HD
ENDROOT
BRANCH   1  16
ATOM     11  C   UNL     1      -0.017   1.378   0.010  0.00  0.00    +0.006 A 
ATOM     12  C   UNL     1       1.171   2.086   0.002  0.00  0.00    +0.015 A 
ATOM     13  C   UNL     1       2.378   1.411  -0.013  0.00  0.00    +0.018 A 
ATOM     14  C   UNL     1       2.396   0.027  -0.021  0.00  0.00    +0.015 A 
ATOM     15  C   UNL     1       1.208  -0.679  -0.013  0.00  0.00    +0.006 A 
ATOM     16  C   UNL     1       0.002  -0.004   0.002  0.00  0.00    -0.027 A 
ATOM     17 BR   UNL     1       4.003   2.378  -0.024  0.00  0.00    -0.050 Br
ENDBRANCH   1  16
BRANCH   7  18
ATOM     18  C   UNL     1       1.375  -6.199  -0.351  0.00  0.00    +0.264 C 
ATOM     19  O   UNL     1       1.371  -6.660  -1.476  0.00  0.00    -0.268 OA
ATOM     20  N   UNL     1       1.993  -6.862   0.647  0.00  0.00    -0.307 N 
ATOM     21  H   UNL     1       1.996  -6.494   1.544  0.00  0.00    +0.149 HD
BRANCH  20  22
ATOM     22  C   UNL     1       2.659  -8.139   0.376  0.00  0.00    +0.073 C 
ATOM     23  C   UNL     1       1.636  -9.274   0.452  0.00  0.00    +0.022 C 
ATOM     24  C   UNL     1       2.332 -10.607   0.169  0.00  0.00    +0.002 C 
ATOM     25  C   UNL     1       3.430 -10.840   1.208  0.00  0.00    +0.000 C 
ATOM     26  C   UNL     1       4.453  -9.704   1.132  0.00  0.00    +0.002 C 
ATOM     27  C   UNL     1       3.757  -8.371   1.415  0.00  0.00    +0.022 C 
ENDBRANCH  20  22
ENDBRANCH   7  18
BRANCH   3  28
ATOM     28  C   UNL     1      -0.819  -2.810   3.246  0.00  0.00    +0.412 C 
ATOM     29  F   UNL     1      -1.923  -3.636   3.013  0.00  0.00    -0.168 F 
ATOM     30  F   UNL     1       0.251  -3.581   3.712  0.00  0.00    -0.168 F 
ATOM     31  F   UNL     1      -1.151  -1.846   4.205  0.00  0.00    -0.168 F 
ENDBRANCH   3  28
TORSDOF 4
