REMARK  Name = ZINC63280165
REMARK  2 active torsions:
REMARK  status: ('A' for Active; 'I' for Inactive)
REMARK    1  A    between atoms: C_6  and  C_11
REMARK    2  A    between atoms: C_15  and  C_20
REMARK                            x       y       z     vdW  Elec       q    Type
REMARK                         _______ _______ _______ _____ _____    ______ ____
ROOT
ATOM      1  C   UNL     1       3.664  -2.775   1.204  0.00  0.00    +0.178 C 
ATOM      2  N   UNL     1       2.991  -2.291   2.438  0.00  0.00    -0.265 N 
ATOM      3  N   UNL     1       1.872  -2.983   2.795  0.00  0.00    -0.220 N 
ATOM      4  C   UNL     1       0.743  -2.770   3.581  0.00  0.00    +0.188 A 
ATOM      5  N   UNL     1       0.030  -3.872   3.561  0.00  0.00    -0.126 NA
ATOM      6  N   UNL     1       0.604  -4.753   2.820  0.00  0.00    -0.120 NA
ATOM      7  C   UNL     1       1.699  -4.262   2.324  0.00  0.00    +0.211 A 
ATOM      8  S   UNL     1       3.100  -4.531   1.255  0.00  0.00    -0.058 S 
ATOM      9  H   UNL     1       3.642  -2.235   3.207  0.00  0.00    +0.168 HD
ENDROOT
BRANCH   1  15
ATOM     10  C   UNL     1      -0.016   1.348   0.009  0.00  0.00    +0.001 A 
ATOM     11  C   UNL     1       1.166   2.101   0.002  0.00  0.00    +0.002 A 
ATOM     12  C   UNL     1       2.391   1.535  -0.013  0.00  0.00    +0.026 A 
ATOM     13  C   UNL     1       2.529   0.120  -0.022  0.00  0.00    +0.043 A 
ATOM     14  N   UNL     1       3.587  -0.654  -0.037  0.00  0.00    -0.375 N 
ATOM     15  C   UNL     1       3.143  -2.053  -0.041  0.00  0.00    +0.135 C 
ATOM     16  C   UNL     1       1.631  -2.008  -0.025  0.00  0.00    +0.010 C 
ATOM     17  C   UNL     1       1.295  -0.698  -0.014  0.00  0.00    -0.004 A 
ATOM     18  C   UNL     1       0.002  -0.004   0.002  0.00  0.00    +0.010 A 
ATOM     19  H   UNL     1       4.509  -0.353  -0.045  0.00  0.00    +0.160 HD
ENDBRANCH   1  15
BRANCH   4  20
ATOM     20  C   UNL     1       0.408  -1.533   4.304  0.00  0.00    +0.058 A 
ATOM     21  C   UNL     1      -0.786  -1.153   4.862  0.00  0.00    +0.019 A 
ATOM     22  C   UNL     1      -0.861   0.067   5.496  0.00  0.00    +0.008 A 
ATOM     23  C   UNL     1       0.244   0.854   5.550  0.00  0.00    +0.046 A 
ATOM     24  S   UNL     1       1.454  -0.138   4.690  0.00  0.00    -0.093 S 
ENDBRANCH   4  20
TORSDOF 2
