REMARK  Name = ZINC06648062
REMARK  4 active torsions:
REMARK  status: ('A' for Active; 'I' for Inactive)
REMARK    1  A    between atoms: C_1  and  C_2
REMARK    2  A    between atoms: C_15  and  C_17
REMARK    3  A    between atoms: C_17  and  S_18
REMARK    4  A    between atoms: S_18  and  C_19
REMARK                            x       y       z     vdW  Elec       q    Type
REMARK                         _______ _______ _______ _____ _____    ______ ____
ROOT
ATOM      1  C   UNL     1      -0.806   5.845   2.339  0.00  0.00    +0.029 C 
ATOM      2  C   UNL     1       0.338   5.912   1.325  0.00  0.00    +0.087 C 
ATOM      3  C   UNL     1       1.572   5.220   1.904  0.00  0.00    +0.118 C 
ATOM      4  C   UNL     1       2.562   4.922   0.808  0.00  0.00    +0.219 C 
ATOM      5  O   UNL     1       3.558   5.605   0.695  0.00  0.00    -0.275 OA
ATOM      6  N   UNL     1       2.347   3.901  -0.049  0.00  0.00    -0.284 N 
ATOM      7  C   UNL     1       1.157   3.166   0.008  0.00  0.00    +0.055 A 
ATOM      8  C   UNL     1       1.177   1.781   0.000  0.00  0.00    +0.025 A 
ATOM      9  C   UNL     1      -0.013   1.076   0.008  0.00  0.00    +0.002 A 
ATOM     10  C   UNL     1      -1.221   1.748   0.017  0.00  0.00    +0.002 A 
ATOM     11  C   UNL     1      -1.249   3.131   0.038  0.00  0.00    +0.025 A 
ATOM     12  C   UNL     1      -0.062   3.844   0.040  0.00  0.00    +0.058 A 
ATOM     13  N   UNL     1      -0.070   5.245   0.086  0.00  0.00    -0.266 N 
ATOM     14  C   UNL     1      -0.446   5.966  -0.989  0.00  0.00    +0.230 C 
ATOM     15  O   UNL     1      -0.450   7.177  -0.936  0.00  0.00    -0.274 OA
ATOM     16  H   UNL     1       3.022   3.675  -0.708  0.00  0.00    +0.155 HD
ENDROOT
BRANCH  14  17
ATOM     17  C   UNL     1      -0.863   5.265  -2.256  0.00  0.00    +0.173 C 
BRANCH  17  18
ATOM     18  S   UNL     1      -1.309   6.499  -3.510  0.00  0.00    -0.076 S 
BRANCH  18  19
ATOM     19  C   UNL     1      -1.767   5.535  -4.912  0.00  0.00    +0.196 A 
ATOM     20  N   UNL     1      -1.764   4.223  -4.990  0.00  0.00    -0.122 NA
ATOM     21  N   UNL     1      -2.157   3.845  -6.155  0.00  0.00    -0.129 NA
ATOM     22  C   UNL     1      -2.427   4.901  -6.899  0.00  0.00    +0.162 A 
ATOM     23  N   UNL     1      -2.183   6.013  -6.120  0.00  0.00    -0.278 N 
ATOM     24  C   UNL     1      -2.376   7.268  -6.625  0.00  0.00    +0.095 A 
ATOM     25  C   UNL     1      -2.807   7.436  -7.891  0.00  0.00    +0.018 A 
ATOM     26  C   UNL     1      -3.064   6.321  -8.711  0.00  0.00    +0.005 A 
ATOM     27  C   UNL     1      -2.878   5.066  -8.224  0.00  0.00    +0.049 A 
ENDBRANCH  18  19
ENDBRANCH  17  18
ENDBRANCH  14  17
TORSDOF 3
