REMARK  Name = ZINC16921563
REMARK  3 active torsions:
REMARK  status: ('A' for Active; 'I' for Inactive)
REMARK    1  A    between atoms: C_1  and  C_2
REMARK    2  A    between atoms: C_4  and  C_21
REMARK    3  A    between atoms: C_6  and  N_18
REMARK                            x       y       z     vdW  Elec       q    Type
REMARK                         _______ _______ _______ _____ _____    ______ ____
ROOT
ATOM      1  C   UNL     1       0.976   5.576   0.113  0.00  0.00    +0.063 C 
ATOM      2  C   UNL     1      -0.262   4.677   0.084  0.00  0.00    +0.132 C 
ATOM      3  C   UNL     1      -0.249   3.872  -1.211  0.00  0.00    +0.065 C 
ATOM      4  C   UNL     1      -1.384   2.845  -1.208  0.00  0.00    +0.055 C 
ATOM      5  C   UNL     1      -1.268   1.975   0.050  0.00  0.00    +0.210 C 
ATOM      6  C   UNL     1      -1.338   2.898   1.276  0.00  0.00    +0.182 C 
ATOM      7  O   UNL     1      -0.231   3.804   1.216  0.00  0.00    -0.346 OA
ATOM      8  C   UNL     1      -2.629   3.676   1.201  0.00  0.00    +0.004 A 
ATOM      9  C   UNL     1      -3.796   3.120   1.687  0.00  0.00    +0.008 A 
ATOM     10  C   UNL     1      -4.983   3.826   1.611  0.00  0.00    +0.000 A 
ATOM     11  C   UNL     1      -5.007   5.089   1.048  0.00  0.00    +0.002 A 
ATOM     12  C   UNL     1      -3.842   5.652   0.564  0.00  0.00    +0.023 A 
ATOM     13  C   UNL     1      -2.649   4.947   0.643  0.00  0.00    +0.035 A 
ATOM     14  N   UNL     1      -1.463   5.514   0.163  0.00  0.00    -0.316 N 
ATOM     15  H   UNL     1      -1.436   6.444  -0.111  0.00  0.00    +0.149 HD
ENDROOT
BRANCH   4  16
ATOM     16  C   UNL     1      -2.710   3.560  -1.206  0.00  0.00    -0.042 A 
ATOM     17  C   UNL     1      -3.842   2.916  -0.740  0.00  0.00    +0.004 A 
ATOM     18  C   UNL     1      -5.058   3.574  -0.734  0.00  0.00    +0.000 A 
ATOM     19  C   UNL     1      -5.144   4.871  -1.202  0.00  0.00    +0.000 A 
ATOM     20  C   UNL     1      -4.014   5.513  -1.673  0.00  0.00    +0.000 A 
ATOM     21  C   UNL     1      -2.797   4.857  -1.675  0.00  0.00    +0.004 A 
ENDBRANCH   4  16
BRANCH   5  22
ATOM     22  N   UNL     1       0.010   1.259   0.041  0.00  0.00    +0.029 N 
ATOM     23  O   UNL     1       0.027   0.042   0.078  0.00  0.00    -0.131 OA
ATOM     24  O   UNL     1       1.056   1.882  -0.010  0.00  0.00    -0.131 OA
ENDBRANCH   5  22
TORSDOF 2
