REMARK  Name = ZINC36206253
REMARK  11 active torsions:
REMARK  status: ('A' for Active; 'I' for Inactive)
REMARK    1  A    between atoms: C_1  and  C_2
REMARK    2  A    between atoms: C_2  and  C_3
REMARK    3  A    between atoms: C_2  and  C_4
REMARK    4  A    between atoms: C_4  and  C_6
REMARK    5  A    between atoms: C_4  and  O_34
REMARK    6  A    between atoms: C_6  and  N_7
REMARK    7  A    between atoms: N_7  and  C_8
REMARK    8  A    between atoms: N_7  and  C_15
REMARK    9  A    between atoms: C_8  and  C_9
REMARK   10  A    between atoms: C_15  and  C_16
REMARK   11  A    between atoms: C_22  and  C_27
REMARK                            x       y       z     vdW  Elec       q    Type
REMARK                         _______ _______ _______ _____ _____    ______ ____
ROOT
ATOM      1  C   UNL     1      -3.090  -1.766  -3.327  0.00  0.00    +0.094 A 
ATOM      2  N   UNL     1      -3.336  -1.897  -4.656  0.00  0.00    -0.312 N 
ATOM      3  H   UNL     1      -4.043  -1.372  -5.063  0.00  0.00    +0.170 HD
ATOM      4  C   UNL     1      -2.618  -2.741  -5.420  0.00  0.00    +0.260 A 
ATOM      5  O   UNL     1      -2.851  -2.847  -6.612  0.00  0.00    -0.267 OA
ATOM      6  C   UNL     1      -1.577  -3.512  -4.811  0.00  0.00    +0.080 A 
ATOM      7  C   UNL     1      -0.672  -4.481  -5.418  0.00  0.00    +0.006 A 
ATOM      8  C   UNL     1       0.246  -5.095  -4.633  0.00  0.00    +0.056 A 
ATOM      9  S   UNL     1      -0.057  -4.399  -3.021  0.00  0.00    -0.076 S 
ATOM     10  C   UNL     1      -1.396  -3.311  -3.433  0.00  0.00    +0.116 A 
ATOM     11  N   UNL     1      -2.144  -2.452  -2.744  0.00  0.00    -0.229 NA
ENDROOT
BRANCH   7  12
ATOM     12  C   UNL     1      -0.755  -4.789  -6.866  0.00  0.00    +0.019 A 
ATOM     13  C   UNL     1      -1.130  -6.063  -7.290  0.00  0.00    +0.011 A 
ATOM     14  C   UNL     1      -1.206  -6.344  -8.639  0.00  0.00    +0.001 A 
ATOM     15  C   UNL     1      -0.912  -5.365  -9.571  0.00  0.00    +0.003 A 
ATOM     16  C   UNL     1      -0.538  -4.099  -9.158  0.00  0.00    +0.039 A 
ATOM     17  C   UNL     1      -0.464  -3.803  -7.810  0.00  0.00    +0.131 A 
ATOM     18  F   UNL     1      -0.105  -2.565  -7.407  0.00  0.00    -0.205 F 
ENDBRANCH   7  12
BRANCH   1  19
ATOM     19  C   UNL     1      -3.920  -0.808  -2.511  0.00  0.00    -0.003 C 
BRANCH  19  20
ATOM     20  N   UNL     1      -3.467  -0.835  -1.114  0.00  0.00    +0.389 N 
ATOM     21  H   UNL     1      -3.493  -1.783  -0.770  0.00  0.00    -0.081 HD
BRANCH  20  22
ATOM     22  C   UNL     1      -2.092  -0.324  -1.035  0.00  0.00    -0.046 C 
BRANCH  22  23
ATOM     23  C   UNL     1      -1.548  -0.539   0.379  0.00  0.00    +0.101 C 
BRANCH  23  25
ATOM     24  C   UNL     1       0.132   1.293   0.126  0.00  0.00    +0.010 C 
ATOM     25  C   UNL     1      -0.057  -0.199   0.409  0.00  0.00    +0.010 C 
ATOM     26  C   UNL     1       0.514  -0.532   1.789  0.00  0.00    +0.010 C 
ENDBRANCH  23  25
BRANCH  23  27
ATOM     27  O   UNL     1      -2.249   0.308   1.292  0.00  0.00    -0.393 OA
ATOM     28  H   UNL     1      -2.251   1.242   1.040  0.00  0.00    +0.210 HD
ENDBRANCH  23  27
ENDBRANCH  22  23
ENDBRANCH  20  22
BRANCH  20  29
ATOM     29  C   UNL     1      -4.350   0.007  -0.297  0.00  0.00    -0.042 C 
BRANCH  29  30
ATOM     30  C   UNL     1      -5.748  -0.555  -0.325  0.00  0.00    -0.064 A 
ATOM     31  C   UNL     1      -6.674  -0.061  -1.224  0.00  0.00    +0.002 A 
ATOM     32  C   UNL     1      -7.956  -0.577  -1.250  0.00  0.00    +0.000 A 
ATOM     33  C   UNL     1      -8.312  -1.587  -0.377  0.00  0.00    +0.000 A 
ATOM     34  C   UNL     1      -7.386  -2.083   0.521  0.00  0.00    +0.000 A 
ATOM     35  C   UNL     1      -6.103  -1.570   0.544  0.00  0.00    +0.002 A 
ENDBRANCH  29  30
ENDBRANCH  20  29
ENDBRANCH  19  20
ENDBRANCH   1  19
TORSDOF 9
