REMARK  Name = ZINC36557645
REMARK  20 active torsions:
REMARK  status: ('A' for Active; 'I' for Inactive)
REMARK    1  A    between atoms: C_1  and  C_2
REMARK    2  A    between atoms: C_2  and  C_3
REMARK    3  A    between atoms: C_3  and  C_4
REMARK    4  A    between atoms: C_4  and  C_5
REMARK    5  A    between atoms: C_5  and  C_6
REMARK    6  A    between atoms: C_7  and  C_8
REMARK    7  A    between atoms: N_10  and  C_11
REMARK    8  A    between atoms: N_10  and  C_18
REMARK    9  A    between atoms: C_11  and  C_12
REMARK   10  A    between atoms: C_15  and  C_17
REMARK   11  A    between atoms: C_18  and  C_20
REMARK   12  A    between atoms: C_18  and  C_25
REMARK   13  A    between atoms: C_20  and  C_21
REMARK   14  A    between atoms: C_21  and  C_22
REMARK   15  A    between atoms: C_22  and  C_23
REMARK   16  A    between atoms: C_23  and  C_24
REMARK   17  A    between atoms: N_27  and  C_28
REMARK   18  A    between atoms: C_28  and  S_29
REMARK   19  A    between atoms: S_29  and  C_32
REMARK   20  A    between atoms: C_35  and  C_38
REMARK                            x       y       z     vdW  Elec       q    Type
REMARK                         _______ _______ _______ _____ _____    ______ ____
ROOT
ATOM      1  C   UNL     1       5.859  -4.008   2.426  0.00  0.00    +0.163 C 
ENDROOT
BRANCH   1   2
ATOM      2  C   UNL     1       6.345  -4.075   1.001  0.00  0.00    +0.235 C 
ATOM      3  O   UNL     1       5.722  -4.711   0.177  0.00  0.00    -0.274 OA
ATOM      4  N   UNL     1       7.472  -3.429   0.643  0.00  0.00    -0.295 N 
ATOM      5  H   UNL     1       7.970  -2.921   1.302  0.00  0.00    +0.150 HD
BRANCH   4   6
ATOM      6  C   UNL     1       7.945  -3.494  -0.742  0.00  0.00    +0.278 C 
BRANCH   6   7
ATOM      7  S   UNL     1       7.341  -2.048  -1.656  0.00  0.00    +0.013 S 
ATOM      8  O   UNL     1       7.843  -2.064  -2.985  0.00  0.00    -0.168 OA
ATOM      9  O   UNL     1       5.955  -1.856  -1.407  0.00  0.00    -0.168 OA
BRANCH   7  10
ATOM     10  C   UNL     1       8.129  -0.669  -0.894  0.00  0.00    +0.090 A 
ATOM     11  C   UNL     1       7.526  -0.031   0.174  0.00  0.00    +0.027 A 
ATOM     12  C   UNL     1       8.144   1.051   0.772  0.00  0.00    +0.005 A 
ATOM     13  C   UNL     1       9.367   1.495   0.303  0.00  0.00    -0.050 A 
ATOM     14  C   UNL     1       9.970   0.856  -0.764  0.00  0.00    +0.005 A 
ATOM     15  C   UNL     1       9.354  -0.229  -1.359  0.00  0.00    +0.027 A 
ATOM     16  C   UNL     1      10.040   2.675   0.954  0.00  0.00    +0.044 C 
ENDBRANCH   7  10
ENDBRANCH   6   7
ENDBRANCH   4   6
ENDBRANCH   1   2
BRANCH   1  19
ATOM     17  C   UNL     1       3.485  -4.038   2.974  0.00  0.00    +0.240 C 
ATOM     18  O   UNL     1       3.570  -2.864   3.277  0.00  0.00    -0.271 OA
ATOM     19  N   UNL     1       4.573  -4.702   2.537  0.00  0.00    -0.279 N 
BRANCH  17  21
ATOM     20  C   UNL     1       1.093  -4.051   3.382  0.00  0.00    -0.022 C 
ATOM     21  C   UNL     1       2.194  -4.735   3.085  0.00  0.00    +0.063 C 
BRANCH  20  22
ATOM     22  C   UNL     1       1.102  -2.545   3.323  0.00  0.00    +0.027 C 
BRANCH  22  23
ATOM     23  C   UNL     1      -0.101  -2.059   2.512  0.00  0.00    +0.004 C 
BRANCH  23  24
ATOM     24  C   UNL     1      -0.091  -0.530   2.453  0.00  0.00    +0.000 C 
BRANCH  24  26
ATOM     25  C   UNL     1      -1.285   1.485   1.582  0.00  0.00    +0.004 C 
ATOM     26  C   UNL     1      -1.294  -0.044   1.642  0.00  0.00    -0.003 C 
ENDBRANCH  24  26
ENDBRANCH  23  24
ENDBRANCH  22  23
ENDBRANCH  20  22
ENDBRANCH  17  21
BRANCH  19  27
ATOM     27  C   UNL     1       4.471  -6.117   2.171  0.00  0.00    +0.183 C 
BRANCH  27  28
ATOM     28  C   UNL     1       4.593  -6.966   3.410  0.00  0.00    +0.122 A 
ATOM     29  C   UNL     1       3.585  -7.304   4.235  0.00  0.00    +0.046 A 
ATOM     30  C   UNL     1       4.145  -8.101   5.260  0.00  0.00    +0.045 A 
ATOM     31  C   UNL     1       5.460  -8.203   5.000  0.00  0.00    +0.102 A 
ATOM     32  O   UNL     1       5.725  -7.518   3.876  0.00  0.00    -0.463 OA
ATOM     33  C   UNL     1       6.466  -8.961   5.828  0.00  0.00    +0.086 C 
ENDBRANCH  27  28
ENDBRANCH  19  27
ENDBRANCH   1  19
BRANCH   1  34
ATOM     34  C   UNL     1       6.881  -4.680   3.346  0.00  0.00    +0.032 C 
BRANCH  34  35
ATOM     35  C   UNL     1       6.449  -4.503   4.803  0.00  0.00    +0.002 C 
BRANCH  35  36
ATOM     36  C   UNL     1       7.471  -5.174   5.723  0.00  0.00    -0.000 C 
BRANCH  36  37
ATOM     37  C   UNL     1       7.040  -4.997   7.180  0.00  0.00    -0.003 C 
ATOM     38  C   UNL     1       8.062  -5.668   8.100  0.00  0.00    +0.004 C 
ENDBRANCH  36  37
ENDBRANCH  35  36
ENDBRANCH  34  35
ENDBRANCH   1  34
TORSDOF 16
