REMARK  Name = ZINC36500469
REMARK  10 active torsions:
REMARK  status: ('A' for Active; 'I' for Inactive)
REMARK    1  A    between atoms: C_3  and  O_35
REMARK    2  A    between atoms: C_4  and  C_8
REMARK    3  A    between atoms: C_5  and  O_7
REMARK    4  A    between atoms: N_10  and  C_11
REMARK    5  A    between atoms: N_10  and  C_17
REMARK    6  A    between atoms: C_11  and  C_12
REMARK    7  A    between atoms: C_17  and  C_19
REMARK    8  A    between atoms: C_17  and  C_26
REMARK    9  A    between atoms: C_22  and  O_25
REMARK   10  A    between atoms: N_28  and  C_29
REMARK                            x       y       z     vdW  Elec       q    Type
REMARK                         _______ _______ _______ _____ _____    ______ ____
ROOT
ATOM      1  C   UNL     1       4.073  -0.254   0.228  0.00  0.00    +0.255 C 
ATOM      2  O   UNL     1       4.913   0.610   0.392  0.00  0.00    -0.270 OA
ATOM      3  N   UNL     1       4.422  -1.440  -0.309  0.00  0.00    -0.274 N 
ENDROOT
BRANCH   1   7
ATOM      4  C   UNL     1       0.036   0.464   1.349  0.00  0.00    +0.007 A 
ATOM      5  C   UNL     1       0.460   0.777   0.071  0.00  0.00    +0.046 A 
ATOM      6  C   UNL     1       1.774   0.548  -0.305  0.00  0.00    +0.133 A 
ATOM      7  C   UNL     1       2.675  -0.005   0.617  0.00  0.00    +0.119 A 
ATOM      8  C   UNL     1       2.234  -0.320   1.910  0.00  0.00    +0.133 A 
ATOM      9  C   UNL     1       0.916  -0.082   2.265  0.00  0.00    +0.046 A 
BRANCH   8  10
ATOM     10  O   UNL     1       3.096  -0.856   2.811  0.00  0.00    -0.506 OA
ATOM     11  H   UNL     1       3.565  -0.200   3.344  0.00  0.00    +0.292 HD
ENDBRANCH   8  10
BRANCH   6  12
ATOM     12  O   UNL     1       2.187   0.856  -1.560  0.00  0.00    -0.506 OA
ATOM     13  H   UNL     1       2.526   1.757  -1.652  0.00  0.00    +0.292 HD
ENDBRANCH   6  12
ENDBRANCH   1   7
BRANCH   3  14
ATOM     14  C   UNL     1       3.411  -2.482  -0.506  0.00  0.00    +0.183 C 
BRANCH  14  15
ATOM     15  C   UNL     1       2.610  -2.176  -1.745  0.00  0.00    +0.122 A 
ATOM     16  C   UNL     1       2.807  -2.716  -2.962  0.00  0.00    +0.046 A 
ATOM     17  C   UNL     1       1.838  -2.151  -3.822  0.00  0.00    +0.041 A 
ATOM     18  C   UNL     1       1.107  -1.299  -3.080  0.00  0.00    +0.195 A 
ATOM     19  O   UNL     1       1.576  -1.323  -1.822  0.00  0.00    -0.466 OA
ENDBRANCH  14  15
ENDBRANCH   3  14
BRANCH   3  20
ATOM     20  C   UNL     1       5.814  -1.688  -0.695  0.00  0.00    +0.193 C 
BRANCH  20  21
ATOM     21  C   UNL     1       6.200  -0.749  -1.809  0.00  0.00    -0.018 A 
ATOM     22  C   UNL     1       5.368  -0.597  -2.903  0.00  0.00    +0.009 A 
ATOM     23  C   UNL     1       5.721   0.263  -3.925  0.00  0.00    +0.046 A 
ATOM     24  C   UNL     1       6.910   0.973  -3.854  0.00  0.00    +0.117 A 
ATOM     25  C   UNL     1       7.743   0.818  -2.755  0.00  0.00    +0.046 A 
ATOM     26  C   UNL     1       7.384  -0.038  -1.733  0.00  0.00    +0.009 A 
BRANCH  24  27
ATOM     27  O   UNL     1       7.260   1.819  -4.859  0.00  0.00    -0.507 OA
ATOM     28  H   UNL     1       6.942   2.724  -4.739  0.00  0.00    +0.292 HD
ENDBRANCH  24  27
ENDBRANCH  20  21
BRANCH  20  29
ATOM     29  C   UNL     1       5.958  -3.112  -1.165  0.00  0.00    +0.238 C 
ATOM     30  O   UNL     1       5.152  -3.580  -1.941  0.00  0.00    -0.273 OA
ATOM     31  N   UNL     1       6.984  -3.867  -0.723  0.00  0.00    -0.311 N 
ATOM     32  H   UNL     1       7.629  -3.493  -0.102  0.00  0.00    +0.149 HD
BRANCH  31  33
ATOM     33  C   UNL     1       7.125  -5.252  -1.181  0.00  0.00    +0.073 C 
ATOM     34  C   UNL     1       6.266  -6.167  -0.306  0.00  0.00    +0.022 C 
ATOM     35  C   UNL     1       6.413  -7.614  -0.783  0.00  0.00    +0.002 C 
ATOM     36  C   UNL     1       7.879  -8.038  -0.680  0.00  0.00    +0.000 C 
ATOM     37  C   UNL     1       8.738  -7.122  -1.555  0.00  0.00    +0.002 C 
ATOM     38  C   UNL     1       8.591  -5.676  -1.077  0.00  0.00    +0.022 C 
ENDBRANCH  31  33
ENDBRANCH  20  29
ENDBRANCH   3  20
TORSDOF 10
