REMARK  Name = ZINC15957926
REMARK  9 active torsions:
REMARK  status: ('A' for Active; 'I' for Inactive)
REMARK    1  A    between atoms: C_1  and  C_2
REMARK    2  A    between atoms: C_2  and  O_3
REMARK    3  A    between atoms: O_3  and  C_4
REMARK    4  A    between atoms: C_4  and  C_6
REMARK    5  A    between atoms: C_9  and  N_12
REMARK    6  A    between atoms: C_17  and  C_36
REMARK    7  A    between atoms: C_28  and  C_35
REMARK    8  A    between atoms: C_29  and  C_34
REMARK    9  A    between atoms: C_36  and  C_37
REMARK                            x       y       z     vdW  Elec       q    Type
REMARK                         _______ _______ _______ _____ _____    ______ ____
ROOT
ATOM      1  N   UNL     1       3.085  -4.519   5.938  0.00  0.00    -0.210 N 
ATOM      2  C   UNL     1       4.001  -3.803   6.599  0.00  0.00    +0.232 C 
ATOM      3  O   UNL     1       4.399  -2.704   6.275  0.00  0.00    -0.274 OA
ATOM      4  C   UNL     1       4.463  -4.575   7.813  0.00  0.00    +0.108 C 
ATOM      5  C   UNL     1       3.987  -3.850   9.090  0.00  0.00    +0.076 C 
ATOM      6  N   UNL     1       2.619  -4.376   9.341  0.00  0.00    -0.295 NA
ATOM      7  C   UNL     1       2.713  -5.806   8.991  0.00  0.00    +0.136 C 
ATOM      8  C   UNL     1       3.629  -5.885   7.745  0.00  0.00    +0.123 C 
ATOM      9  C   UNL     1       2.798  -5.702   6.494  0.00  0.00    +0.233 C 
ATOM     10  O   UNL     1       1.998  -6.503   6.062  0.00  0.00    -0.274 OA
ATOM     11  C   UNL     1       1.359  -6.399   8.725  0.00  0.00    +0.004 A 
ATOM     12  C   UNL     1       0.360  -6.116   7.820  0.00  0.00    +0.008 A 
ATOM     13  C   UNL     1      -0.806  -6.859   7.821  0.00  0.00    +0.004 A 
ATOM     14  C   UNL     1      -0.967  -7.887   8.732  0.00  0.00    -0.046 A 
ATOM     15  C   UNL     1       0.031  -8.176   9.639  0.00  0.00    -0.026 A 
ATOM     16  C   UNL     1       1.209  -7.432   9.646  0.00  0.00    +0.042 A 
ATOM     17  N   UNL     1       2.346  -7.531  10.451  0.00  0.00    -0.283 N 
ATOM     18  C   UNL     1       3.277  -6.612  10.130  0.00  0.00    +0.243 C 
ATOM     19  O   UNL     1       4.359  -6.463  10.656  0.00  0.00    -0.273 OA
ATOM     20  C   UNL     1      -0.154  -9.299  10.627  0.00  0.00    +0.046 C 
ATOM     21  C   UNL     1      -2.239  -8.695   8.734  0.00  0.00    +0.044 C 
ATOM     22  H   UNL     1       2.358  -4.257  10.308  0.00  0.00    +0.124 HD
ATOM     23  H   UNL     1       2.452  -8.185  11.159  0.00  0.00    +0.155 HD
ENDROOT
BRANCH   1  27
ATOM     24  C   UNL     1       1.260  -3.169   2.441  0.00  0.00    +0.059 A 
ATOM     25  C   UNL     1       1.012  -2.523   3.655  0.00  0.00    +0.017 A 
ATOM     26  C   UNL     1       1.616  -2.972   4.808  0.00  0.00    +0.025 A 
ATOM     27  C   UNL     1       2.473  -4.067   4.766  0.00  0.00    +0.044 A 
ATOM     28  C   UNL     1       2.723  -4.712   3.559  0.00  0.00    +0.025 A 
ATOM     29  C   UNL     1       2.118  -4.273   2.403  0.00  0.00    +0.017 A 
BRANCH  24  30
ATOM     30  C   UNL     1       0.615  -2.692   1.203  0.00  0.00    +0.339 C 
ATOM     31  O   UNL     1       0.828  -3.257   0.150  0.00  0.00    -0.245 OA
BRANCH  30  32
ATOM     32  O   UNL     1      -0.211  -1.628   1.242  0.00  0.00    -0.461 OA
BRANCH  32  34
ATOM     33  C   UNL     1      -1.701  -0.006   0.247  0.00  0.00    +0.048 C 
ATOM     34  C   UNL     1      -0.802  -1.220   0.006  0.00  0.00    +0.229 C 
ENDBRANCH  32  34
ENDBRANCH  30  32
ENDBRANCH  24  30
ENDBRANCH   1  27
BRANCH   5  35
ATOM     35  C   UNL     1       4.911  -4.181  10.265  0.00  0.00    +0.115 C 
BRANCH  35  36
ATOM     36  C   UNL     1       5.995  -3.140  10.360  0.00  0.00    +0.212 C 
ATOM     37  O   UNL     1       6.027  -2.223   9.566  0.00  0.00    -0.276 OA
ATOM     38  N   UNL     1       6.931  -3.227  11.327  0.00  0.00    -0.329 N 
ATOM     39  H   UNL     1       6.905  -3.960  11.961  0.00  0.00    +0.145 HD
ATOM     40  H   UNL     1       7.629  -2.556  11.388  0.00  0.00    +0.145 HD
ENDBRANCH  35  36
ENDBRANCH   5  35
TORSDOF 6
