REMARK  Name = ZINC40038120
REMARK  8 active torsions:
REMARK  status: ('A' for Active; 'I' for Inactive)
REMARK    1  A    between atoms: C_1  and  C_2
REMARK    2  A    between atoms: C_4  and  C_32
REMARK    3  A    between atoms: C_8  and  C_31
REMARK    4  A    between atoms: C_9  and  C_11
REMARK    5  A    between atoms: N_13  and  C_14
REMARK    6  A    between atoms: C_15  and  C_22
REMARK    7  A    between atoms: N_24  and  C_25
REMARK    8  A    between atoms: C_25  and  C_26
REMARK                            x       y       z     vdW  Elec       q    Type
REMARK                         _______ _______ _______ _____ _____    ______ ____
ROOT
ATOM      1  C   UNL     1       0.125  -7.985   2.090  0.00  0.00    +0.085 A 
ATOM      2  C   UNL     1       0.145  -9.231   1.490  0.00  0.00    +0.069 A 
ATOM      3  C   UNL     1       0.165 -10.398   2.371  0.00  0.00    -0.023 A 
ATOM      4  C   UNL     1       0.159 -10.095   3.682  0.00  0.00    -0.004 A 
ATOM      5  S   UNL     1       0.139  -8.321   3.733  0.00  0.00    -0.077 S 
ATOM      6  C   UNL     1       0.176 -11.330   4.542  0.00  0.00    +0.043 C 
ATOM      7  C   UNL     1      -0.240 -12.474   3.591  0.00  0.00    +0.010 C 
ATOM      8  C   UNL     1       0.193 -11.917   2.220  0.00  0.00    +0.037 C 
ENDROOT
BRANCH   1  11
ATOM      9  C   UNL     1       0.092  -5.622   2.221  0.00  0.00    +0.284 C 
ATOM     10  O   UNL     1       0.099  -5.699   3.435  0.00  0.00    -0.266 OA
ATOM     11  N   UNL     1       0.104  -6.744   1.474  0.00  0.00    -0.273 N 
ATOM     12  H   UNL     1       0.098  -6.683   0.506  0.00  0.00    +0.156 HD
BRANCH   9  21
ATOM     13  C   UNL     1      -0.018   1.503   0.010  0.00  0.00    +0.044 C 
ATOM     14  C   UNL     1       0.002  -0.004   0.002  0.00  0.00    -0.049 A 
ATOM     15  C   UNL     1       0.006  -0.687  -1.207  0.00  0.00    +0.010 A 
ATOM     16  C   UNL     1       0.025  -2.064  -1.238  0.00  0.00    -0.007 A 
ATOM     17  C   UNL     1       0.041  -2.783  -0.048  0.00  0.00    +0.139 A 
ATOM     18  C   UNL     1       0.037  -2.086   1.175  0.00  0.00    +0.024 A 
ATOM     19  C   UNL     1       0.023  -0.689   1.184  0.00  0.00    +0.015 A 
ATOM     20  C   UNL     1       0.056  -3.112   2.216  0.00  0.00    +0.008 A 
ATOM     21  C   UNL     1       0.070  -4.306   1.568  0.00  0.00    +0.194 A 
ATOM     22  O   UNL     1       0.060  -4.100   0.235  0.00  0.00    -0.450 OA
ATOM     23  C   UNL     1       0.061  -2.890   3.707  0.00  0.00    +0.048 C 
ATOM     24  C   UNL     1       0.028  -2.790  -2.558  0.00  0.00    +0.047 C 
ENDBRANCH   9  21
ENDBRANCH   1  11
BRANCH   2  25
ATOM     25  C   UNL     1       0.146  -9.376   0.032  0.00  0.00    +0.247 C 
ATOM     26  O   UNL     1       1.200  -9.420  -0.575  0.00  0.00    -0.270 OA
ATOM     27  N   UNL     1      -1.021  -9.462  -0.638  0.00  0.00    -0.304 N 
ATOM     28  H   UNL     1      -1.861  -9.428  -0.154  0.00  0.00    +0.149 HD
BRANCH  27  29
ATOM     29  C   UNL     1      -1.020  -9.607  -2.095  0.00  0.00    +0.179 C 
BRANCH  29  30
ATOM     30  C   UNL     1      -2.441  -9.680  -2.594  0.00  0.00    +0.122 A 
ATOM     31  C   UNL     1      -3.198  -8.633  -2.967  0.00  0.00    +0.046 A 
ATOM     32  C   UNL     1      -4.452  -9.154  -3.362  0.00  0.00    +0.041 A 
ATOM     33  C   UNL     1      -4.385 -10.489  -3.206  0.00  0.00    +0.195 A 
ATOM     34  O   UNL     1      -3.163 -10.802  -2.746  0.00  0.00    -0.466 OA
ENDBRANCH  29  30
ENDBRANCH  27  29
ENDBRANCH   2  25
TORSDOF 5
