REMARK  Name = ZINC59644702
REMARK  7 active torsions:
REMARK  status: ('A' for Active; 'I' for Inactive)
REMARK    1  A    between atoms: C_1  and  N_2
REMARK    2  A    between atoms: N_2  and  C_3
REMARK    3  A    between atoms: N_2  and  C_4
REMARK    4  A    between atoms: C_7  and  C_11
REMARK    5  A    between atoms: N_12  and  N_13
REMARK    6  A    between atoms: C_14  and  C_16
REMARK    7  A    between atoms: C_16  and  C_17
REMARK                            x       y       z     vdW  Elec       q    Type
REMARK                         _______ _______ _______ _____ _____    ______ ____
ROOT
ATOM      1  N   UNL     1      -1.131  -3.824  -6.672  0.00  0.00    -0.207 N 
ATOM      2  C   UNL     1      -2.299  -4.170  -7.250  0.00  0.00    +0.238 C 
ATOM      3  O   UNL     1      -3.349  -3.880  -6.715  0.00  0.00    -0.274 OA
ATOM      4  H   UNL     1      -0.292  -4.056  -7.099  0.00  0.00    +0.177 HD
ENDROOT
BRANCH   1   6
ATOM      5  C   UNL     1      -0.005  -2.798  -4.899  0.00  0.00    +0.138 C 
ATOM      6  N   UNL     1      -1.130  -3.131  -5.455  0.00  0.00    -0.188 NA
BRANCH   5  10
ATOM      7  C   UNL     1       0.000  -0.695  -1.210  0.00  0.00    +0.043 A 
ATOM      8  C   UNL     1       1.204  -1.027  -1.821  0.00  0.00    +0.025 A 
ATOM      9  C   UNL     1       1.206  -1.710  -3.018  0.00  0.00    +0.011 A 
ATOM     10  C   UNL     1      -0.004  -2.069  -3.618  0.00  0.00    -0.004 A 
ATOM     11  C   UNL     1      -1.212  -1.734  -3.001  0.00  0.00    +0.026 A 
ATOM     12  C   UNL     1      -1.207  -1.055  -1.802  0.00  0.00    +0.039 A 
ATOM     13 BR   UNL     1      -2.841  -0.608  -0.962  0.00  0.00    -0.048 Br
BRANCH   7  15
ATOM     14  C   UNL     1      -0.018   1.461   0.010  0.00  0.00    +0.129 C 
ATOM     15  N   UNL     1       0.002  -0.004   0.002  0.00  0.00    -0.335 N 
ATOM     16  C   UNL     1       0.024  -0.743   1.267  0.00  0.00    +0.129 C 
ENDBRANCH   7  15
ENDBRANCH   5  10
ENDBRANCH   1   6
BRANCH   2  17
ATOM     17  C   UNL     1      -2.301  -4.916  -8.559  0.00  0.00    +0.153 C 
BRANCH  17  18
ATOM     18  C   UNL     1      -3.722  -5.179  -8.986  0.00  0.00    +0.059 A 
ATOM     19  C   UNL     1      -4.179  -4.792 -10.200  0.00  0.00    +0.072 A 
ATOM     20  S   UNL     1      -5.869  -5.363 -10.119  0.00  0.00    -0.061 S 
ATOM     21  C   UNL     1      -5.817  -6.024  -8.572  0.00  0.00    +0.156 A 
ATOM     22  N   UNL     1      -4.576  -5.802  -8.193  0.00  0.00    -0.230 NA
ATOM     23  N   UNL     1      -6.833  -6.653  -7.870  0.00  0.00    -0.338 N 
ATOM     24  H   UNL     1      -7.709  -6.755  -8.272  0.00  0.00    +0.144 HD
ATOM     25  H   UNL     1      -6.667  -6.992  -6.976  0.00  0.00    +0.144 HD
ENDBRANCH  17  18
ENDBRANCH   2  17
TORSDOF 5
