REMARK  Name = ZINC67010543
REMARK  8 active torsions:
REMARK  status: ('A' for Active; 'I' for Inactive)
REMARK    1  A    between atoms: C_1  and  C_2
REMARK    2  A    between atoms: C_2  and  C_4
REMARK    3  A    between atoms: C_2  and  N_15
REMARK    4  A    between atoms: C_8  and  S_10
REMARK    5  A    between atoms: S_10  and  N_13
REMARK    6  A    between atoms: N_13  and  C_14
REMARK    7  A    between atoms: N_15  and  C_16
REMARK    8  A    between atoms: C_16  and  C_17
REMARK                            x       y       z     vdW  Elec       q    Type
REMARK                         _______ _______ _______ _____ _____    ______ ____
ROOT
ATOM      1  N   UNL     1       0.690  -0.478  -1.207  0.00  0.00    +0.386 N 
ATOM      2  H   UNL     1       0.632  -1.484  -1.254  0.00  0.00    -0.085 HD
ATOM      3  H   UNL     1       0.251  -0.077  -2.022  0.00  0.00    -0.085 HD
ENDROOT
BRANCH   1   5
ATOM      4  C   UNL     1      -0.019   1.526   0.010  0.00  0.00    -0.009 C 
ATOM      5  C   UNL     1       0.002  -0.004   0.002  0.00  0.00    -0.044 C 
BRANCH   5   6
ATOM      6  C   UNL     1      -1.412  -0.526   0.013  0.00  0.00    -0.060 A 
ATOM      7  C   UNL     1      -2.142  -0.569  -1.161  0.00  0.00    +0.002 A 
ATOM      8  C   UNL     1      -3.438  -1.047  -1.151  0.00  0.00    +0.002 A 
ATOM      9  C   UNL     1      -4.005  -1.483   0.032  0.00  0.00    +0.028 A 
ATOM     10  C   UNL     1      -3.275  -1.441   1.205  0.00  0.00    +0.105 A 
ATOM     11  C   UNL     1      -1.977  -0.966   1.195  0.00  0.00    +0.030 A 
BRANCH  10  12
ATOM     12  S   UNL     1      -3.998  -1.996   2.713  0.00  0.00    +0.058 S 
ATOM     13  O   UNL     1      -3.297  -1.344   3.764  0.00  0.00    -0.153 OA
ATOM     14  O   UNL     1      -5.406  -1.885   2.554  0.00  0.00    -0.153 OA
BRANCH  12  15
ATOM     15  N   UNL     1      -3.663  -3.611   2.851  0.00  0.00    -0.193 NA
ATOM     16  C   UNL     1      -2.277  -4.062   3.005  0.00  0.00    +0.127 C 
ATOM     17  H   UNL     1      -4.384  -4.260   2.831  0.00  0.00    +0.148 HD
ENDBRANCH  12  15
ENDBRANCH  10  12
ENDBRANCH   5   6
ENDBRANCH   1   5
BRANCH   1  18
ATOM     18  C   UNL     1       2.100  -0.070  -1.159  0.00  0.00    -0.046 C 
BRANCH  18  19
ATOM     19  C   UNL     1       2.806  -0.556  -2.399  0.00  0.00    -0.059 A 
ATOM     20  C   UNL     1       3.400  -1.804  -2.410  0.00  0.00    +0.051 A 
ATOM     21  C   UNL     1       4.050  -2.255  -3.550  0.00  0.00    +0.164 A 
ATOM     22  C   UNL     1       4.099  -1.449  -4.681  0.00  0.00    +0.180 A 
ATOM     23  C   UNL     1       3.502  -0.197  -4.663  0.00  0.00    +0.086 A 
ATOM     24  C   UNL     1       2.852   0.244  -3.525  0.00  0.00    +0.025 A 
ATOM     25 CL   UNL     1       3.565   0.814  -6.073  0.00  0.00    -0.080 Cl
ATOM     26  O   UNL     1       4.725  -1.875  -5.813  0.00  0.00    -0.483 OA
ATOM     27  C   UNL     1       5.630  -2.976  -5.672  0.00  0.00    +0.270 C 
ATOM     28  C   UNL     1       4.947  -4.054  -4.819  0.00  0.00    +0.270 C 
ATOM     29  O   UNL     1       4.634  -3.484  -3.544  0.00  0.00    -0.485 OA
ENDBRANCH  18  19
ENDBRANCH   1  18
TORSDOF 6
