REMARK  Name = ZINC20206903
REMARK  12 active torsions:
REMARK  status: ('A' for Active; 'I' for Inactive)
REMARK    1  A    between atoms: C_1  and  C_2
REMARK    2  A    between atoms: C_5  and  S_8
REMARK    3  A    between atoms: S_8  and  N_11
REMARK    4  A    between atoms: N_11  and  C_12
REMARK    5  A    between atoms: N_11  and  C_28
REMARK    6  A    between atoms: C_12  and  C_13
REMARK    7  A    between atoms: N_15  and  N_16
REMARK    8  A    between atoms: C_17  and  C_18
REMARK    9  A    between atoms: C_21  and  O_24
REMARK   10  A    between atoms: O_24  and  C_25
REMARK   11  A    between atoms: C_25  and  C_26
REMARK   12  A    between atoms: C_33  and  C_34
REMARK                            x       y       z     vdW  Elec       q    Type
REMARK                         _______ _______ _______ _____ _____    ______ ____
ROOT
ATOM      1  N   UNL     1       1.250  -4.840  -0.413  0.00  0.00    -0.194 N 
ENDROOT
BRANCH   1   2
ATOM      2  C   UNL     1       2.033  -5.011  -1.558  0.00  0.00    +0.055 A 
ATOM      3  C   UNL     1       1.978  -6.205  -2.266  0.00  0.00    +0.026 A 
ATOM      4  C   UNL     1       2.753  -6.371  -3.397  0.00  0.00    +0.022 A 
ATOM      5  C   UNL     1       3.583  -5.349  -3.825  0.00  0.00    +0.041 A 
ATOM      6  C   UNL     1       3.640  -4.160  -3.122  0.00  0.00    +0.025 A 
ATOM      7  C   UNL     1       2.863  -3.986  -1.992  0.00  0.00    -0.026 A 
ATOM      8  C   UNL     1       2.921  -2.687  -1.230  0.00  0.00    +0.046 C 
ATOM      9 CL   UNL     1       4.556  -5.562  -5.247  0.00  0.00    -0.084 Cl
ENDBRANCH   1   2
BRANCH   1  10
ATOM     10  S   UNL     1      -0.263  -4.177  -0.536  0.00  0.00    +0.075 S 
ATOM     11  O   UNL     1      -0.947  -4.501   0.666  0.00  0.00    -0.150 OA
ATOM     12  O   UNL     1      -0.761  -4.538  -1.817  0.00  0.00    -0.150 OA
BRANCH  10  17
ATOM     13  C   UNL     1       0.410   1.819  -0.574  0.00  0.00    +0.044 C 
ATOM     14  C   UNL     1       0.242   0.321  -0.564  0.00  0.00    -0.050 A 
ATOM     15  C   UNL     1       0.095  -0.365  -1.755  0.00  0.00    +0.005 A 
ATOM     16  C   UNL     1      -0.059  -1.739  -1.747  0.00  0.00    +0.029 A 
ATOM     17  C   UNL     1      -0.065  -2.426  -0.547  0.00  0.00    +0.109 A 
ATOM     18  C   UNL     1       0.082  -1.740   0.644  0.00  0.00    +0.029 A 
ATOM     19  C   UNL     1       0.240  -0.367   0.635  0.00  0.00    +0.005 A 
ENDBRANCH  10  17
ENDBRANCH   1  10
BRANCH   1  20
ATOM     20  C   UNL     1       1.767  -5.246   0.896  0.00  0.00    +0.228 C 
BRANCH  20  21
ATOM     21  C   UNL     1       1.500  -6.714   1.108  0.00  0.00    +0.251 C 
ATOM     22  O   UNL     1       0.932  -7.357   0.250  0.00  0.00    -0.272 OA
ATOM     23  N   UNL     1       1.890  -7.312   2.251  0.00  0.00    -0.206 N 
ATOM     24  H   UNL     1       2.344  -6.798   2.937  0.00  0.00    +0.177 HD
BRANCH  23  25
ATOM     25  N   UNL     1       1.641  -8.677   2.448  0.00  0.00    -0.188 NA
ATOM     26  C   UNL     1       2.018  -9.253   3.548  0.00  0.00    +0.138 C 
BRANCH  26  27
ATOM     27  C   UNL     1       1.756 -10.689   3.756  0.00  0.00    -0.005 A 
ATOM     28  C   UNL     1       1.108 -11.433   2.766  0.00  0.00    +0.013 A 
ATOM     29  C   UNL     1       0.866 -12.775   2.964  0.00  0.00    +0.046 A 
ATOM     30  C   UNL     1       1.264 -13.388   4.145  0.00  0.00    +0.121 A 
ATOM     31  C   UNL     1       1.909 -12.652   5.131  0.00  0.00    +0.046 A 
ATOM     32  C   UNL     1       2.160 -11.311   4.940  0.00  0.00    +0.013 A 
BRANCH  30  33
ATOM     33  O   UNL     1       1.024 -14.711   4.336  0.00  0.00    -0.488 OA
BRANCH  33  34
ATOM     34  C   UNL     1       1.460 -15.278   5.573  0.00  0.00    +0.256 C 
BRANCH  34  35
ATOM     35  C   UNL     1       1.110 -16.744   5.605  0.00  0.00    +0.006 C 
ATOM     36  C   UNL     1       1.992 -17.619   6.018  0.00  0.00    +0.007 C 
ENDBRANCH  34  35
ENDBRANCH  33  34
ENDBRANCH  30  33
ENDBRANCH  26  27
ENDBRANCH  23  25
ENDBRANCH  20  21
ENDBRANCH   1  20
TORSDOF 10
