REMARK  Name = ZINC03210562
REMARK  4 active torsions:
REMARK  status: ('A' for Active; 'I' for Inactive)
REMARK    1  A    between atoms: C_1  and  C_2
REMARK    2  A    between atoms: C_2  and  C_17
REMARK    3  A    between atoms: N_8  and  C_11
REMARK    4  A    between atoms: C_20  and  N_23
REMARK                            x       y       z     vdW  Elec       q    Type
REMARK                         _______ _______ _______ _____ _____    ______ ____
ROOT
ATOM      1  C   UNL     1      -0.060   6.500   1.394  0.00  0.00    +0.045 C 
ATOM      2  C   UNL     1      -0.553   5.756   0.180  0.00  0.00    -0.029 C 
ATOM      3  C   UNL     1      -0.725   6.415  -0.999  0.00  0.00    +0.069 A 
ATOM      4  C   UNL     1      -1.061   5.827  -2.319  0.00  0.00    +0.061 A 
ATOM      5  C   UNL     1      -1.259   4.534  -2.596  0.00  0.00    +0.038 C 
ATOM      6  N   UNL     1      -1.133   6.897  -3.212  0.00  0.00    -0.290 N 
ATOM      7  H   UNL     1      -1.338   6.823  -4.157  0.00  0.00    +0.187 HD
ATOM      8  N   UNL     1      -0.858   8.089  -2.542  0.00  0.00    -0.219 N 
ATOM      9  C   UNL     1      -0.612   7.867  -1.239  0.00  0.00    +0.280 A 
ATOM     10  O   UNL     1      -0.342   8.712  -0.407  0.00  0.00    -0.265 OA
ENDROOT
BRANCH   8  11
ATOM     11  C   UNL     1      -0.842   9.351  -3.145  0.00  0.00    +0.067 A 
ATOM     12  C   UNL     1      -0.564  10.481  -2.388  0.00  0.00    +0.028 A 
ATOM     13  C   UNL     1      -0.543  11.725  -2.988  0.00  0.00    +0.002 A 
ATOM     14  C   UNL     1      -0.812  11.847  -4.339  0.00  0.00    +0.000 A 
ATOM     15  C   UNL     1      -1.095  10.724  -5.095  0.00  0.00    +0.002 A 
ATOM     16  C   UNL     1      -1.111   9.476  -4.502  0.00  0.00    +0.028 A 
ENDBRANCH   8  11
BRANCH   2  17
ATOM     17  C   UNL     1      -0.848   4.320   0.269  0.00  0.00    -0.021 A 
ATOM     18  C   UNL     1      -2.173   3.870   0.235  0.00  0.00    +0.010 A 
ATOM     19  C   UNL     1      -2.441   2.520   0.319  0.00  0.00    +0.033 A 
ATOM     20  C   UNL     1      -1.404   1.611   0.437  0.00  0.00    +0.126 A 
ATOM     21  C   UNL     1      -0.091   2.048   0.476  0.00  0.00    +0.033 A 
ATOM     22  C   UNL     1       0.195   3.393   0.388  0.00  0.00    +0.010 A 
BRANCH  20  23
ATOM     23  N   UNL     1      -1.701   0.164   0.527  0.00  0.00    +0.056 N 
ATOM     24  O   UNL     1      -2.855  -0.224   0.498  0.00  0.00    -0.126 OA
ATOM     25  O   UNL     1      -0.791  -0.640   0.631  0.00  0.00    -0.126 OA
ENDBRANCH  20  23
ENDBRANCH   2  17
TORSDOF 3
