REMARK  Name = ZINC02457396
REMARK  9 active torsions:
REMARK  status: ('A' for Active; 'I' for Inactive)
REMARK    1  A    between atoms: C_1  and  C_2
REMARK    2  A    between atoms: C_2  and  C_3
REMARK    3  A    between atoms: C_3  and  C_4
REMARK    4  A    between atoms: C_3  and  C_5
REMARK    5  A    between atoms: C_3  and  N_13
REMARK    6  A    between atoms: N_7  and  C_8
REMARK    7  A    between atoms: N_13  and  C_14
REMARK    8  A    between atoms: C_14  and  C_15
REMARK    9  A    between atoms: C_21  and  C_23
REMARK                            x       y       z     vdW  Elec       q    Type
REMARK                         _______ _______ _______ _____ _____    ______ ____
ROOT
ATOM      1  N   UNL     1      -2.145  -0.965   1.308  0.00  0.00    -0.281 N 
ATOM      2  C   UNL     1      -1.852  -0.957   2.623  0.00  0.00    +0.248 C 
ATOM      3  O   UNL     1      -0.738  -0.641   2.995  0.00  0.00    -0.270 OA
ENDROOT
BRANCH   2   4
ATOM      4  C   UNL     1      -2.882  -1.329   3.612  0.00  0.00    +0.041 A 
ATOM      5  C   UNL     1      -4.186  -0.842   3.482  0.00  0.00    +0.017 A 
ATOM      6  C   UNL     1      -5.146  -1.192   4.405  0.00  0.00    +0.050 A 
ATOM      7  C   UNL     1      -4.825  -2.027   5.466  0.00  0.00    +0.166 A 
ATOM      8  C   UNL     1      -3.525  -2.517   5.602  0.00  0.00    +0.167 A 
ATOM      9  C   UNL     1      -2.559  -2.174   4.676  0.00  0.00    +0.062 A 
ATOM     10  O   UNL     1      -3.471  -3.307   6.714  0.00  0.00    -0.453 OA
ATOM     11  C   UNL     1      -4.640  -2.968   7.483  0.00  0.00    +0.466 C 
ATOM     12  O   UNL     1      -5.581  -2.512   6.493  0.00  0.00    -0.453 OA
ENDBRANCH   2   4
BRANCH   1  13
ATOM     13  C   UNL     1      -1.085  -0.753   0.319  0.00  0.00    +0.111 C 
ATOM     14  C   UNL     1       0.020  -1.791   0.526  0.00  0.00    +0.042 C 
BRANCH  13  15
ATOM     15  C   UNL     1      -1.655  -0.897  -1.068  0.00  0.00    +0.237 C 
ATOM     16  O   UNL     1      -1.661   0.053  -1.823  0.00  0.00    -0.273 OA
ATOM     17  N   UNL     1      -2.160  -2.080  -1.470  0.00  0.00    -0.311 N 
ATOM     18  H   UNL     1      -2.236  -2.814  -0.841  0.00  0.00    +0.149 HD
BRANCH  17  19
ATOM     19  C   UNL     1      -2.595  -2.257  -2.858  0.00  0.00    +0.073 C 
ATOM     20  C   UNL     1      -4.088  -1.895  -2.995  0.00  0.00    +0.022 C 
ATOM     21  C   UNL     1      -4.636  -2.922  -4.017  0.00  0.00    +0.002 C 
ATOM     22  C   UNL     1      -3.878  -4.219  -3.639  0.00  0.00    +0.002 C 
ATOM     23  C   UNL     1      -2.461  -3.734  -3.268  0.00  0.00    +0.022 C 
ENDBRANCH  17  19
ENDBRANCH  13  15
BRANCH  13  25
ATOM     24  C   UNL     1      -1.630   1.683   0.406  0.00  0.00    +0.006 C 
ATOM     25  C   UNL     1      -0.503   0.652   0.489  0.00  0.00    +0.032 C 
ENDBRANCH  13  25
ENDBRANCH   1  13
BRANCH   1  26
ATOM     26  C   UNL     1      -3.524  -1.187   0.866  0.00  0.00    +0.140 C 
BRANCH  26  27
ATOM     27  C   UNL     1      -4.199   0.161   0.605  0.00  0.00    +0.136 C 
ATOM     28  C   UNL     1      -5.733  -0.015   0.594  0.00  0.00    +0.035 C 
ATOM     29  C   UNL     1      -6.165   0.929  -0.561  0.00  0.00    +0.031 C 
ATOM     30  C   UNL     1      -4.965   0.776  -1.530  0.00  0.00    +0.160 C 
ATOM     31  O   UNL     1      -3.810   0.657  -0.681  0.00  0.00    -0.375 OA
ENDBRANCH  26  27
ENDBRANCH   1  26
TORSDOF 7
