REMARK  Name = ZINC04460409
REMARK  8 active torsions:
REMARK  status: ('A' for Active; 'I' for Inactive)
REMARK    1  A    between atoms: C_6  and  C_7
REMARK    2  A    between atoms: C_7  and  C_9
REMARK    3  A    between atoms: C_9  and  O_10
REMARK    4  A    between atoms: O_10  and  C_11
REMARK    5  A    between atoms: C_11  and  C_13
REMARK    6  A    between atoms: C_13  and  C_14
REMARK    7  A    between atoms: C_14  and  C_15
REMARK    8  A    between atoms: C_15  and  C_17
REMARK                            x       y       z     vdW  Elec       q    Type
REMARK                         _______ _______ _______ _____ _____    ______ ____
ROOT
ATOM      1  O   UNL     1       8.540   0.739  -0.077  0.00  0.00    -0.457 OA
ENDROOT
BRANCH   1   2
ATOM      2  C   UNL     1       7.253   1.118  -0.062  0.00  0.00    +0.308 C 
ATOM      3  O   UNL     1       6.969   2.293  -0.052  0.00  0.00    -0.251 OA
BRANCH   2   4
ATOM      4  C   UNL     1       6.161   0.079  -0.057  0.00  0.00    +0.128 C 
BRANCH   4   5
ATOM      5  C   UNL     1       4.797   0.773  -0.040  0.00  0.00    +0.091 C 
BRANCH   5   6
ATOM      6  C   UNL     1       3.706  -0.266  -0.035  0.00  0.00    +0.170 C 
ATOM      7  O   UNL     1       3.991  -1.447  -0.045  0.00  0.00    -0.291 OA
BRANCH   6   8
ATOM      8  C   UNL     1       2.353   0.132  -0.020  0.00  0.00    +0.056 A 
ATOM      9  C   UNL     1       1.206  -0.656  -0.013  0.00  0.00    +0.020 A 
ATOM     10  C   UNL     1       0.002  -0.004   0.002  0.00  0.00    +0.028 A 
ATOM     11  C   UNL     1      -0.016   1.359   0.009  0.00  0.00    +0.079 A 
ATOM     12  S   UNL     1       1.665   1.779  -0.004  0.00  0.00    -0.074 S 
ATOM     13 CL   UNL     1      -1.392   2.418   0.022  0.00  0.00    -0.076 Cl
ENDBRANCH   6   8
ENDBRANCH   5   6
ENDBRANCH   4   5
ENDBRANCH   2   4
ENDBRANCH   1   2
BRANCH   1  14
ATOM     14  C   UNL     1       9.538   1.794  -0.080  0.00  0.00    +0.311 C 
BRANCH  14  15
ATOM     15  C   UNL     1      10.915   1.182  -0.097  0.00  0.00    +0.200 C 
ATOM     16  O   UNL     1      11.043  -0.024  -0.105  0.00  0.00    -0.288 OA
BRANCH  15  22
ATOM     17  C   UNL     1      11.963   3.439  -0.095  0.00  0.00    +0.012 A 
ATOM     18  C   UNL     1      13.083   4.241  -0.101  0.00  0.00    +0.004 A 
ATOM     19  C   UNL     1      14.351   3.678  -0.117  0.00  0.00    -0.044 A 
ATOM     20  C   UNL     1      14.499   2.301  -0.126  0.00  0.00    -0.044 A 
ATOM     21  C   UNL     1      13.385   1.486  -0.114  0.00  0.00    +0.015 A 
ATOM     22  C   UNL     1      12.105   2.048  -0.104  0.00  0.00    +0.021 A 
ATOM     23  C   UNL     1      15.971   1.946  -0.143  0.00  0.00    +0.036 C 
ATOM     24  C   UNL     1      16.702   3.232   0.298  0.00  0.00    +0.009 C 
ATOM     25  C   UNL     1      15.713   4.338  -0.127  0.00  0.00    +0.036 C 
ENDBRANCH  15  22
ENDBRANCH  14  15
ENDBRANCH   1  14
TORSDOF 8
