REMARK  Name = ZINC24891541
REMARK  6 active torsions:
REMARK  status: ('A' for Active; 'I' for Inactive)
REMARK    1  A    between atoms: C_1  and  C_2
REMARK    2  A    between atoms: C_2  and  C_4
REMARK    3  A    between atoms: C_2  and  S_14
REMARK    4  A    between atoms: N_10  and  C_11
REMARK    5  A    between atoms: N_10  and  C_12
REMARK    6  A    between atoms: S_14  and  C_15
REMARK                            x       y       z     vdW  Elec       q    Type
REMARK                         _______ _______ _______ _____ _____    ______ ____
ROOT
ATOM      1  C   UNL     1      -0.629   3.109   1.375  0.00  0.00    +0.149 A 
ATOM      2  N   UNL     1       0.500   3.683   1.753  0.00  0.00    -0.198 NA
ATOM      3  C   UNL     1       0.578   5.009   1.841  0.00  0.00    +0.217 A 
ATOM      4  N   UNL     1      -0.484   5.755   1.557  0.00  0.00    -0.181 NA
ATOM      5  C   UNL     1      -1.618   5.175   1.182  0.00  0.00    +0.222 A 
ATOM      6  N   UNL     1      -1.687   3.848   1.092  0.00  0.00    -0.198 NA
ATOM      7  N   UNL     1      -2.724   5.946   0.886  0.00  0.00    -0.306 N 
ATOM      8  C   UNL     1      -3.974   5.304   0.472  0.00  0.00    +0.132 C 
ATOM      9  C   UNL     1      -2.647   7.405   0.985  0.00  0.00    +0.132 C 
ATOM     10  N   UNL     1       1.759   5.607   2.231  0.00  0.00    -0.327 N 
ATOM     11  H   UNL     1       1.823   6.703   2.303  0.00  0.00    +0.145 HD
ATOM     12  H   UNL     1       2.636   4.988   2.469  0.00  0.00    +0.145 HD
ENDROOT
BRANCH   1  14
ATOM     13  C   UNL     1       0.021   1.142   0.013  0.00  0.00    +0.027 C 
ATOM     14  C   UNL     1      -0.712   1.608   1.272  0.00  0.00    +0.116 C 
BRANCH  14  15
ATOM     15  S   UNL     1       0.060   0.859   2.733  0.00  0.00    -0.114 S 
BRANCH  15  16
ATOM     16  C   UNL     1      -1.035   1.270   4.051  0.00  0.00    +0.009 A 
ATOM     17  C   UNL     1      -2.239   1.908   3.782  0.00  0.00    +0.017 A 
ATOM     18  C   UNL     1      -3.097   2.225   4.817  0.00  0.00    +0.039 A 
ATOM     19  C   UNL     1      -2.754   1.917   6.122  0.00  0.00    +0.123 A 
ATOM     20  C   UNL     1      -1.551   1.285   6.393  0.00  0.00    +0.039 A 
ATOM     21  C   UNL     1      -0.692   0.961   5.362  0.00  0.00    +0.017 A 
ATOM     22  F   UNL     1      -3.593   2.232   7.133  0.00  0.00    -0.205 F 
ENDBRANCH  15  16
ENDBRANCH  14  15
ENDBRANCH   1  14
TORSDOF 3
