REMARK  Name = ZINC60164735
REMARK  12 active torsions:
REMARK  status: ('A' for Active; 'I' for Inactive)
REMARK    1  A    between atoms: C_1  and  C_2
REMARK    2  A    between atoms: C_2  and  C_3
REMARK    3  A    between atoms: C_3  and  C_5
REMARK    4  A    between atoms: C_3  and  N_6
REMARK    5  A    between atoms: C_7  and  C_9
REMARK    6  A    between atoms: C_9  and  C_11
REMARK    7  A    between atoms: C_9  and  N_12
REMARK    8  A    between atoms: C_13  and  C_15
REMARK    9  A    between atoms: C_15  and  N_16
REMARK   10  A    between atoms: C_21  and  C_28
REMARK   11  A    between atoms: C_24  and  C_26
REMARK   12  A    between atoms: C_24  and  C_27
REMARK                            x       y       z     vdW  Elec       q    Type
REMARK                         _______ _______ _______ _____ _____    ______ ____
ROOT
ATOM      1  N   UNL     1      -0.106   0.018   9.539  0.00  0.00    -0.215 N 
ATOM      2  C   UNL     1      -0.601   1.009  10.309  0.00  0.00    +0.247 C 
ATOM      3  O   UNL     1      -0.655   2.190  10.041  0.00  0.00    -0.273 OA
ATOM      4  C   UNL     1      -1.073   0.336  11.578  0.00  0.00    +0.113 C 
ATOM      5  C   UNL     1      -2.573   0.537  11.759  0.00  0.00    +0.038 C 
ATOM      6  C   UNL     1      -3.035  -0.177  13.032  0.00  0.00    -0.011 C 
ATOM      7  C   UNL     1      -2.279   0.388  14.236  0.00  0.00    +0.009 C 
ATOM      8  C   UNL     1      -0.778   0.159  14.050  0.00  0.00    -0.032 C 
ATOM      9  C   UNL     1      -0.307   0.874  12.782  0.00  0.00    +0.041 C 
ATOM     10  C   UNL     1      -0.023   0.715  15.260  0.00  0.00    +0.011 C 
ATOM     11  C   UNL     1      -0.503  -1.341  13.923  0.00  0.00    +0.011 C 
ATOM     12  C   UNL     1      -4.537   0.043  13.224  0.00  0.00    +0.007 C 
ATOM     13  N   UNL     1      -0.765  -1.083  11.364  0.00  0.00    -0.285 N 
ATOM     14  C   UNL     1      -0.206  -1.172  10.142  0.00  0.00    +0.310 C 
ATOM     15  O   UNL     1       0.168  -2.216   9.644  0.00  0.00    -0.252 OA
ATOM     16  H   UNL     1      -0.934  -1.813  11.980  0.00  0.00    +0.151 HD
ENDROOT
BRANCH   1  17
ATOM     17  C   UNL     1       0.466   0.220   8.205  0.00  0.00    +0.213 C 
BRANCH  17  19
ATOM     18  N   UNL     1      -0.329   0.255   5.863  0.00  0.00    -0.303 N 
ATOM     19  C   UNL     1      -0.623   0.104   7.170  0.00  0.00    +0.232 C 
ATOM     20  O   UNL     1      -1.764  -0.124   7.512  0.00  0.00    -0.274 OA
ATOM     21  H   UNL     1       0.583   0.437   5.589  0.00  0.00    +0.149 HD
BRANCH  18  22
ATOM     22  C   UNL     1      -1.388   0.142   4.856  0.00  0.00    +0.156 C 
ATOM     23  C   UNL     1      -2.091   1.492   4.703  0.00  0.00    +0.038 C 
BRANCH  22  25
ATOM     24  N   UNL     1      -1.575  -0.428   2.457  0.00  0.00    -0.311 N 
ATOM     25  C   UNL     1      -0.785  -0.263   3.536  0.00  0.00    +0.233 C 
ATOM     26  O   UNL     1       0.412  -0.441   3.445  0.00  0.00    -0.274 OA
ATOM     27  H   UNL     1      -2.531  -0.287   2.530  0.00  0.00    +0.149 HD
BRANCH  24  28
ATOM     28  C   UNL     1      -0.988  -0.822   1.173  0.00  0.00    +0.070 C 
ATOM     29  C   UNL     1      -0.849  -2.345   1.122  0.00  0.00    +0.028 C 
BRANCH  28  31
ATOM     30  C   UNL     1      -1.934   1.175   0.008  0.00  0.00    +0.005 C 
ATOM     31  C   UNL     1      -1.895  -0.355   0.033  0.00  0.00    +0.018 C 
ENDBRANCH  28  31
ENDBRANCH  24  28
ENDBRANCH  22  25
ENDBRANCH  18  22
ENDBRANCH  17  19
ENDBRANCH   1  17
TORSDOF 6
