REMARK  Name = ZINC61079868
REMARK  5 active torsions:
REMARK  status: ('A' for Active; 'I' for Inactive)
REMARK    1  A    between atoms: C_2  and  C_10
REMARK    2  A    between atoms: C_6  and  N_7
REMARK    3  A    between atoms: N_12  and  C_13
REMARK    4  A    between atoms: C_13  and  C_14
REMARK    5  A    between atoms: C_14  and  C_15
REMARK                            x       y       z     vdW  Elec       q    Type
REMARK                         _______ _______ _______ _____ _____    ______ ____
ROOT
ATOM      1  C   UNL     1       1.173   3.567   0.009  0.00  0.00    +0.245 C 
ATOM      2  O   UNL     1       2.221   4.184   0.003  0.00  0.00    -0.270 OA
ATOM      3  N   UNL     1       0.000   4.231   0.024  0.00  0.00    -0.311 N 
ATOM      4  H   UNL     1      -0.836   3.739   0.029  0.00  0.00    +0.149 HD
ENDROOT
BRANCH   1   6
ATOM      5  C   UNL     1      -0.017   1.380   0.010  0.00  0.00    +0.039 A 
ATOM      6  C   UNL     1       1.186   2.091   0.002  0.00  0.00    +0.053 A 
ATOM      7  C   UNL     1       2.400   1.400  -0.013  0.00  0.00    +0.033 A 
ATOM      8  C   UNL     1       2.409   0.020  -0.021  0.00  0.00    +0.056 A 
ATOM      9  C   UNL     1       1.218  -0.684  -0.013  0.00  0.00    +0.145 A 
ATOM     10  C   UNL     1       0.002  -0.004   0.002  0.00  0.00    +0.061 A 
ATOM     11  F   UNL     1       1.234  -2.035  -0.021  0.00  0.00    -0.204 F 
ATOM     12 BR   UNL     1       4.031   2.357  -0.024  0.00  0.00    -0.049 Br
BRANCH  10  13
ATOM     13  N   UNL     1      -1.200  -0.720   0.010  0.00  0.00    -0.356 N 
ATOM     14  H   UNL     1      -2.046  -0.246   0.020  0.00  0.00    +0.142 HD
ATOM     15  H   UNL     1      -1.187  -1.690   0.004  0.00  0.00    +0.142 HD
ENDBRANCH  10  13
ENDBRANCH   1   6
BRANCH   3  16
ATOM     16  C   UNL     1      -0.012   5.696   0.031  0.00  0.00    +0.109 C 
BRANCH  16  17
ATOM     17  C   UNL     1      -1.459   6.194   0.047  0.00  0.00    +0.049 C 
BRANCH  17  18
ATOM     18  C   UNL     1      -1.472   7.701   0.055  0.00  0.00    -0.072 C 
ATOM     19  C   UNL     1      -1.593   8.312  -1.079  0.00  0.00    -0.028 C 
ATOM     20  C   UNL     1      -1.611   9.805  -1.232  0.00  0.00    +0.027 C 
ATOM     21  C   UNL     1      -1.895  10.469   0.117  0.00  0.00    +0.004 C 
ATOM     22  C   UNL     1      -0.953   9.863   1.165  0.00  0.00    +0.005 C 
ATOM     23  C   UNL     1      -1.350   8.399   1.378  0.00  0.00    +0.030 C 
ENDBRANCH  17  18
ENDBRANCH  16  17
ENDBRANCH   3  16
TORSDOF 5
