REMARK  Name = ZINC36594118
REMARK  10 active torsions:
REMARK  status: ('A' for Active; 'I' for Inactive)
REMARK    1  A    between atoms: C_1  and  O_2
REMARK    2  A    between atoms: O_2  and  C_3
REMARK    3  A    between atoms: C_3  and  C_5
REMARK    4  A    between atoms: C_5  and  C_6
REMARK    5  A    between atoms: C_6  and  C_7
REMARK    6  A    between atoms: C_7  and  C_9
REMARK    7  A    between atoms: C_7  and  N_13
REMARK    8  A    between atoms: C_9  and  O_11
REMARK    9  A    between atoms: O_11  and  C_12
REMARK   10  A    between atoms: C_25  and  C_27
REMARK                            x       y       z     vdW  Elec       q    Type
REMARK                         _______ _______ _______ _____ _____    ______ ____
ROOT
ATOM      1  N   UNL     1       1.114  -6.653   1.376  0.00  0.00    -0.286 N 
ATOM      2  C   UNL     1       2.062  -5.853   0.848  0.00  0.00    +0.304 C 
ATOM      3  O   UNL     1       2.174  -4.706   1.235  0.00  0.00    -0.253 OA
ATOM      4  N   UNL     1       2.884  -6.325  -0.110  0.00  0.00    -0.273 N 
ATOM      5  C   UNL     1       3.985  -5.500  -0.631  0.00  0.00    +0.116 C 
ATOM      6  C   UNL     1       3.732  -5.206  -2.115  0.00  0.00    +0.074 C 
ATOM      7  C   UNL     1       3.305  -6.480  -2.797  0.00  0.00    +0.040 A 
ATOM      8  C   UNL     1       2.845  -7.578  -2.160  0.00  0.00    +0.062 A 
ATOM      9  N   UNL     1       2.562  -8.503  -3.080  0.00  0.00    -0.348 N 
ATOM     10  C   UNL     1       2.833  -8.024  -4.266  0.00  0.00    +0.171 A 
ATOM     11  N   UNL     1       3.300  -6.761  -4.129  0.00  0.00    -0.349 N 
ATOM     12  H   UNL     1       3.580  -6.169  -4.845  0.00  0.00    +0.166 HD
ATOM     13  C   UNL     1       2.707  -7.682  -0.656  0.00  0.00    +0.159 C 
ATOM     14  H   UNL     1       0.982  -7.546   1.023  0.00  0.00    +0.151 HD
ATOM     15  H   UNL     1       2.212  -9.389  -2.898  0.00  0.00    +0.167 HD
ENDROOT
BRANCH  13  16
ATOM     16  C   UNL     1       3.765  -8.601  -0.102  0.00  0.00    +0.017 A 
ATOM     17  C   UNL     1       4.489  -9.414  -0.955  0.00  0.00    +0.011 A 
ATOM     18  C   UNL     1       5.461 -10.257  -0.449  0.00  0.00    +0.042 A 
ATOM     19  C   UNL     1       5.711 -10.288   0.912  0.00  0.00    +0.161 A 
ATOM     20  C   UNL     1       4.987  -9.474   1.768  0.00  0.00    +0.194 A 
ATOM     21  C   UNL     1       4.017  -8.625   1.259  0.00  0.00    +0.167 A 
ATOM     22  F   UNL     1       3.314  -7.826   2.090  0.00  0.00    -0.202 F 
ATOM     23  F   UNL     1       5.230  -9.504   3.097  0.00  0.00    -0.199 F 
ATOM     24  F   UNL     1       6.661 -11.113   1.406  0.00  0.00    -0.202 F 
ENDBRANCH  13  16
BRANCH   1  25
ATOM     25  C   UNL     1       0.284  -6.172   2.484  0.00  0.00    +0.184 C 
BRANCH  25  26
ATOM     26  C   UNL     1      -0.884  -5.393   1.935  0.00  0.00    +0.327 C 
ATOM     27  O   UNL     1      -1.010  -5.254   0.741  0.00  0.00    -0.249 OA
BRANCH  26  28
ATOM     28  O   UNL     1      -1.784  -4.854   2.772  0.00  0.00    -0.467 OA
ATOM     29  C   UNL     1      -2.865  -4.129   2.183  0.00  0.00    +0.280 C 
ENDBRANCH  26  28
ENDBRANCH  25  26
BRANCH  25  30
ATOM     30  C   UNL     1      -0.232  -7.366   3.289  0.00  0.00    +0.045 C 
BRANCH  30  31
ATOM     31  C   UNL     1       0.947  -8.084   3.949  0.00  0.00    +0.123 C 
BRANCH  31  32
ATOM     32  C   UNL     1       0.438  -9.260   4.743  0.00  0.00    +0.307 C 
ATOM     33  O   UNL     1      -0.746  -9.499   4.777  0.00  0.00    -0.251 OA
BRANCH  32  35
ATOM     34  C   UNL     1       0.749 -11.139   6.143  0.00  0.00    +0.280 C 
ATOM     35  O   UNL     1       1.300 -10.042   5.411  0.00  0.00    -0.468 OA
ENDBRANCH  32  35
ENDBRANCH  31  32
ENDBRANCH  30  31
ENDBRANCH  25  30
ENDBRANCH   1  25
TORSDOF 8
