REMARK  Name = ZINC06193313
REMARK  17 active torsions:
REMARK  status: ('A' for Active; 'I' for Inactive)
REMARK    1  A    between atoms: C_1  and  C_2
REMARK    2  A    between atoms: C_2  and  N_69
REMARK    3  A    between atoms: C_3  and  C_4
REMARK    4  A    between atoms: C_3  and  N_69
REMARK    5  A    between atoms: C_5  and  C_6
REMARK    6  A    between atoms: C_5  and  N_69
REMARK    7  A    between atoms: C_6  and  N_7
REMARK    8  A    between atoms: N_7  and  C_8
REMARK    9  A    between atoms: N_7  and  C_25
REMARK   10  A    between atoms: C_8  and  C_9
REMARK   11  A    between atoms: C_13  and  O_23
REMARK   12  A    between atoms: C_14  and  O_21
REMARK   13  A    between atoms: O_21  and  C_22
REMARK   14  A    between atoms: O_23  and  C_24
REMARK   15  A    between atoms: C_25  and  N_27
REMARK   16  A    between atoms: N_27  and  C_28
REMARK   17  A    between atoms: C_28  and  C_29
REMARK                            x       y       z     vdW  Elec       q    Type
REMARK                         _______ _______ _______ _____ _____    ______ ____
ROOT
ATOM      1  N   UNL     1       5.635   4.619   0.950  0.00  0.00    -0.310 N 
ENDROOT
BRANCH   1   2
ATOM      2  C   UNL     1       6.593   3.703   1.194  0.00  0.00    +0.133 C 
ATOM      3  S   UNL     1       7.230   2.767  -0.090  0.00  0.00    -0.019 S 
BRANCH   2   4
ATOM      4  N   UNL     1       7.050   3.524   2.450  0.00  0.00    -0.324 N 
ATOM      5  H   UNL     1       6.689   4.054   3.178  0.00  0.00    +0.148 HD
BRANCH   4   6
ATOM      6  C   UNL     1       8.091   2.529   2.716  0.00  0.00    +0.134 C 
BRANCH   6   7
ATOM      7  C   UNL     1       8.426   2.527   4.209  0.00  0.00    +0.135 C 
ATOM      8  C   UNL     1       9.521   1.482   4.499  0.00  0.00    +0.035 C 
ATOM      9  C   UNL     1      10.671   2.304   5.129  0.00  0.00    +0.031 C 
ATOM     10  C   UNL     1       9.931   3.573   5.623  0.00  0.00    +0.160 C 
ATOM     11  O   UNL     1       8.946   3.810   4.595  0.00  0.00    -0.375 OA
ENDBRANCH   6   7
ENDBRANCH   4   6
ENDBRANCH   2   4
ENDBRANCH   1   2
BRANCH   1  12
ATOM     12  C   UNL     1       5.162   5.490   2.029  0.00  0.00    +0.088 C 
BRANCH  12  13
ATOM     13  C   UNL     1       3.985   4.824   2.743  0.00  0.00    -0.060 C 
BRANCH  13  14
ATOM     14  N   UNL     1       3.506   5.724   3.814  0.00  0.00    +0.380 N 
ATOM     15  H   UNL     1       3.338   6.656   3.416  0.00  0.00    -0.082 HD
BRANCH  14  17
ATOM     16  C   UNL     1       1.102   5.538   3.412  0.00  0.00    -0.017 C 
ATOM     17  C   UNL     1       2.241   5.209   4.379  0.00  0.00    -0.082 C 
ENDBRANCH  14  17
BRANCH  14  18
ATOM     18  C   UNL     1       4.527   5.832   4.877  0.00  0.00    -0.082 C 
ATOM     19  C   UNL     1       4.183   7.027   5.769  0.00  0.00    -0.017 C 
ENDBRANCH  14  18
ENDBRANCH  13  14
ENDBRANCH  12  13
ENDBRANCH   1  12
BRANCH   1  20
ATOM     20  C   UNL     1       5.066   4.743  -0.394  0.00  0.00    +0.147 C 
BRANCH  20  21
ATOM     21  C   UNL     1       5.810   5.808  -1.158  0.00  0.00    +0.035 A 
ATOM     22  C   UNL     1       6.827   5.459  -1.987  0.00  0.00    +0.020 A 
ATOM     23  C   UNL     1       7.529   6.516  -2.715  0.00  0.00    +0.003 A 
ATOM     24  C   UNL     1       8.585   6.214  -3.584  0.00  0.00    +0.059 A 
ATOM     25  C   UNL     1       9.227   7.231  -4.255  0.00  0.00    +0.162 A 
ATOM     26  C   UNL     1       8.823   8.559  -4.077  0.00  0.00    +0.163 A 
ATOM     27  C   UNL     1       7.785   8.867  -3.218  0.00  0.00    +0.075 A 
ATOM     28  C   UNL     1       7.128   7.853  -2.532  0.00  0.00    +0.053 A 
ATOM     29  N   UNL     1       6.086   8.140  -1.674  0.00  0.00    -0.322 N 
ATOM     30  H   UNL     1       5.802   9.090  -1.544  0.00  0.00    +0.169 HD
ATOM     31  C   UNL     1       5.447   7.161  -1.010  0.00  0.00    +0.254 A 
ATOM     32  O   UNL     1       4.531   7.452  -0.259  0.00  0.00    -0.268 OA
BRANCH  26  33
ATOM     33  O   UNL     1       9.459   9.553  -4.750  0.00  0.00    -0.491 OA
ATOM     34  C   UNL     1       9.004  10.887  -4.518  0.00  0.00    +0.277 C 
ENDBRANCH  26  33
BRANCH  25  35
ATOM     35  O   UNL     1      10.254   6.944  -5.100  0.00  0.00    -0.491 OA
ATOM     36  C   UNL     1      10.612   5.567  -5.241  0.00  0.00    +0.277 C 
ENDBRANCH  25  35
ENDBRANCH  20  21
ENDBRANCH   1  20
TORSDOF 13
