REMARK  Name = ZINC36052177
REMARK  8 active torsions:
REMARK  status: ('A' for Active; 'I' for Inactive)
REMARK    1  A    between atoms: C_1  and  C_2
REMARK    2  A    between atoms: C_5  and  N_9
REMARK    3  A    between atoms: C_11  and  C_27
REMARK    4  A    between atoms: C_15  and  C_17
REMARK    5  A    between atoms: C_17  and  N_18
REMARK    6  A    between atoms: N_18  and  C_19
REMARK    7  A    between atoms: C_19  and  C_20
REMARK    8  A    between atoms: C_22  and  C_24
REMARK                            x       y       z     vdW  Elec       q    Type
REMARK                         _______ _______ _______ _____ _____    ______ ____
ROOT
ATOM      1  N   UNL     1       0.059  -4.174  -0.023  0.00  0.00    -0.287 N 
ATOM      2  C   UNL     1      -0.777  -4.995  -0.740  0.00  0.00    +0.122 A 
ATOM      3  C   UNL     1      -0.412  -6.271  -0.456  0.00  0.00    +0.091 A 
ATOM      4  N   UNL     1       0.622  -6.226   0.412  0.00  0.00    -0.214 NA
ATOM      5  C   UNL     1       0.914  -4.976   0.672  0.00  0.00    +0.207 A 
ATOM      6  N   UNL     1       1.924  -4.541   1.519  0.00  0.00    -0.254 N 
ATOM      7  C   UNL     1       2.706  -5.438   2.152  0.00  0.00    +0.237 C 
ATOM      8  O   UNL     1       2.527  -6.625   1.982  0.00  0.00    -0.274 OA
ATOM      9  H   UNL     1       2.067  -3.591   1.655  0.00  0.00    +0.158 HD
ENDROOT
BRANCH   1  14
ATOM     10  C   UNL     1      -0.018   1.503   0.010  0.00  0.00    +0.047 C 
ATOM     11  C   UNL     1       0.002  -0.004   0.002  0.00  0.00    -0.015 A 
ATOM     12  C   UNL     1       0.006  -0.688  -1.200  0.00  0.00    +0.008 A 
ATOM     13  C   UNL     1       0.025  -2.069  -1.211  0.00  0.00    +0.026 A 
ATOM     14  C   UNL     1       0.040  -2.772  -0.014  0.00  0.00    +0.052 A 
ATOM     15  C   UNL     1       0.037  -2.085   1.192  0.00  0.00    +0.064 A 
ATOM     16  C   UNL     1       0.023  -0.702   1.198  0.00  0.00    +0.128 A 
ATOM     17  F   UNL     1       0.025  -0.031   2.371  0.00  0.00    -0.205 F 
ENDBRANCH   1  14
BRANCH   3  18
ATOM     18  C   UNL     1      -1.038  -7.499  -1.004  0.00  0.00    +0.002 A 
ATOM     19  C   UNL     1      -2.101  -7.402  -1.900  0.00  0.00    +0.010 A 
ATOM     20  C   UNL     1      -2.680  -8.549  -2.406  0.00  0.00    +0.001 A 
ATOM     21  C   UNL     1      -2.207  -9.791  -2.025  0.00  0.00    +0.000 A 
ATOM     22  C   UNL     1      -1.153  -9.893  -1.135  0.00  0.00    +0.001 A 
ATOM     23  C   UNL     1      -0.562  -8.754  -0.628  0.00  0.00    +0.010 A 
ENDBRANCH   3  18
BRANCH   7  24
ATOM     24  C   UNL     1       3.803  -4.965   3.072  0.00  0.00    +0.204 C 
BRANCH  24  25
ATOM     25  N   UNL     1       4.503  -6.123   3.632  0.00  0.00    -0.289 N 
ATOM     26  C   UNL     1       4.080  -6.673   4.788  0.00  0.00    +0.219 C 
ATOM     27  O   UNL     1       3.119  -6.208   5.364  0.00  0.00    -0.275 OA
BRANCH  26  28
ATOM     28  C   UNL     1       4.800  -7.864   5.364  0.00  0.00    +0.075 C 
ATOM     29  C   UNL     1       4.060  -9.203   5.369  0.00  0.00    +0.013 C 
ATOM     30  C   UNL     1       4.271  -8.442   6.679  0.00  0.00    +0.013 C 
ENDBRANCH  26  28
BRANCH  25  31
ATOM     31  C   UNL     1       5.664  -6.685   2.936  0.00  0.00    +0.135 C 
BRANCH  31  32
ATOM     32  C   UNL     1       6.918  -6.008   3.425  0.00  0.00    -0.016 C 
ATOM     33  C   UNL     1       7.907  -6.724   3.900  0.00  0.00    +0.005 C 
ENDBRANCH  31  32
ENDBRANCH  25  31
ENDBRANCH  24  25
ENDBRANCH   7  24
TORSDOF 7
