REMARK  Name = ZINC09142512
REMARK  8 active torsions:
REMARK  status: ('A' for Active; 'I' for Inactive)
REMARK    1  A    between atoms: C_1  and  C_2
REMARK    2  A    between atoms: C_5  and  S_8
REMARK    3  A    between atoms: S_8  and  N_11
REMARK    4  A    between atoms: N_11  and  C_12
REMARK    5  A    between atoms: C_12  and  C_13
REMARK    6  A    between atoms: C_13  and  C_14
REMARK    7  A    between atoms: C_20  and  C_22
REMARK    8  A    between atoms: N_27  and  C_29
REMARK                            x       y       z     vdW  Elec       q    Type
REMARK                         _______ _______ _______ _____ _____    ______ ____
ROOT
ATOM      1  C   UNL     1       7.508  10.251  -2.220  0.00  0.00    +0.105 A 
ATOM      2  N   UNL     1       6.244   9.998  -2.493  0.00  0.00    -0.145 NA
ATOM      3  N   UNL     1       5.636   9.058  -1.910  0.00  0.00    -0.126 NA
ATOM      4  C   UNL     1       6.227   8.301  -1.002  0.00  0.00    +0.188 A 
ATOM      5  S   UNL     1       7.822   8.994  -0.987  0.00  0.00    -0.035 S 
ATOM      6  N   UNL     1       5.715   7.238  -0.265  0.00  0.00    -0.263 N 
ATOM      7  C   UNL     1       4.433   6.857  -0.432  0.00  0.00    +0.224 C 
ATOM      8  O   UNL     1       3.725   7.442  -1.226  0.00  0.00    -0.275 OA
ATOM      9  H   UNL     1       6.281   6.771   0.369  0.00  0.00    +0.157 HD
ENDROOT
BRANCH   7  10
ATOM     10  C   UNL     1       3.878   5.706   0.366  0.00  0.00    +0.102 C 
ATOM     11  C   UNL     1       4.644   4.399   0.057  0.00  0.00    +0.110 C 
ATOM     12  C   UNL     1       3.576   3.328   0.083  0.00  0.00    +0.221 C 
ATOM     13  O   UNL     1       3.788   2.136   0.166  0.00  0.00    -0.275 OA
ATOM     14  N   UNL     1       2.357   3.889   0.001  0.00  0.00    -0.271 N 
ATOM     15  C   UNL     1       2.448   5.349  -0.103  0.00  0.00    +0.127 C 
BRANCH  14  16
ATOM     16  C   UNL     1       1.155   3.171   0.008  0.00  0.00    +0.036 A 
ATOM     17  C   UNL     1       1.174   1.782  -0.015  0.00  0.00    +0.026 A 
ATOM     18  C   UNL     1      -0.013   1.076  -0.007  0.00  0.00    +0.040 A 
ATOM     19  C   UNL     1      -1.221   1.751   0.017  0.00  0.00    +0.124 A 
ATOM     20  C   UNL     1      -1.243   3.136   0.046  0.00  0.00    +0.040 A 
ATOM     21  C   UNL     1      -0.058   3.846   0.039  0.00  0.00    +0.026 A 
ATOM     22  F   UNL     1      -2.381   1.059   0.019  0.00  0.00    -0.205 F 
ENDBRANCH  14  16
ENDBRANCH   7  10
BRANCH   1  23
ATOM     23  C   UNL     1       8.429  11.302  -2.785  0.00  0.00    +0.081 C 
BRANCH  23  24
ATOM     24  C   UNL     1       8.332  12.573  -1.939  0.00  0.00    +0.112 C 
BRANCH  24  25
ATOM     25  N   UNL     1       9.227  13.595  -2.488  0.00  0.00    -0.190 NA
ATOM     26  H   UNL     1       9.913  13.346  -3.127  0.00  0.00    +0.148 HD
BRANCH  25  27
ATOM     27  S   UNL     1       9.066  15.175  -2.020  0.00  0.00    +0.058 S 
ATOM     28  O   UNL     1      10.080  15.905  -2.697  0.00  0.00    -0.153 OA
ATOM     29  O   UNL     1       7.687  15.496  -2.140  0.00  0.00    -0.153 OA
BRANCH  27  34
ATOM     30  C   UNL     1      10.389  15.435   3.861  0.00  0.00    +0.044 C 
ATOM     31  C   UNL     1      10.059  15.371   2.393  0.00  0.00    -0.050 A 
ATOM     32  C   UNL     1      11.058  15.536   1.451  0.00  0.00    +0.005 A 
ATOM     33  C   UNL     1      10.755  15.477   0.104  0.00  0.00    +0.029 A 
ATOM     34  C   UNL     1       9.453  15.251  -0.302  0.00  0.00    +0.105 A 
ATOM     35  C   UNL     1       8.453  15.090   0.639  0.00  0.00    +0.029 A 
ATOM     36  C   UNL     1       8.757  15.145   1.986  0.00  0.00    +0.005 A 
ENDBRANCH  27  34
ENDBRANCH  25  27
ENDBRANCH  24  25
ENDBRANCH  23  24
ENDBRANCH   1  23
TORSDOF 7
