REMARK  Name = ZINC39916353
REMARK  2 active torsions:
REMARK  status: ('A' for Active; 'I' for Inactive)
REMARK    1  A    between atoms: C_1  and  C_2
REMARK    2  A    between atoms: C_5  and  C_8
REMARK                            x       y       z     vdW  Elec       q    Type
REMARK                         _______ _______ _______ _____ _____    ______ ____
ROOT
ATOM      1  C   UNL     1       0.059  -4.275  -0.021  0.00  0.00    +0.156 C 
ATOM      2  C   UNL     1       1.482  -4.769   0.223  0.00  0.00    +0.149 C 
ATOM      3  C   UNL     1       1.391  -6.269   0.414  0.00  0.00    +0.034 C 
ATOM      4  C   UNL     1       2.306  -7.059  -0.279  0.00  0.00    +0.014 A 
ATOM      5  C   UNL     1       2.364  -8.452  -0.088  0.00  0.00    +0.011 A 
ATOM      6  C   UNL     1       3.304  -9.183  -0.750  0.00  0.00    +0.001 A 
ATOM      7  C   UNL     1       4.204  -8.580  -1.621  0.00  0.00    +0.002 A 
ATOM      8  C   UNL     1       4.182  -7.239  -1.863  0.00  0.00    +0.024 A 
ATOM      9  C   UNL     1       3.235  -6.425  -1.220  0.00  0.00    +0.042 A 
ATOM     10  N   UNL     1       3.185  -5.114  -1.494  0.00  0.00    -0.284 N 
ATOM     11  C   UNL     1       2.387  -4.248  -0.864  0.00  0.00    +0.228 C 
ATOM     12  O   UNL     1       2.375  -3.067  -1.161  0.00  0.00    -0.275 OA
ATOM     13  N   UNL     1       0.410  -6.775   1.172  0.00  0.00    -0.289 N 
ATOM     14  C   UNL     1      -0.619  -5.946   1.585  0.00  0.00    +0.186 C 
ATOM     15  N   UNL     1      -0.812  -4.783   1.042  0.00  0.00    -0.246 NA
ATOM     16  N   UNL     1      -1.458  -6.366   2.594  0.00  0.00    -0.266 N 
ATOM     17  C   UNL     1      -2.491  -5.550   3.018  0.00  0.00    +0.165 A 
ATOM     18  N   UNL     1      -2.832  -4.358   2.584  0.00  0.00    -0.225 NA
ATOM     19  C   UNL     1      -3.875  -3.670   3.096  0.00  0.00    +0.080 A 
ATOM     20  C   UNL     1      -4.343  -2.389   2.722  0.00  0.00    +0.029 A 
ATOM     21  C   UNL     1      -5.425  -1.828   3.349  0.00  0.00    +0.002 A 
ATOM     22  C   UNL     1      -6.096  -2.490   4.367  0.00  0.00    +0.001 A 
ATOM     23  C   UNL     1      -5.666  -3.745   4.758  0.00  0.00    +0.017 A 
ATOM     24  C   UNL     1      -4.583  -4.314   4.135  0.00  0.00    +0.041 A 
ATOM     25  S   UNL     1      -3.708  -5.852   4.293  0.00  0.00    -0.052 S 
ATOM     26  H   UNL     1       0.420  -7.710   1.429  0.00  0.00    +0.155 HD
ATOM     27  H   UNL     1      -1.325  -7.234   3.006  0.00  0.00    +0.157 HD
ATOM     28  H   UNL     1       3.772  -4.768  -2.184  0.00  0.00    +0.155 HD
ENDROOT
BRANCH   1  33
ATOM     29  C   UNL     1      -0.018   1.503   0.010  0.00  0.00    +0.044 C 
ATOM     30  C   UNL     1       0.002  -0.004   0.002  0.00  0.00    -0.050 A 
ATOM     31  C   UNL     1       0.006  -0.689  -1.199  0.00  0.00    +0.004 A 
ATOM     32  C   UNL     1       0.025  -2.071  -1.206  0.00  0.00    +0.006 A 
ATOM     33  C   UNL     1       0.040  -2.768  -0.013  0.00  0.00    -0.022 A 
ATOM     34  C   UNL     1       0.037  -2.084   1.188  0.00  0.00    +0.006 A 
ATOM     35  C   UNL     1       0.023  -0.702   1.195  0.00  0.00    +0.004 A 
ENDBRANCH   1  33
TORSDOF 1
