REMARK  Name = ZINC09348146
REMARK  9 active torsions:
REMARK  status: ('A' for Active; 'I' for Inactive)
REMARK    1  A    between atoms: C_1  and  C_2
REMARK    2  A    between atoms: C_2  and  C_3
REMARK    3  A    between atoms: C_2  and  C_4
REMARK    4  A    between atoms: C_4  and  C_5
REMARK    5  A    between atoms: N_13  and  C_16
REMARK    6  A    between atoms: C_16  and  C_17
REMARK    7  A    between atoms: C_17  and  C_18
REMARK    8  A    between atoms: C_18  and  O_19
REMARK    9  A    between atoms: O_19  and  C_20
REMARK                            x       y       z     vdW  Elec       q    Type
REMARK                         _______ _______ _______ _____ _____    ______ ____
ROOT
ATOM      1  C   UNL     1      -2.050  -0.348  -1.381  0.00  0.00    -0.057 C 
ATOM      2  C   UNL     1      -3.470  -0.951  -1.424  0.00  0.00    +0.073 C 
ATOM      3  C   UNL     1      -4.323   0.091  -2.200  0.00  0.00    +0.088 C 
ATOM      4  C   UNL     1      -5.310   0.575  -1.161  0.00  0.00    +0.225 C 
ATOM      5  O   UNL     1      -6.177   1.401  -1.350  0.00  0.00    -0.275 OA
ATOM      6  N   UNL     1      -5.078  -0.049  -0.001  0.00  0.00    -0.242 N 
ATOM      7  C   UNL     1      -4.060  -0.940  -0.032  0.00  0.00    +0.224 C 
ATOM      8  O   UNL     1      -3.676  -1.619   0.897  0.00  0.00    -0.275 OA
ATOM      9  C   UNL     1      -3.336   1.210  -2.554  0.00  0.00    +0.050 C 
ATOM     10  N   UNL     1      -2.248   1.116  -1.552  0.00  0.00    +0.394 N 
ATOM     11  C   UNL     1      -2.829   1.072  -3.961  0.00  0.00    -0.027 A 
ATOM     12  C   UNL     1      -2.144   0.081  -4.629  0.00  0.00    +0.019 A 
ATOM     13  C   UNL     1      -1.809   0.248  -5.961  0.00  0.00    +0.018 A 
ATOM     14  C   UNL     1      -2.163   1.413  -6.619  0.00  0.00    +0.017 A 
ATOM     15  C   UNL     1      -2.848   2.408  -5.953  0.00  0.00    +0.024 A 
ATOM     16  C   UNL     1      -3.189   2.248  -4.612  0.00  0.00    +0.036 A 
ATOM     17  N   UNL     1      -3.868   3.097  -3.735  0.00  0.00    -0.286 N 
ATOM     18  C   UNL     1      -3.995   2.561  -2.506  0.00  0.00    +0.211 C 
ATOM     19  O   UNL     1      -4.535   3.070  -1.546  0.00  0.00    -0.277 OA
ATOM     20 BR   UNL     1      -0.869  -1.111  -6.880  0.00  0.00    -0.050 Br
ATOM     21  H   UNL     1      -2.523   1.539  -0.678  0.00  0.00    -0.083 HD
ATOM     22  H   UNL     1      -4.209   3.971  -3.983  0.00  0.00    +0.155 HD
ATOM     23  H   UNL     1      -1.408   1.547  -1.906  0.00  0.00    -0.083 HD
ENDROOT
BRANCH   1  24
ATOM     24  C   UNL     1      -1.388  -0.642  -0.033  0.00  0.00    -0.012 C 
BRANCH  24  26
ATOM     25  C   UNL     1       0.638  -0.230   1.369  0.00  0.00    +0.007 C 
ATOM     26  C   UNL     1       0.029  -0.065  -0.024  0.00  0.00    -0.019 C 
ATOM     27  C   UNL     1       0.888  -0.808  -1.048  0.00  0.00    +0.007 C 
ENDBRANCH  24  26
ENDBRANCH   1  24
BRANCH   6  28
ATOM     28  C   UNL     1      -5.865   0.205   1.208  0.00  0.00    +0.118 C 
BRANCH  28  29
ATOM     29  C   UNL     1      -7.059  -0.752   1.250  0.00  0.00    +0.047 C 
BRANCH  29  30
ATOM     30  C   UNL     1      -7.881  -0.486   2.512  0.00  0.00    +0.161 C 
BRANCH  30  31
ATOM     31  O   UNL     1      -8.996  -1.380   2.551  0.00  0.00    -0.383 OA
ATOM     32  C   UNL     1      -9.834  -1.215   3.696  0.00  0.00    +0.193 C 
ENDBRANCH  30  31
ENDBRANCH  29  30
ENDBRANCH  28  29
ENDBRANCH   6  28
TORSDOF 6
