REMARK  Name = ZINC33554745
REMARK  4 active torsions:
REMARK  status: ('A' for Active; 'I' for Inactive)
REMARK    1  A    between atoms: C_3  and  N_25
REMARK    2  A    between atoms: C_6  and  C_7
REMARK    3  A    between atoms: N_9  and  N_10
REMARK    4  A    between atoms: C_12  and  C_22
REMARK                            x       y       z     vdW  Elec       q    Type
REMARK                         _______ _______ _______ _____ _____    ______ ____
ROOT
ATOM      1  N   UNL     1       1.110   3.342  -0.087  0.00  0.00    -0.273 N 
ATOM      2  C   UNL     1       1.111   1.982  -0.051  0.00  0.00    +0.224 A 
ATOM      3  C   UNL     1      -0.089   1.309   0.181  0.00  0.00    +0.098 A 
ATOM      4  C   UNL     1      -0.112  -0.100   0.224  0.00  0.00    +0.030 A 
ATOM      5  C   UNL     1       1.095  -0.784   0.028  0.00  0.00    +0.020 A 
ATOM      6  C   UNL     1       1.165  -2.189   0.053  0.00  0.00    +0.031 A 
ATOM      7  C   UNL     1       2.367  -2.800  -0.145  0.00  0.00    +0.042 A 
ATOM      8  C   UNL     1       3.529  -2.061  -0.372  0.00  0.00    +0.023 A 
ATOM      9  C   UNL     1       3.515  -0.696  -0.407  0.00  0.00    +0.048 A 
ATOM     10  C   UNL     1       2.318  -0.011  -0.211  0.00  0.00    +0.138 A 
ATOM     11  O   UNL     1       2.264   1.329  -0.238  0.00  0.00    -0.437 OA
ATOM     12 CL   UNL     1       2.456  -4.534  -0.114  0.00  0.00    -0.084 Cl
ATOM     13  H   UNL     1       1.894   3.878  -0.641  0.00  0.00    +0.188 HD
ENDROOT
BRANCH   3  14
ATOM     14  C   UNL     1      -1.342   2.076   0.378  0.00  0.00    +0.247 C 
ATOM     15  O   UNL     1      -2.037   1.867   1.352  0.00  0.00    -0.270 OA
ATOM     16  N   UNL     1      -1.711   3.007  -0.525  0.00  0.00    -0.325 N 
ATOM     17  H   UNL     1      -2.641   3.576  -0.380  0.00  0.00    +0.145 HD
ATOM     18  H   UNL     1      -1.082   3.197  -1.407  0.00  0.00    +0.145 HD
ENDBRANCH   3  14
BRANCH   1  21
ATOM     19  C   UNL     1       0.107   5.340   0.383  0.00  0.00    +0.262 C 
ATOM     20  O   UNL     1       0.954   5.934  -0.254  0.00  0.00    -0.269 OA
ATOM     21  N   UNL     1       0.188   4.002   0.527  0.00  0.00    -0.223 N 
ATOM     22  H   UNL     1      -0.532   3.474   1.170  0.00  0.00    +0.175 HD
BRANCH  19  28
ATOM     23  C   UNL     1      -1.930   5.418   1.814  0.00  0.00    +0.015 A 
ATOM     24  C   UNL     1      -2.969   6.119   2.389  0.00  0.00    +0.033 A 
ATOM     25  C   UNL     1      -3.109   7.475   2.150  0.00  0.00    +0.126 A 
ATOM     26  C   UNL     1      -2.206   8.139   1.338  0.00  0.00    +0.033 A 
ATOM     27  C   UNL     1      -1.159   7.452   0.761  0.00  0.00    +0.015 A 
ATOM     28  C   UNL     1      -1.011   6.082   0.997  0.00  0.00    +0.038 A 
BRANCH  25  29
ATOM     29  N   UNL     1      -4.230   8.220   2.766  0.00  0.00    +0.056 N 
ATOM     30  O   UNL     1      -4.367   9.510   2.541  0.00  0.00    -0.126 OA
ATOM     31  O   UNL     1      -5.092   7.592   3.539  0.00  0.00    -0.126 OA
ENDBRANCH  25  29
ENDBRANCH  19  28
ENDBRANCH   1  21
TORSDOF 4
