REMARK  Name = ZINC03433767
REMARK  7 active torsions:
REMARK  status: ('A' for Active; 'I' for Inactive)
REMARK    1  A    between atoms: C_1  and  S_2
REMARK    2  A    between atoms: S_2  and  N_5
REMARK    3  A    between atoms: C_14  and  C_16
REMARK    4  A    between atoms: C_16  and  O_18
REMARK    5  A    between atoms: O_18  and  C_19
REMARK    6  A    between atoms: C_19  and  C_20
REMARK    7  A    between atoms: C_26  and  C_31
REMARK                            x       y       z     vdW  Elec       q    Type
REMARK                         _______ _______ _______ _____ _____    ______ ____
ROOT
ATOM      1  C   UNL     1      -1.853   4.069  -0.311  0.00  0.00    +0.306 C 
ENDROOT
BRANCH   1   2
ATOM      2  C   UNL     1      -0.451   3.560  -0.523  0.00  0.00    +0.149 A 
ATOM      3  N   UNL     1      -0.233   2.223  -0.611  0.00  0.00    -0.308 N 
ATOM      4  H   UNL     1      -1.007   1.594  -0.536  0.00  0.00    +0.170 HD
ATOM      5  C   UNL     1       1.005   1.727  -0.794  0.00  0.00    +0.260 A 
ATOM      6  O   UNL     1       1.185   0.523  -0.866  0.00  0.00    -0.267 OA
ATOM      7  C   UNL     1       2.106   2.634  -0.910  0.00  0.00    +0.080 A 
ATOM      8  C   UNL     1       3.520   2.347  -1.116  0.00  0.00    +0.005 A 
ATOM      9  C   UNL     1       4.390   3.383  -1.196  0.00  0.00    +0.056 A 
ATOM     10  S   UNL     1       3.347   4.814  -0.997  0.00  0.00    -0.076 S 
ATOM     11  C   UNL     1       1.783   3.998  -0.813  0.00  0.00    +0.116 A 
ATOM     12  N   UNL     1       0.533   4.413  -0.626  0.00  0.00    -0.223 NA
BRANCH   8  13
ATOM     13  C   UNL     1       3.998   0.949  -1.236  0.00  0.00    +0.002 A 
ATOM     14  C   UNL     1       4.854   0.417  -0.273  0.00  0.00    +0.010 A 
ATOM     15  C   UNL     1       5.292  -0.887  -0.388  0.00  0.00    +0.001 A 
ATOM     16  C   UNL     1       4.890  -1.663  -1.460  0.00  0.00    +0.001 A 
ATOM     17  C   UNL     1       4.045  -1.140  -2.422  0.00  0.00    +0.020 A 
ATOM     18  C   UNL     1       3.596   0.162  -2.316  0.00  0.00    +0.049 A 
ATOM     19 CL   UNL     1       2.536   0.818  -3.524  0.00  0.00    -0.083 Cl
ENDBRANCH   8  13
ENDBRANCH   1   2
BRANCH   1  20
ATOM     20  O   UNL     1      -1.838   5.520  -0.257  0.00  0.00    -0.456 OA
BRANCH  20  21
ATOM     21  C   UNL     1      -3.017   6.135  -0.071  0.00  0.00    +0.327 C 
ATOM     22  O   UNL     1      -4.027   5.483   0.042  0.00  0.00    -0.249 OA
BRANCH  21  32
ATOM     23  N   UNL     1      -2.684   8.095   1.339  0.00  0.00    -0.163 NA
ATOM     24  C   UNL     1      -2.605   9.543   1.563  0.00  0.00    +0.145 C 
ATOM     25  C   UNL     1      -3.809  10.218   0.954  0.00  0.00    -0.028 A 
ATOM     26  C   UNL     1      -4.026  11.554   1.262  0.00  0.00    +0.005 A 
ATOM     27  C   UNL     1      -5.096  12.233   0.718  0.00  0.00    +0.000 A 
ATOM     28  C   UNL     1      -5.959  11.577  -0.140  0.00  0.00    +0.000 A 
ATOM     29  C   UNL     1      -5.748  10.248  -0.443  0.00  0.00    +0.004 A 
ATOM     30  C   UNL     1      -4.672   9.561   0.107  0.00  0.00    -0.041 A 
ATOM     31  C   UNL     1      -4.511   8.109  -0.259  0.00  0.00    +0.067 C 
ATOM     32  C   UNL     1      -3.079   7.639  -0.004  0.00  0.00    +0.192 C 
BRANCH  23  34
ATOM     33  C   UNL     1      -0.605   6.569   2.300  0.00  0.00    +0.215 C 
ATOM     34  S   UNL     1      -2.345   7.017   2.549  0.00  0.00    +0.030 S 
ATOM     35  O   UNL     1      -2.492   7.762   3.750  0.00  0.00    -0.158 OA
ATOM     36  O   UNL     1      -3.181   5.899   2.283  0.00  0.00    -0.158 OA
ENDBRANCH  23  34
ENDBRANCH  21  32
ENDBRANCH  20  21
ENDBRANCH   1  20
TORSDOF 6
