REMARK  Name = ZINC25242815
REMARK  6 active torsions:
REMARK  status: ('A' for Active; 'I' for Inactive)
REMARK    1  A    between atoms: C_1  and  C_2
REMARK    2  A    between atoms: C_3  and  C_32
REMARK    3  A    between atoms: N_9  and  N_12
REMARK    4  A    between atoms: C_13  and  C_15
REMARK    5  A    between atoms: C_17  and  C_27
REMARK    6  A    between atoms: N_18  and  C_20
REMARK                            x       y       z     vdW  Elec       q    Type
REMARK                         _______ _______ _______ _____ _____    ______ ____
ROOT
ATOM      1  C   UNL     1       1.185   1.763   0.086  0.00  0.00    +0.150 A 
ATOM      2  C   UNL     1       2.080   0.709  -0.195  0.00  0.00    +0.066 A 
ATOM      3  C   UNL     1       1.316  -0.428  -0.200  0.00  0.00    +0.110 A 
ATOM      4  N   UNL     1       0.032  -0.040   0.067  0.00  0.00    -0.228 N 
ATOM      5  N   UNL     1      -0.016   1.234   0.228  0.00  0.00    -0.161 NA
ENDROOT
BRANCH   4   6
ATOM      6  C   UNL     1      -1.068  -0.902   0.152  0.00  0.00    +0.066 A 
ATOM      7  C   UNL     1      -2.270  -0.559  -0.453  0.00  0.00    +0.029 A 
ATOM      8  C   UNL     1      -3.352  -1.414  -0.373  0.00  0.00    +0.022 A 
ATOM      9  C   UNL     1      -3.241  -2.607   0.320  0.00  0.00    +0.041 A 
ATOM     10  C   UNL     1      -2.046  -2.949   0.928  0.00  0.00    +0.022 A 
ATOM     11  C   UNL     1      -0.960  -2.100   0.846  0.00  0.00    +0.029 A 
ATOM     12 CL   UNL     1      -4.605  -3.676   0.425  0.00  0.00    -0.084 Cl
ENDBRANCH   4   6
BRANCH   3  13
ATOM     13  C   UNL     1       1.786  -1.802  -0.446  0.00  0.00    +0.153 A 
ATOM     14  C   UNL     1       3.083  -2.216  -0.444  0.00  0.00    +0.051 A 
ATOM     15  C   UNL     1       3.069  -3.596  -0.723  0.00  0.00    +0.042 A 
ATOM     16  C   UNL     1       1.779  -3.955  -0.879  0.00  0.00    +0.196 A 
ATOM     17  O   UNL     1       1.006  -2.870  -0.707  0.00  0.00    -0.461 OA
ENDBRANCH   3  13
BRANCH   1  19
ATOM     18  N   UNL     1       0.566   4.099   0.472  0.00  0.00    -0.214 N 
ATOM     19  C   UNL     1       1.528   3.195   0.199  0.00  0.00    +0.282 C 
ATOM     20  O   UNL     1       2.677   3.559   0.045  0.00  0.00    -0.267 OA
ATOM     21  H   UNL     1      -0.475   3.770   0.611  0.00  0.00    +0.176 HD
BRANCH  18  30
ATOM     22  C   UNL     1      -0.044   8.514  -2.542  0.00  0.00    +0.045 C 
ATOM     23  C   UNL     1       0.657   8.771  -1.232  0.00  0.00    -0.026 A 
ATOM     24  C   UNL     1       1.064  10.009  -0.911  0.00  0.00    -0.008 A 
ATOM     25  S   UNL     1       1.815   9.795   0.692  0.00  0.00    -0.073 S 
ATOM     26  C   UNL     1       1.560   8.049   0.882  0.00  0.00    +0.116 A 
ATOM     27  C   UNL     1       0.899   7.683  -0.304  0.00  0.00    +0.077 A 
ATOM     28  C   UNL     1       0.563   6.295  -0.422  0.00  0.00    +0.280 A 
ATOM     29  O   UNL     1      -0.012   5.879  -1.413  0.00  0.00    -0.265 OA
ATOM     30  N   UNL     1       0.891   5.457   0.579  0.00  0.00    -0.212 N 
ATOM     31  C   UNL     1       1.526   5.903   1.694  0.00  0.00    +0.223 A 
ATOM     32  N   UNL     1       1.852   7.161   1.828  0.00  0.00    -0.228 NA
ATOM     33  C   UNL     1       0.920  11.277  -1.713  0.00  0.00    +0.052 C 
ENDBRANCH  18  30
ENDBRANCH   1  19
TORSDOF 4
