REMARK  Name = ZINC63879404
REMARK  7 active torsions:
REMARK  status: ('A' for Active; 'I' for Inactive)
REMARK    1  A    between atoms: C_7  and  C_10
REMARK    2  A    between atoms: C_10  and  C_11
REMARK    3  A    between atoms: N_15  and  C_19
REMARK    4  A    between atoms: C_19  and  C_20
REMARK    5  A    between atoms: N_22  and  C_23
REMARK    6  A    between atoms: C_27  and  S_29
REMARK    7  A    between atoms: S_29  and  N_32
REMARK                            x       y       z     vdW  Elec       q    Type
REMARK                         _______ _______ _______ _____ _____    ______ ____
ROOT
ATOM      1  C   UNL     1       0.456  -3.656  -1.457  0.00  0.00    +0.165 C 
ATOM      2  C   UNL     1      -0.539  -4.798  -1.490  0.00  0.00    +0.244 C 
ATOM      3  O   UNL     1      -1.694  -4.774  -1.120  0.00  0.00    -0.273 OA
ATOM      4  N   UNL     1       0.125  -5.846  -2.017  0.00  0.00    -0.216 N 
ATOM      5  C   UNL     1       1.389  -5.527  -2.318  0.00  0.00    +0.310 C 
ATOM      6  O   UNL     1       2.185  -6.306  -2.805  0.00  0.00    -0.252 OA
ATOM      7  N   UNL     1       1.682  -4.244  -2.024  0.00  0.00    -0.287 N 
ATOM      8  H   UNL     1       2.532  -3.796  -2.158  0.00  0.00    +0.151 HD
ENDROOT
BRANCH   1   9
ATOM      9  C   UNL     1       0.697  -3.192  -0.019  0.00  0.00    +0.065 C 
BRANCH   9  16
ATOM     10  C   UNL     1      -0.023   1.340   0.033  0.00  0.00    +0.001 A 
ATOM     11  C   UNL     1       1.157   2.096   0.022  0.00  0.00    +0.002 A 
ATOM     12  C   UNL     1       2.384   1.534  -0.001  0.00  0.00    +0.026 A 
ATOM     13  C   UNL     1       2.525   0.119  -0.016  0.00  0.00    +0.043 A 
ATOM     14  N   UNL     1       3.586  -0.652  -0.039  0.00  0.00    -0.380 N 
ATOM     15  C   UNL     1       3.146  -2.052  -0.045  0.00  0.00    +0.144 C 
ATOM     16  C   UNL     1       1.634  -2.012  -0.022  0.00  0.00    -0.039 C 
ATOM     17  C   UNL     1       1.294  -0.703  -0.005  0.00  0.00    -0.001 A 
ATOM     18  C   UNL     1      -0.001  -0.013   0.021  0.00  0.00    +0.010 A 
ATOM     19  H   UNL     1       4.506  -0.348  -0.051  0.00  0.00    +0.160 HD
ENDBRANCH   9  16
ENDBRANCH   1   9
BRANCH   4  20
ATOM     20  C   UNL     1      -0.464  -7.170  -2.232  0.00  0.00    +0.214 C 
BRANCH  20  21
ATOM     21  C   UNL     1      -1.076  -7.230  -3.607  0.00  0.00    +0.235 C 
ATOM     22  O   UNL     1      -1.026  -6.262  -4.336  0.00  0.00    -0.274 OA
ATOM     23  N   UNL     1      -1.680  -8.359  -4.027  0.00  0.00    -0.284 N 
ATOM     24  H   UNL     1      -1.661  -9.154  -3.472  0.00  0.00    +0.155 HD
BRANCH  23  25
ATOM     25  C   UNL     1      -2.333  -8.385  -5.265  0.00  0.00    +0.035 A 
ATOM     26  C   UNL     1      -1.825  -7.660  -6.335  0.00  0.00    +0.023 A 
ATOM     27  C   UNL     1      -2.472  -7.687  -7.555  0.00  0.00    +0.004 A 
ATOM     28  C   UNL     1      -3.625  -8.435  -7.711  0.00  0.00    +0.028 A 
ATOM     29  C   UNL     1      -4.134  -9.157  -6.647  0.00  0.00    +0.107 A 
ATOM     30  C   UNL     1      -3.487  -9.139  -5.426  0.00  0.00    +0.051 A 
BRANCH  29  31
ATOM     31  S   UNL     1      -5.603 -10.107  -6.851  0.00  0.00    +0.061 S 
ATOM     32  O   UNL     1      -6.174 -10.255  -5.559  0.00  0.00    -0.153 OA
ATOM     33  O   UNL     1      -6.314  -9.527  -7.937  0.00  0.00    -0.153 OA
BRANCH  31  34
ATOM     34  N   UNL     1      -5.144 -11.621  -7.341  0.00  0.00    -0.177 NA
ATOM     35  C   UNL     1      -4.967 -12.053  -8.735  0.00  0.00    +0.109 C 
ATOM     36  C   UNL     1      -4.561 -13.542  -8.705  0.00  0.00    +0.018 C 
ATOM     37  C   UNL     1      -5.082 -14.016  -7.322  0.00  0.00    +0.018 C 
ATOM     38  C   UNL     1      -4.838 -12.756  -6.452  0.00  0.00    +0.109 C 
ENDBRANCH  31  34
ENDBRANCH  29  31
ENDBRANCH  23  25
ENDBRANCH  20  21
ENDBRANCH   4  20
TORSDOF 7
