REMARK  Name = ZINC13033432
REMARK  13 active torsions:
REMARK  status: ('A' for Active; 'I' for Inactive)
REMARK    1  A    between atoms: C_1  and  C_2
REMARK    2  A    between atoms: C_7  and  C_15
REMARK    3  A    between atoms: C_13  and  C_14
REMARK    4  A    between atoms: C_15  and  N_61
REMARK    5  A    between atoms: C_16  and  C_17
REMARK    6  A    between atoms: C_16  and  N_61
REMARK    7  A    between atoms: C_17  and  O_18
REMARK    8  A    between atoms: C_19  and  C_20
REMARK    9  A    between atoms: C_19  and  N_61
REMARK   10  A    between atoms: N_24  and  C_25
REMARK   11  A    between atoms: C_25  and  C_26
REMARK   12  A    between atoms: C_29  and  O_32
REMARK   13  A    between atoms: O_32  and  C_33
REMARK                            x       y       z     vdW  Elec       q    Type
REMARK                         _______ _______ _______ _____ _____    ______ ____
ROOT
ATOM      1  N   UNL     1      -0.283   1.451   0.211  0.00  0.00    +0.389 N 
ATOM      2  H   UNL     1      -0.803   1.988   0.915  0.00  0.00    -0.081 HD
ENDROOT
BRANCH   1   3
ATOM      3  C   UNL     1       1.132   1.880   0.230  0.00  0.00    -0.037 C 
BRANCH   3  10
ATOM      4  C   UNL     1       4.074   0.973   7.588  0.00  0.00    +0.044 C 
ATOM      5  C   UNL     1       3.605   0.931   6.157  0.00  0.00    -0.046 A 
ATOM      6  C   UNL     1       3.870  -0.188   5.379  0.00  0.00    +0.004 A 
ATOM      7  C   UNL     1       3.454  -0.246   4.079  0.00  0.00    +0.010 A 
ATOM      8  C   UNL     1       2.754   0.832   3.527  0.00  0.00    -0.001 A 
ATOM      9  C   UNL     1       2.289   0.801   2.139  0.00  0.00    +0.017 A 
ATOM     10  C   UNL     1       1.620   1.877   1.656  0.00  0.00    +0.001 A 
ATOM     11  C   UNL     1       1.375   2.993   2.485  0.00  0.00    +0.251 A 
ATOM     12  O   UNL     1       0.768   3.948   2.032  0.00  0.00    -0.268 OA
ATOM     13  N   UNL     1       1.794   3.028   3.762  0.00  0.00    -0.322 N 
ATOM     14  H   UNL     1       1.609   3.811   4.304  0.00  0.00    +0.169 HD
ATOM     15  C   UNL     1       2.483   1.968   4.312  0.00  0.00    +0.052 A 
ATOM     16  C   UNL     1       2.917   2.005   5.633  0.00  0.00    -0.024 A 
ATOM     17  C   UNL     1       2.637   3.214   6.488  0.00  0.00    +0.046 C 
ENDBRANCH   3  10
ENDBRANCH   1   3
BRANCH   1  18
ATOM     18  C   UNL     1      -0.871   1.710  -1.120  0.00  0.00    -0.050 C 
BRANCH  18  19
ATOM     19  C   UNL     1      -1.125   3.212  -1.262  0.00  0.00    +0.137 C 
BRANCH  19  20
ATOM     20  O   UNL     1       0.124   3.900  -1.355  0.00  0.00    -0.397 OA
ATOM     21  H   UNL     1       0.043   4.863  -1.370  0.00  0.00    +0.209 HD
ENDBRANCH  19  20
ENDBRANCH  18  19
ENDBRANCH   1  18
BRANCH   1  22
ATOM     22  C   UNL     1      -0.379   0.013   0.535  0.00  0.00    +0.001 C 
BRANCH  22  23
ATOM     23  C   UNL     1      -1.831  -0.346   0.726  0.00  0.00    +0.135 A 
ATOM     24  N   UNL     1      -2.508  -0.298   1.847  0.00  0.00    -0.115 NA
ATOM     25  N   UNL     1      -3.714  -0.679   1.600  0.00  0.00    -0.023 NA
ATOM     26  N   UNL     1      -3.821  -0.977   0.352  0.00  0.00    -0.044 NA
ATOM     27  N   UNL     1      -2.681  -0.785  -0.221  0.00  0.00    -0.227 N 
BRANCH  27  28
ATOM     28  C   UNL     1      -2.370  -1.004  -1.636  0.00  0.00    +0.182 C 
BRANCH  28  29
ATOM     29  C   UNL     1      -1.893  -2.419  -1.833  0.00  0.00    -0.026 A 
ATOM     30  C   UNL     1      -0.545  -2.713  -1.736  0.00  0.00    +0.009 A 
ATOM     31  C   UNL     1      -0.106  -4.011  -1.910  0.00  0.00    +0.046 A 
ATOM     32  C   UNL     1      -1.017  -5.018  -2.194  0.00  0.00    +0.120 A 
ATOM     33  C   UNL     1      -2.368  -4.720  -2.297  0.00  0.00    +0.046 A 
ATOM     34  C   UNL     1      -2.803  -3.421  -2.116  0.00  0.00    +0.009 A 
BRANCH  32  35
ATOM     35  O   UNL     1      -0.586  -6.295  -2.372  0.00  0.00    -0.495 OA
ATOM     36  C   UNL     1       0.819  -6.529  -2.251  0.00  0.00    +0.277 C 
ENDBRANCH  32  35
ENDBRANCH  28  29
ENDBRANCH  27  28
ENDBRANCH  22  23
ENDBRANCH   1  22
TORSDOF 10
