REMARK  Name = ZINC06464479
REMARK  9 active torsions:
REMARK  status: ('A' for Active; 'I' for Inactive)
REMARK    1  A    between atoms: C_1  and  C_2
REMARK    2  A    between atoms: C_2  and  O_3
REMARK    3  A    between atoms: O_3  and  C_4
REMARK    4  A    between atoms: C_6  and  C_11
REMARK    5  A    between atoms: C_9  and  O_10
REMARK    6  A    between atoms: C_13  and  O_26
REMARK    7  A    between atoms: N_16  and  C_17
REMARK    8  A    between atoms: C_21  and  C_24
REMARK    9  A    between atoms: C_22  and  C_23
REMARK                            x       y       z     vdW  Elec       q    Type
REMARK                         _______ _______ _______ _____ _____    ______ ____
ROOT
ATOM      1  C   UNL     1      -0.638   6.712  -1.168  0.00  0.00    +0.028 C 
ATOM      2  C   UNL     1      -0.469   8.003  -0.767  0.00  0.00    +0.077 C 
ATOM      3  C   UNL     1      -1.473   9.057  -0.538  0.00  0.00    +0.229 C 
ATOM      4  N   UNL     1      -1.036  10.212  -0.154  0.00  0.00    -0.186 NA
ATOM      5  C   UNL     1       0.274  10.458   0.032  0.00  0.00    +0.197 C 
ATOM      6  N   UNL     1       0.856  11.582   0.418  0.00  0.00    -0.222 NA
ATOM      7  S   UNL     1       1.031   8.889  -0.366  0.00  0.00    -0.045 S 
ENDROOT
BRANCH   6   8
ATOM      8  C   UNL     1       0.103  12.696   0.650  0.00  0.00    +0.070 A 
ATOM      9  C   UNL     1      -1.018  12.625   1.484  0.00  0.00    +0.028 A 
ATOM     10  C   UNL     1      -1.774  13.755   1.713  0.00  0.00    +0.002 A 
ATOM     11  C   UNL     1      -1.426  14.957   1.121  0.00  0.00    +0.004 A 
ATOM     12  C   UNL     1      -0.318  15.035   0.296  0.00  0.00    -0.046 A 
ATOM     13  C   UNL     1       0.451  13.915   0.060  0.00  0.00    -0.022 A 
ATOM     14  C   UNL     1       1.661  14.003  -0.834  0.00  0.00    +0.046 C 
ATOM     15  C   UNL     1       0.053  16.349  -0.344  0.00  0.00    +0.044 C 
ENDBRANCH   6   8
BRANCH   1  18
ATOM     16  C   UNL     1       1.482   3.763  -2.099  0.00  0.00    +0.162 A 
ATOM     17  C   UNL     1       0.380   4.524  -1.762  0.00  0.00    +0.057 A 
ATOM     18  C   UNL     1       0.528   5.898  -1.528  0.00  0.00    -0.020 A 
ATOM     19  C   UNL     1       1.792   6.491  -1.639  0.00  0.00    +0.012 A 
ATOM     20  C   UNL     1       2.885   5.723  -1.976  0.00  0.00    +0.050 A 
ATOM     21  C   UNL     1       2.738   4.360  -2.202  0.00  0.00    +0.158 A 
BRANCH  21  22
ATOM     22  O   UNL     1       3.820   3.608  -2.529  0.00  0.00    -0.503 OA
ATOM     23  H   UNL     1       3.987   3.551  -3.480  0.00  0.00    +0.292 HD
ENDBRANCH  21  22
BRANCH  16  24
ATOM     24  O   UNL     1       1.343   2.430  -2.327  0.00  0.00    -0.489 OA
BRANCH  24  26
ATOM     25  C   UNL     1       0.070   0.382  -2.490  0.00  0.00    +0.048 C 
ATOM     26  C   UNL     1       0.028   1.883  -2.199  0.00  0.00    +0.226 C 
ENDBRANCH  24  26
ENDBRANCH  16  24
ENDBRANCH   1  18
BRANCH   3  27
ATOM     27  O   UNL     1      -2.793   8.826  -0.719  0.00  0.00    -0.492 OA
ATOM     28  H   UNL     1      -3.355   9.592  -0.538  0.00  0.00    +0.294 HD
ENDBRANCH   3  27
TORSDOF 6
