REMARK  Name = ZINC20895459
REMARK  4 active torsions:
REMARK  status: ('A' for Active; 'I' for Inactive)
REMARK    1  A    between atoms: C_1  and  C_2
REMARK    2  A    between atoms: C_5  and  C_14
REMARK    3  A    between atoms: C_12  and  C_13
REMARK    4  A    between atoms: C_14  and  N_15
REMARK                            x       y       z     vdW  Elec       q    Type
REMARK                         _______ _______ _______ _____ _____    ______ ____
ROOT
ATOM      1  N   UNL     1      -1.128   1.924   0.016  0.00  0.00    -0.220 N 
ATOM      2  C   UNL     1      -0.842   3.248   0.034  0.00  0.00    +0.251 C 
ATOM      3  O   UNL     1      -1.667   4.136   0.025  0.00  0.00    -0.272 OA
ATOM      4  C   UNL     1       0.655   3.343   0.059  0.00  0.00    +0.138 C 
ATOM      5  C   UNL     1       1.224   4.090  -1.141  0.00  0.00    +0.040 C 
ATOM      6  C   UNL     1       0.501   5.395  -1.406  0.00  0.00    +0.003 C 
ATOM      7  C   UNL     1       0.784   6.480  -0.386  0.00  0.00    +0.005 C 
ATOM      8  C   UNL     1       0.073   6.184   0.933  0.00  0.00    +0.035 C 
ATOM      9  C   UNL     1       0.910   5.218   1.746  0.00  0.00    -0.042 A 
ATOM     10  C   UNL     1       1.167   3.938   1.350  0.00  0.00    -0.012 A 
ATOM     11  C   UNL     1       1.940   3.111   2.161  0.00  0.00    +0.006 A 
ATOM     12  C   UNL     1       2.447   3.579   3.356  0.00  0.00    +0.000 A 
ATOM     13  C   UNL     1       2.188   4.877   3.752  0.00  0.00    +0.000 A 
ATOM     14  C   UNL     1       1.422   5.696   2.948  0.00  0.00    +0.004 A 
ATOM     15  N   UNL     1       1.098   1.934  -0.014  0.00  0.00    -0.281 N 
ATOM     16  C   UNL     1      -0.017   1.182  -0.010  0.00  0.00    +0.310 C 
ATOM     17  O   UNL     1      -0.015  -0.034  -0.033  0.00  0.00    -0.252 OA
ATOM     18  H   UNL     1       2.171   1.696  -0.057  0.00  0.00    +0.152 HD
ENDROOT
BRANCH   1  19
ATOM     19  C   UNL     1      -2.488   1.380   0.025  0.00  0.00    +0.154 C 
BRANCH  19  24
ATOM     20  C   UNL     1      -7.157  -1.015  -0.102  0.00  0.00    +0.044 C 
ATOM     21  C   UNL     1      -6.218  -0.608   1.005  0.00  0.00    -0.047 A 
ATOM     22  C   UNL     1      -5.033   0.023   0.701  0.00  0.00    +0.015 A 
ATOM     23  C   UNL     1      -4.168   0.403   1.732  0.00  0.00    +0.023 A 
ATOM     24  C   UNL     1      -2.896   1.071   1.443  0.00  0.00    -0.012 A 
ATOM     25  C   UNL     1      -2.097   1.408   2.487  0.00  0.00    +0.098 A 
ATOM     26  C   UNL     1      -2.502   1.108   3.806  0.00  0.00    +0.338 A 
ATOM     27  O   UNL     1      -1.777   1.415   4.734  0.00  0.00    -0.245 OA
ATOM     28  O   UNL     1      -3.667   0.491   4.062  0.00  0.00    -0.422 OA
ATOM     29  C   UNL     1      -4.507   0.129   3.069  0.00  0.00    +0.140 A 
ATOM     30  C   UNL     1      -5.707  -0.508   3.352  0.00  0.00    +0.050 A 
ATOM     31  C   UNL     1      -6.553  -0.872   2.325  0.00  0.00    -0.044 A 
ATOM     32  C   UNL     1      -7.854  -1.565   2.641  0.00  0.00    +0.044 C 
ENDBRANCH  19  24
ENDBRANCH   1  19
TORSDOF 2
