REMARK  Name = ZINC36577993
REMARK  10 active torsions:
REMARK  status: ('A' for Active; 'I' for Inactive)
REMARK    1  A    between atoms: C_1  and  C_2
REMARK    2  A    between atoms: C_2  and  C_3
REMARK    3  A    between atoms: C_3  and  N_4
REMARK    4  A    between atoms: N_4  and  C_5
REMARK    5  A    between atoms: C_5  and  C_7
REMARK    6  A    between atoms: C_5  and  C_14
REMARK    7  A    between atoms: C_12  and  O_13
REMARK    8  A    between atoms: N_16  and  C_17
REMARK    9  A    between atoms: C_23  and  C_25
REMARK   10  A    between atoms: C_28  and  N_31
REMARK                            x       y       z     vdW  Elec       q    Type
REMARK                         _______ _______ _______ _____ _____    ______ ____
ROOT
ATOM      1  C   UNL     1       1.921  -2.816   0.578  0.00  0.00    +0.196 C 
ENDROOT
BRANCH   1   2
ATOM      2  C   UNL     1       2.248  -2.400  -0.834  0.00  0.00    +0.023 A 
ATOM      3  C   UNL     1       2.083  -1.085  -1.223  0.00  0.00    +0.009 A 
ATOM      4  C   UNL     1       2.383  -0.703  -2.518  0.00  0.00    +0.001 A 
ATOM      5  C   UNL     1       2.849  -1.636  -3.426  0.00  0.00    +0.004 A 
ATOM      6  C   UNL     1       3.016  -2.952  -3.041  0.00  0.00    +0.046 A 
ATOM      7  C   UNL     1       2.721  -3.337  -1.741  0.00  0.00    +0.122 A 
BRANCH   7   8
ATOM      8  O   UNL     1       2.890  -4.630  -1.359  0.00  0.00    -0.506 OA
ATOM      9  H   UNL     1       2.109  -5.185  -1.493  0.00  0.00    +0.292 HD
ENDBRANCH   7   8
ENDBRANCH   1   2
BRANCH   1  10
ATOM     10  C   UNL     1       3.147  -2.671   1.441  0.00  0.00    +0.238 C 
ATOM     11  O   UNL     1       3.102  -2.000   2.450  0.00  0.00    -0.273 OA
ATOM     12  N   UNL     1       4.294  -3.287   1.092  0.00  0.00    -0.311 N 
ATOM     13  H   UNL     1       4.330  -3.823   0.285  0.00  0.00    +0.149 HD
BRANCH  12  14
ATOM     14  C   UNL     1       5.486  -3.146   1.932  0.00  0.00    +0.073 C 
ATOM     15  C   UNL     1       6.230  -1.865   1.550  0.00  0.00    +0.022 C 
ATOM     16  C   UNL     1       7.475  -1.717   2.427  0.00  0.00    +0.002 C 
ATOM     17  C   UNL     1       8.394  -2.923   2.215  0.00  0.00    +0.000 C 
ATOM     18  C   UNL     1       7.650  -4.204   2.596  0.00  0.00    +0.002 C 
ATOM     19  C   UNL     1       6.405  -4.351   1.720  0.00  0.00    +0.022 C 
ENDBRANCH  12  14
ENDBRANCH   1  10
BRANCH   1  20
ATOM     20  N   UNL     1       0.851  -1.963   1.102  0.00  0.00    -0.282 N 
ATOM     21  C   UNL     1      -0.400  -2.073   0.612  0.00  0.00    +0.247 C 
ATOM     22  O   UNL     1      -1.307  -1.439   1.113  0.00  0.00    -0.270 OA
BRANCH  21  23
ATOM     23  C   UNL     1      -0.668  -2.966  -0.536  0.00  0.00    +0.037 A 
ATOM     24  C   UNL     1       0.348  -3.775  -1.047  0.00  0.00    +0.015 A 
ATOM     25  C   UNL     1       0.091  -4.606  -2.118  0.00  0.00    +0.033 A 
ATOM     26  C   UNL     1      -1.170  -4.637  -2.686  0.00  0.00    +0.126 A 
ATOM     27  C   UNL     1      -2.182  -3.837  -2.185  0.00  0.00    +0.033 A 
ATOM     28  C   UNL     1      -1.940  -3.007  -1.110  0.00  0.00    +0.015 A 
BRANCH  26  29
ATOM     29  N   UNL     1      -1.439  -5.531  -3.835  0.00  0.00    +0.056 N 
ATOM     30  O   UNL     1      -0.557  -6.231  -4.276  0.00  0.00    -0.126 OA
ATOM     31  O   UNL     1      -2.540  -5.561  -4.333  0.00  0.00    -0.126 OA
ENDBRANCH  26  29
ENDBRANCH  21  23
BRANCH  20  32
ATOM     32  C   UNL     1       1.140  -0.991   2.159  0.00  0.00    +0.109 C 
BRANCH  32  34
ATOM     33  C   UNL     1       1.480  -0.698   4.617  0.00  0.00    +0.005 C 
ATOM     34  C   UNL     1       1.056  -1.680   3.522  0.00  0.00    +0.016 C 
ENDBRANCH  32  34
ENDBRANCH  20  32
ENDBRANCH   1  20
TORSDOF 9
