REMARK  Name = ZINC45188871
REMARK  7 active torsions:
REMARK  status: ('A' for Active; 'I' for Inactive)
REMARK    1  A    between atoms: C_1  and  C_2
REMARK    2  A    between atoms: C_3  and  C_12
REMARK    3  A    between atoms: C_7  and  C_10
REMARK    4  A    between atoms: C_15  and  O_18
REMARK    5  A    between atoms: O_18  and  C_19
REMARK    6  A    between atoms: C_19  and  C_20
REMARK    7  A    between atoms: C_20  and  N_21
REMARK                            x       y       z     vdW  Elec       q    Type
REMARK                         _______ _______ _______ _____ _____    ______ ____
ROOT
ATOM      1  C   UNL     1      -2.474   0.015   0.015  0.00  0.00    -0.012 A 
ATOM      2  C   UNL     1      -2.834   0.796   1.112  0.00  0.00    +0.012 A 
ATOM      3  C   UNL     1      -4.044   1.457   1.118  0.00  0.00    +0.046 A 
ATOM      4  C   UNL     1      -4.904   1.345   0.034  0.00  0.00    +0.121 A 
ATOM      5  C   UNL     1      -4.548   0.569  -1.060  0.00  0.00    +0.046 A 
ATOM      6  C   UNL     1      -3.337  -0.091  -1.075  0.00  0.00    +0.012 A 
ENDROOT
BRANCH   1   9
ATOM      7  C   UNL     1      -0.018   1.503   0.010  0.00  0.00    +0.064 C 
ATOM      8  C   UNL     1       0.002  -0.004   0.002  0.00  0.00    +0.025 A 
ATOM      9  C   UNL     1      -1.173  -0.697   0.004  0.00  0.00    +0.049 A 
ATOM     10  C   UNL     1      -1.120  -2.164  -0.004  0.00  0.00    +0.204 A 
ATOM     11  O   UNL     1      -2.144  -2.830  -0.003  0.00  0.00    -0.286 OA
ATOM     12  C   UNL     1       0.153  -2.783  -0.014  0.00  0.00    +0.084 A 
ATOM     13  C   UNL     1       1.262  -2.012  -0.015  0.00  0.00    +0.031 A 
ATOM     14  N   UNL     1       1.186  -0.660  -0.013  0.00  0.00    -0.361 N 
ATOM     15  H   UNL     1       2.008  -0.144  -0.018  0.00  0.00    +0.165 HD
ATOM     16  C   UNL     1       2.617  -2.673  -0.025  0.00  0.00    +0.064 C 
ATOM     17 BR   UNL     1       0.298  -4.668  -0.024  0.00  0.00    -0.045 Br
ENDBRANCH   1   9
BRANCH   4  18
ATOM     18  O   UNL     1      -6.096   1.998   0.044  0.00  0.00    -0.490 OA
BRANCH  18  19
ATOM     19  C   UNL     1      -6.932   1.839  -1.104  0.00  0.00    +0.250 C 
BRANCH  19  20
ATOM     20  C   UNL     1      -8.221   2.641  -0.911  0.00  0.00    +0.165 C 
BRANCH  20  21
ATOM     21  N   UNL     1      -9.078   2.478  -2.089  0.00  0.00    -0.317 N 
ATOM     22  C   UNL     1      -9.139   3.304  -3.156  0.00  0.00    +0.202 A 
ATOM     23  N   UNL     1     -10.015   2.833  -4.001  0.00  0.00    -0.223 NA
ATOM     24  C   UNL     1     -10.539   1.700  -3.510  0.00  0.00    +0.166 A 
ATOM     25  C   UNL     1      -9.961   1.456  -2.316  0.00  0.00    +0.148 A 
ATOM     26 CL   UNL     1     -10.279   0.110  -1.267  0.00  0.00    -0.061 Cl
ATOM     27 CL   UNL     1     -11.745   0.716  -4.279  0.00  0.00    -0.059 Cl
ENDBRANCH  20  21
ENDBRANCH  19  20
ENDBRANCH  18  19
ENDBRANCH   4  18
TORSDOF 5
