REMARK  Name = ZINC53162175
REMARK  7 active torsions:
REMARK  status: ('A' for Active; 'I' for Inactive)
REMARK    1  A    between atoms: C_1  and  C_2
REMARK    2  A    between atoms: C_5  and  C_7
REMARK    3  A    between atoms: C_10  and  C_12
REMARK    4  A    between atoms: C_12  and  C_13
REMARK    5  A    between atoms: C_13  and  C_14
REMARK    6  A    between atoms: N_19  and  C_22
REMARK    7  A    between atoms: C_22  and  C_23
REMARK                            x       y       z     vdW  Elec       q    Type
REMARK                         _______ _______ _______ _____ _____    ______ ____
ROOT
ATOM      1  C   UNL     1       0.946   5.117   5.274  0.00  0.00    +0.216 C 
ATOM      2  O   UNL     1       0.633   4.784   6.397  0.00  0.00    -0.276 OA
ATOM      3  N   UNL     1       0.984   6.423   4.943  0.00  0.00    -0.299 N 
ATOM      4  C   UNL     1       1.355   6.848   3.585  0.00  0.00    +0.123 C 
ATOM      5  C   UNL     1       2.458   7.907   3.690  0.00  0.00    +0.103 C 
ATOM      6  N   UNL     1       2.010   8.988   4.579  0.00  0.00    -0.295 NA
ATOM      7  C   UNL     1       1.785   8.496   5.944  0.00  0.00    +0.103 C 
ATOM      8  C   UNL     1       0.649   7.461   5.930  0.00  0.00    +0.123 C 
ENDROOT
BRANCH   1   9
ATOM      9  C   UNL     1       1.293   4.070   4.247  0.00  0.00    +0.103 C 
BRANCH   9  10
ATOM     10  C   UNL     1       1.172   2.680   4.875  0.00  0.00    +0.083 C 
BRANCH  10  14
ATOM     11  C   UNL     1       1.314   0.159   2.237  0.00  0.00    +0.109 A 
ATOM     12  C   UNL     1       2.614   0.183   2.579  0.00  0.00    +0.045 A 
ATOM     13  C   UNL     1       2.747   1.133   3.619  0.00  0.00    +0.045 A 
ATOM     14  C   UNL     1       1.519   1.633   3.849  0.00  0.00    +0.106 A 
ATOM     15  O   UNL     1       0.656   1.043   3.005  0.00  0.00    -0.464 OA
BRANCH  11  19
ATOM     16  C   UNL     1      -0.019   1.526   0.010  0.00  0.00    +0.008 C 
ATOM     17  C   UNL     1       0.002  -0.004   0.002  0.00  0.00    -0.003 C 
ATOM     18  C   UNL     1      -0.828  -0.728   1.065  0.00  0.00    +0.015 C 
ATOM     19  C   UNL     1       0.700  -0.708   1.168  0.00  0.00    +0.058 C 
ENDBRANCH  11  19
ENDBRANCH  10  14
ENDBRANCH   9  10
ENDBRANCH   1   9
BRANCH   6  20
ATOM     20  C   UNL     1       2.965  10.104   4.572  0.00  0.00    +0.119 C 
BRANCH  20  21
ATOM     21  C   UNL     1       2.364  11.284   5.290  0.00  0.00    -0.030 A 
ATOM     22  C   UNL     1       1.618  12.213   4.588  0.00  0.00    +0.009 A 
ATOM     23  C   UNL     1       1.064  13.297   5.243  0.00  0.00    +0.050 A 
ATOM     24  C   UNL     1       1.255  13.455   6.606  0.00  0.00    +0.166 A 
ATOM     25  C   UNL     1       2.006  12.520   7.314  0.00  0.00    +0.167 A 
ATOM     26  C   UNL     1       2.554  11.433   6.652  0.00  0.00    +0.054 A 
ATOM     27  O   UNL     1       2.047  12.895   8.625  0.00  0.00    -0.453 OA
ATOM     28  C   UNL     1       1.660  14.282   8.641  0.00  0.00    +0.466 C 
ATOM     29  O   UNL     1       0.826  14.417   7.475  0.00  0.00    -0.453 OA
ENDBRANCH  20  21
ENDBRANCH   6  20
TORSDOF 6
