REMARK  Name = ZINC12328558
REMARK  7 active torsions:
REMARK  status: ('A' for Active; 'I' for Inactive)
REMARK    1  A    between atoms: C_4  and  C_7
REMARK    2  A    between atoms: C_7  and  C_8
REMARK    3  A    between atoms: C_7  and  N_14
REMARK    4  A    between atoms: C_15  and  C_17
REMARK    5  A    between atoms: C_20  and  N_34
REMARK    6  A    between atoms: C_23  and  C_24
REMARK    7  A    between atoms: C_23  and  N_65
REMARK                            x       y       z     vdW  Elec       q    Type
REMARK                         _______ _______ _______ _____ _____    ______ ____
ROOT
ATOM      1  C   UNL     1      -4.033   4.962   2.265  0.00  0.00    +0.022 C 
ATOM      2  C   UNL     1      -3.975   5.489   3.721  0.00  0.00    +0.019 C 
ATOM      3  C   UNL     1      -3.124   6.773   3.590  0.00  0.00    +0.093 C 
ATOM      4  C   UNL     1      -3.243   7.185   2.111  0.00  0.00    -0.050 C 
ATOM      5  N   UNL     1      -4.133   6.201   1.485  0.00  0.00    +0.391 N 
ATOM      6  H   UNL     1      -5.100   6.545   1.505  0.00  0.00    -0.080 HD
ENDROOT
BRANCH   3   7
ATOM      7  N   UNL     1      -1.727   6.493   3.930  0.00  0.00    -0.231 N 
ATOM      8  C   UNL     1      -0.799   5.956   3.116  0.00  0.00    +0.245 A 
ATOM      9  N   UNL     1       0.311   5.881   3.810  0.00  0.00    -0.117 NA
ATOM     10  N   UNL     1       0.074   6.339   4.991  0.00  0.00    -0.023 NA
ATOM     11  N   UNL     1      -1.157   6.710   5.066  0.00  0.00    -0.044 NA
ENDBRANCH   3   7
BRANCH   1  13
ATOM     12  N   UNL     1      -5.349   2.915   2.707  0.00  0.00    -0.306 N 
ATOM     13  C   UNL     1      -5.247   4.093   2.061  0.00  0.00    +0.200 C 
ATOM     14  O   UNL     1      -6.133   4.454   1.315  0.00  0.00    -0.278 OA
ATOM     15  H   UNL     1      -4.641   2.626   3.304  0.00  0.00    +0.150 HD
BRANCH  12  16
ATOM     16  C   UNL     1      -6.530   2.070   2.509  0.00  0.00    +0.133 C 
BRANCH  16  20
ATOM     17  C   UNL     1      -5.982  -0.351  -0.967  0.00  0.00    +0.000 A 
ATOM     18  C   UNL     1      -7.216   0.213  -0.705  0.00  0.00    +0.000 A 
ATOM     19  C   UNL     1      -7.394   0.997   0.420  0.00  0.00    +0.006 A 
ATOM     20  C   UNL     1      -6.336   1.216   1.283  0.00  0.00    -0.023 A 
ATOM     21  C   UNL     1      -5.100   0.656   1.018  0.00  0.00    +0.006 A 
ATOM     22  C   UNL     1      -4.924  -0.131  -0.104  0.00  0.00    +0.000 A 
ENDBRANCH  16  20
BRANCH  16  23
ATOM     23  C   UNL     1      -6.721   1.184   3.713  0.00  0.00    -0.023 A 
ATOM     24  C   UNL     1      -5.626   0.604   4.326  0.00  0.00    +0.006 A 
ATOM     25  C   UNL     1      -5.801  -0.205   5.433  0.00  0.00    +0.000 A 
ATOM     26  C   UNL     1      -7.073  -0.441   5.922  0.00  0.00    +0.000 A 
ATOM     27  C   UNL     1      -8.168   0.135   5.306  0.00  0.00    +0.000 A 
ATOM     28  C   UNL     1      -7.992   0.947   4.202  0.00  0.00    +0.006 A 
ENDBRANCH  16  23
ENDBRANCH  12  16
ENDBRANCH   1  13
BRANCH   5  29
ATOM     29  C   UNL     1      -3.727   5.964   0.067  0.00  0.00    -0.042 C 
BRANCH  29  30
ATOM     30  C   UNL     1      -2.424   5.206   0.051  0.00  0.00    -0.063 A 
ATOM     31  C   UNL     1      -1.221   5.909   0.043  0.00  0.00    +0.002 A 
ATOM     32  C   UNL     1      -0.028   5.255   0.028  0.00  0.00    +0.009 A 
ATOM     33  C   UNL     1      -0.005   3.850   0.021  0.00  0.00    -0.018 A 
ATOM     34  C   UNL     1       1.208   3.139   0.006  0.00  0.00    +0.008 A 
ATOM     35  C   UNL     1       1.191   1.779   0.000  0.00  0.00    +0.001 A 
ATOM     36  C   UNL     1      -0.013   1.076   0.008  0.00  0.00    +0.001 A 
ATOM     37  C   UNL     1      -1.206   1.730   0.017  0.00  0.00    +0.008 A 
ATOM     38  C   UNL     1      -1.229   3.135   0.030  0.00  0.00    -0.018 A 
ATOM     39  C   UNL     1      -2.441   3.845   0.045  0.00  0.00    +0.010 A 
ENDBRANCH  29  30
ENDBRANCH   5  29
TORSDOF 7
