REMARK  Name = ZINC65398384
REMARK  7 active torsions:
REMARK  status: ('A' for Active; 'I' for Inactive)
REMARK    1  A    between atoms: C_1  and  C_2
REMARK    2  A    between atoms: N_7  and  C_9
REMARK    3  A    between atoms: C_12  and  C_30
REMARK    4  A    between atoms: C_14  and  N_15
REMARK    5  A    between atoms: C_16  and  C_18
REMARK    6  A    between atoms: C_18  and  C_19
REMARK    7  A    between atoms: C_19  and  C_20
REMARK                            x       y       z     vdW  Elec       q    Type
REMARK                         _______ _______ _______ _____ _____    ______ ____
ROOT
ATOM      1  C   UNL     1       1.800  -2.759   1.400  0.00  0.00    +0.051 A 
ATOM      2  C   UNL     1       2.468  -3.185   0.258  0.00  0.00    +0.026 A 
ATOM      3  C   UNL     1       3.601  -3.960   0.368  0.00  0.00    +0.015 A 
ATOM      4  C   UNL     1       4.081  -4.322   1.630  0.00  0.00    +0.038 A 
ATOM      5  C   UNL     1       3.411  -3.895   2.780  0.00  0.00    +0.038 A 
ATOM      6  C   UNL     1       2.278  -3.112   2.664  0.00  0.00    +0.055 A 
ENDROOT
BRANCH   1  12
ATOM      7  C   UNL     1      -0.004   1.530   0.008  0.00  0.00    +0.009 C 
ATOM      8  C   UNL     1       0.021  -0.000  -0.003  0.00  0.00    +0.003 C 
ATOM      9  C   UNL     1      -1.413  -0.535  -0.002  0.00  0.00    +0.006 C 
ATOM     10  C   UNL     1      -1.389  -2.064  -0.047  0.00  0.00    +0.019 C 
ATOM     11  C   UNL     1      -0.673  -2.596   1.199  0.00  0.00    +0.105 C 
ATOM     12  N   UNL     1       0.655  -1.974   1.283  0.00  0.00    -0.328 N 
ATOM     13  C   UNL     1       0.753  -0.509   1.242  0.00  0.00    +0.108 C 
ENDBRANCH   1  12
BRANCH   4  14
ATOM     14  C   UNL     1       5.294  -5.154   1.748  0.00  0.00    +0.242 C 
ATOM     15  O   UNL     1       5.711  -5.468   2.846  0.00  0.00    -0.270 OA
ATOM     16  N   UNL     1       5.940  -5.565   0.639  0.00  0.00    -0.325 N 
ATOM     17  H   UNL     1       5.607  -5.315  -0.237  0.00  0.00    +0.145 HD
ATOM     18  H   UNL     1       6.737  -6.112   0.717  0.00  0.00    +0.145 HD
ENDBRANCH   4  14
BRANCH   6  19
ATOM     19  N   UNL     1       1.605  -2.677   3.815  0.00  0.00    -0.284 N 
ATOM     20  C   UNL     1       1.548  -3.471   4.902  0.00  0.00    +0.218 C 
ATOM     21  O   UNL     1       2.147  -4.526   4.915  0.00  0.00    -0.275 OA
ATOM     22  H   UNL     1       1.181  -1.805   3.829  0.00  0.00    +0.155 HD
BRANCH  20  23
ATOM     23  C   UNL     1       0.741  -3.048   6.103  0.00  0.00    +0.102 C 
BRANCH  23  24
ATOM     24  C   UNL     1       0.844  -4.120   7.190  0.00  0.00    +0.066 C 
BRANCH  24  25
ATOM     25  C   UNL     1       0.037  -3.697   8.390  0.00  0.00    +0.065 C 
ATOM     26  C   UNL     1      -1.204  -4.064   8.629  0.00  0.00    -0.021 C 
ATOM     27  C   UNL     1      -2.219  -4.802   7.801  0.00  0.00    +0.035 C 
ATOM     28  C   UNL     1      -3.462  -3.897   7.726  0.00  0.00    +0.005 C 
ATOM     29  C   UNL     1      -3.863  -3.438   9.126  0.00  0.00    +0.003 C 
ATOM     30  C   UNL     1      -2.769  -2.579   9.771  0.00  0.00    +0.033 C 
ATOM     31  C   UNL     1      -1.535  -3.457   9.988  0.00  0.00    +0.156 C 
ATOM     32  N   UNL     1      -0.333  -2.675  10.285  0.00  0.00    -0.180 NA
ATOM     33  N   UNL     1       0.488  -2.888   9.382  0.00  0.00    -0.158 NA
ENDBRANCH  24  25
ENDBRANCH  23  24
ENDBRANCH  20  23
ENDBRANCH   6  19
TORSDOF 6
