REMARK  Name = ZINC14307850
REMARK  3 active torsions:
REMARK  status: ('A' for Active; 'I' for Inactive)
REMARK    1  A    between atoms: C_4  and  C_7
REMARK    2  A    between atoms: N_12  and  C_13
REMARK    3  A    between atoms: C_13  and  N_14
REMARK                            x       y       z     vdW  Elec       q    Type
REMARK                         _______ _______ _______ _____ _____    ______ ____
ROOT
ATOM      1  N   UNL     1       3.486  -2.528  -3.208  0.00  0.00    -0.211 N 
ATOM      2  C   UNL     1       3.970  -3.744  -3.545  0.00  0.00    +0.248 C 
ATOM      3  O   UNL     1       4.755  -4.431  -2.939  0.00  0.00    -0.273 OA
ATOM      4  C   UNL     1       3.334  -4.038  -4.893  0.00  0.00    +0.113 C 
ATOM      5  C   UNL     1       4.157  -3.345  -5.977  0.00  0.00    +0.035 C 
ATOM      6  C   UNL     1       3.841  -3.900  -7.366  0.00  0.00    +0.003 C 
ATOM      7  C   UNL     1       2.586  -3.261  -7.988  0.00  0.00    +0.000 C 
ATOM      8  C   UNL     1       1.345  -3.883  -7.323  0.00  0.00    +0.000 C 
ATOM      9  C   UNL     1       1.544  -5.393  -7.171  0.00  0.00    +0.000 C 
ATOM     10  C   UNL     1       1.724  -5.786  -5.709  0.00  0.00    +0.003 C 
ATOM     11  C   UNL     1       3.127  -5.509  -5.172  0.00  0.00    +0.035 C 
ATOM     12  N   UNL     1       2.044  -3.351  -4.673  0.00  0.00    -0.285 N 
ATOM     13  C   UNL     1       2.330  -2.314  -3.849  0.00  0.00    +0.310 C 
ATOM     14  O   UNL     1       1.633  -1.336  -3.714  0.00  0.00    -0.252 OA
ATOM     15  H   UNL     1       1.159  -3.609  -4.929  0.00  0.00    +0.151 HD
ENDROOT
BRANCH   1  16
ATOM     16  C   UNL     1       4.103  -1.605  -2.260  0.00  0.00    +0.205 C 
BRANCH  16  21
ATOM     17  C   UNL     1       3.711  -0.707  -0.038  0.00  0.00    +0.088 C 
ATOM     18  C   UNL     1       4.038  -1.262   1.371  0.00  0.00    +0.025 C 
ATOM     19  C   UNL     1       4.990  -2.439   1.032  0.00  0.00    +0.017 C 
ATOM     20  C   UNL     1       4.407  -2.988  -0.287  0.00  0.00    +0.086 C 
ATOM     21  N   UNL     1       3.621  -1.901  -0.904  0.00  0.00    -0.279 NA
BRANCH  17  25
ATOM     22  C   UNL     1      -0.017   1.378   0.010  0.00  0.00    +0.000 A 
ATOM     23  C   UNL     1       1.171   2.086   0.002  0.00  0.00    +0.000 A 
ATOM     24  C   UNL     1       2.377   1.411  -0.013  0.00  0.00    +0.005 A 
ATOM     25  C   UNL     1       2.396   0.029  -0.020  0.00  0.00    -0.030 A 
ATOM     26  C   UNL     1       1.208  -0.679  -0.012  0.00  0.00    +0.005 A 
ATOM     27  C   UNL     1       0.002  -0.004   0.002  0.00  0.00    +0.000 A 
ENDBRANCH  17  25
ENDBRANCH  16  21
ENDBRANCH   1  16
TORSDOF 3
