REMARK  Name = ZINC14478352
REMARK  4 active torsions:
REMARK  status: ('A' for Active; 'I' for Inactive)
REMARK    1  A    between atoms: C_1  and  C_2
REMARK    2  A    between atoms: C_8  and  C_10
REMARK    3  A    between atoms: C_23  and  C_26
REMARK    4  A    between atoms: C_31  and  N_32
REMARK                            x       y       z     vdW  Elec       q    Type
REMARK                         _______ _______ _______ _____ _____    ______ ____
ROOT
ATOM      1  C   UNL     1       2.882   2.197  -2.885  0.00  0.00    +0.037 A 
ATOM      2  C   UNL     1       3.155   1.036  -3.616  0.00  0.00    +0.015 A 
ATOM      3  C   UNL     1       2.782  -0.187  -3.111  0.00  0.00    +0.024 A 
ATOM      4  C   UNL     1       2.136  -0.269  -1.878  0.00  0.00    +0.031 A 
ATOM      5  C   UNL     1       1.855   0.877  -1.149  0.00  0.00    -0.019 A 
ATOM      6  C   UNL     1       2.232   2.108  -1.654  0.00  0.00    +0.019 A 
ATOM      7  C   UNL     1       1.153   0.846   0.183  0.00  0.00    +0.049 C 
ATOM      8  C   UNL     1      -0.126   1.664   0.061  0.00  0.00    -0.023 C 
ATOM      9  C   UNL     1      -1.148   0.881  -0.179  0.00  0.00    -0.030 C 
ATOM     10  C   UNL     1      -0.702  -0.568  -0.248  0.00  0.00    +0.033 C 
ATOM     11  C   UNL     1       0.631  -0.558   0.537  0.00  0.00    +0.029 C 
ATOM     12  C   UNL     1       1.554  -1.662   0.055  0.00  0.00    +0.107 C 
ATOM     13  N   UNL     1       1.780  -1.523  -1.384  0.00  0.00    -0.336 N 
ATOM     14  H   UNL     1       1.676  -2.284  -1.977  0.00  0.00    +0.147 HD
ENDROOT
BRANCH   1  22
ATOM     15  C   UNL     1       0.546   5.188  -7.825  0.00  0.00    +0.007 C 
ATOM     16  C   UNL     1       1.755   4.649  -7.057  0.00  0.00    -0.011 C 
ATOM     17  C   UNL     1       2.174   5.662  -5.990  0.00  0.00    +0.022 C 
ATOM     18  C   UNL     1       3.405   5.135  -5.247  0.00  0.00    +0.108 C 
ATOM     19  N   UNL     1       3.104   3.796  -4.722  0.00  0.00    -0.298 N 
ATOM     20  C   UNL     1       2.612   2.768  -5.650  0.00  0.00    +0.108 C 
ATOM     21  C   UNL     1       1.384   3.324  -6.388  0.00  0.00    +0.022 C 
ATOM     22  C   UNL     1       3.281   3.514  -3.416  0.00  0.00    +0.247 C 
ATOM     23  O   UNL     1       3.769   4.345  -2.676  0.00  0.00    -0.270 OA
ENDBRANCH   1  22
BRANCH  12  24
ATOM     24  C   UNL     1       2.883  -1.546   0.755  0.00  0.00    +0.003 A 
ATOM     25  C   UNL     1       3.971  -1.015   0.087  0.00  0.00    +0.008 A 
ATOM     26  C   UNL     1       5.190  -0.903   0.730  0.00  0.00    +0.000 A 
ATOM     27  C   UNL     1       5.323  -1.333   2.037  0.00  0.00    +0.002 A 
ATOM     28  C   UNL     1       4.237  -1.869   2.703  0.00  0.00    +0.033 A 
ATOM     29  C   UNL     1       3.017  -1.975   2.062  0.00  0.00    +0.131 A 
BRANCH  29  30
ATOM     30  N   UNL     1       1.853  -2.549   2.775  0.00  0.00    +0.057 N 
ATOM     31  O   UNL     1       1.942  -2.831   3.956  0.00  0.00    -0.126 OA
ATOM     32  O   UNL     1       0.808  -2.739   2.180  0.00  0.00    -0.126 OA
ENDBRANCH  29  30
ENDBRANCH  12  24
TORSDOF 3
