REMARK  Name = ZINC43758110
REMARK  14 active torsions:
REMARK  status: ('A' for Active; 'I' for Inactive)
REMARK    1  A    between atoms: C_1  and  C_2
REMARK    2  A    between atoms: C_2  and  C_4
REMARK    3  A    between atoms: C_2  and  C_10
REMARK    4  A    between atoms: C_4  and  C_5
REMARK    5  A    between atoms: C_5  and  C_6
REMARK    6  A    between atoms: C_6  and  C_7
REMARK    7  A    between atoms: C_7  and  C_8
REMARK    8  A    between atoms: C_7  and  C_9
REMARK    9  A    between atoms: C_16  and  C_40
REMARK   10  A    between atoms: C_27  and  C_39
REMARK   11  A    between atoms: C_28  and  O_38
REMARK   12  A    between atoms: C_30  and  O_34
REMARK   13  A    between atoms: O_34  and  C_35
REMARK   14  A    between atoms: C_35  and  C_37
REMARK                            x       y       z     vdW  Elec       q    Type
REMARK                         _______ _______ _______ _____ _____    ______ ____
ROOT
ATOM      1  C   UNL     1       0.669  -0.610  -1.147  0.00  0.00    -0.002 C 
ATOM      2  C   UNL     1      -0.111  -0.069  -2.376  0.00  0.00    +0.004 C 
ATOM      3  C   UNL     1      -0.933  -1.265  -2.937  0.00  0.00    +0.004 C 
ATOM      4  C   UNL     1      -0.961  -2.226  -1.736  0.00  0.00    -0.001 C 
ATOM      5  C   UNL     1       0.500  -2.139  -1.248  0.00  0.00    -0.026 C 
ATOM      6  C   UNL     1       0.704  -2.936   0.005  0.00  0.00    +0.007 C 
ATOM      7  C   UNL     1       0.036  -4.319  -0.065  0.00  0.00    +0.005 C 
ATOM      8  C   UNL     1      -0.452  -4.668  -1.459  0.00  0.00    +0.001 C 
ATOM      9  C   UNL     1      -1.427  -3.626  -1.985  0.00  0.00    -0.004 C 
ATOM     10  C   UNL     1      -1.739  -3.920  -3.452  0.00  0.00    +0.004 C 
ATOM     11  C   UNL     1      -2.461  -5.275  -3.481  0.00  0.00    +0.004 C 
ATOM     12  C   UNL     1      -1.530  -6.360  -2.952  0.00  0.00    -0.002 C 
ATOM     13  C   UNL     1      -1.032  -6.087  -1.538  0.00  0.00    +0.003 C 
ATOM     14  C   UNL     1      -2.070  -6.341  -0.466  0.00  0.00    +0.161 C 
ATOM     15  C   UNL     1      -2.789  -7.678  -0.628  0.00  0.00    +0.205 C 
ATOM     16  C   UNL     1      -3.343  -7.826  -2.042  0.00  0.00    +0.047 C 
ATOM     17  C   UNL     1      -2.207  -7.724  -3.056  0.00  0.00    +0.008 C 
ATOM     18  C   UNL     1       0.165  -7.043  -1.293  0.00  0.00    +0.014 C 
ATOM     19  C   UNL     1       1.499  -2.579  -2.331  0.00  0.00    +0.012 C 
ENDROOT
BRANCH   1  21
ATOM     20  C   UNL     1      -1.443  -0.197   0.111  0.00  0.00    +0.008 C 
ATOM     21  C   UNL     1       0.079  -0.049   0.140  0.00  0.00    -0.010 C 
BRANCH  21  22
ATOM     22  C   UNL     1       0.446   1.431   0.267  0.00  0.00    +0.003 C 
BRANCH  22  23
ATOM     23  C   UNL     1      -0.113   1.984   1.579  0.00  0.00    +0.001 C 
BRANCH  23  24
ATOM     24  C   UNL     1       0.253   3.464   1.706  0.00  0.00    +0.003 C 
BRANCH  24  25
ATOM     25  C   UNL     1      -0.306   4.018   3.018  0.00  0.00    -0.017 C 
ATOM     26  C   UNL     1       0.165   5.461   3.205  0.00  0.00    +0.007 C 
ATOM     27  C   UNL     1      -1.835   3.982   2.976  0.00  0.00    +0.007 C 
ENDBRANCH  24  25
ENDBRANCH  23  24
ENDBRANCH  22  23
ENDBRANCH  21  22
ENDBRANCH   1  21
BRANCH  14  28
ATOM     28  O   UNL     1      -3.060  -5.311  -0.410  0.00  0.00    -0.388 OA
ATOM     29  H   UNL     1      -3.735  -5.451   0.268  0.00  0.00    +0.210 HD
ENDBRANCH  14  28
BRANCH  15  30
ATOM     30  O   UNL     1      -1.931  -8.770  -0.312  0.00  0.00    -0.459 OA
BRANCH  30  31
ATOM     31  C   UNL     1      -2.508  -9.875   0.186  0.00  0.00    +0.304 C 
ATOM     32  O   UNL     1      -3.705  -9.911   0.347  0.00  0.00    -0.251 OA
ATOM     33  C   UNL     1      -1.664 -11.071   0.544  0.00  0.00    +0.136 C 
ENDBRANCH  30  31
ENDBRANCH  15  30
TORSDOF 8
