REMARK  Name = ZINC00647871
REMARK  11 active torsions:
REMARK  status: ('A' for Active; 'I' for Inactive)
REMARK    1  A    between atoms: C_1  and  C_2
REMARK    2  A    between atoms: C_4  and  C_37
REMARK    3  A    between atoms: C_5  and  C_18
REMARK    4  A    between atoms: C_6  and  C_17
REMARK    5  A    between atoms: C_7  and  C_8
REMARK    6  A    between atoms: C_8  and  O_9
REMARK    7  A    between atoms: O_9  and  C_10
REMARK    8  A    between atoms: C_27  and  C_35
REMARK    9  A    between atoms: C_28  and  N_34
REMARK   10  A    between atoms: C_29  and  C_30
REMARK   11  A    between atoms: C_29  and  C_32
REMARK                            x       y       z     vdW  Elec       q    Type
REMARK                         _______ _______ _______ _____ _____    ______ ____
ROOT
ATOM      1  C   UNL     1       0.733  -1.231  -0.334  0.00  0.00    +0.067 C 
ATOM      2  C   UNL     1       1.067  -2.664  -0.754  0.00  0.00    +0.030 C 
ATOM      3  C   UNL     1       0.007  -3.643  -0.307  0.00  0.00    +0.009 C 
ATOM      4  C   UNL     1       0.409  -4.372   0.974  0.00  0.00    +0.005 C 
ATOM      5  C   UNL     1       1.725  -5.117   0.713  0.00  0.00    +0.027 C 
ATOM      6  C   UNL     1       2.772  -4.093   0.361  0.00  0.00    -0.022 C 
ATOM      7  C   UNL     1       2.452  -2.984  -0.277  0.00  0.00    -0.029 C 
ATOM      8  C   UNL     1       3.498  -1.953  -0.506  0.00  0.00    +0.074 C 
ATOM      9  C   UNL     1       3.126  -0.693  -0.846  0.00  0.00    +0.054 C 
ATOM     10  C   UNL     1       1.699  -0.272  -1.031  0.00  0.00    +0.188 C 
ENDROOT
BRANCH   1  15
ATOM     11  C   UNL     1       1.292  -0.714   5.394  0.00  0.00    +0.044 C 
ATOM     12  C   UNL     1       1.146  -0.848   3.900  0.00  0.00    -0.044 A 
ATOM     13  C   UNL     1       2.006  -0.169   3.058  0.00  0.00    +0.007 A 
ATOM     14  C   UNL     1       1.873  -0.292   1.688  0.00  0.00    -0.046 A 
ATOM     15  C   UNL     1       0.879  -1.096   1.160  0.00  0.00    -0.035 A 
ATOM     16  C   UNL     1       0.016  -1.770   2.002  0.00  0.00    -0.040 A 
ATOM     17  C   UNL     1       0.152  -1.650   3.373  0.00  0.00    -0.004 A 
ATOM     18  C   UNL     1      -1.071  -2.641   1.427  0.00  0.00    +0.044 C 
ATOM     19  C   UNL     1       2.811   0.448   0.769  0.00  0.00    +0.044 C 
BRANCH  17  20
ATOM     20  C   UNL     1      -0.785  -2.391   4.291  0.00  0.00    +0.265 C 
BRANCH  20  21
ATOM     21  O   UNL     1      -1.924  -1.573   4.570  0.00  0.00    -0.487 OA
BRANCH  21  22
ATOM     22  C   UNL     1      -2.874  -2.097   5.389  0.00  0.00    +0.121 A 
ATOM     23  C   UNL     1      -2.715  -3.373   5.910  0.00  0.00    +0.048 A 
ATOM     24  C   UNL     1      -3.678  -3.901   6.747  0.00  0.00    +0.042 A 
ATOM     25  C   UNL     1      -4.807  -3.162   7.058  0.00  0.00    +0.124 A 
ATOM     26  C   UNL     1      -4.970  -1.891   6.535  0.00  0.00    +0.042 A 
ATOM     27  C   UNL     1      -4.005  -1.358   5.702  0.00  0.00    +0.048 A 
ATOM     28  F   UNL     1      -5.751  -3.683   7.873  0.00  0.00    -0.205 F 
ENDBRANCH  21  22
ENDBRANCH  20  21
ENDBRANCH  17  20
ENDBRANCH   1  15
BRANCH   9  29
ATOM     29  N   UNL     1       4.105   0.243  -1.029  0.00  0.00    -0.358 N 
ATOM     30  H   UNL     1       3.836   1.273  -1.305  0.00  0.00    +0.142 HD
ATOM     31  H   UNL     1       5.162  -0.034  -0.901  0.00  0.00    +0.142 HD
ENDBRANCH   9  29
BRANCH  10  32
ATOM     32  C   UNL     1       1.391  -0.242  -2.470  0.00  0.00    +0.091 C 
ATOM     33  N   UNL     1       1.153  -0.218  -3.581  0.00  0.00    -0.194 NA
ENDBRANCH  10  32
BRANCH  10  34
ATOM     34  C   UNL     1       1.521   1.079  -0.475  0.00  0.00    +0.091 C 
ATOM     35  N   UNL     1       1.383   2.122  -0.045  0.00  0.00    -0.194 NA
ENDBRANCH  10  34
BRANCH   8  36
ATOM     36  C   UNL     1       4.884  -2.285  -0.369  0.00  0.00    +0.101 C 
ATOM     37  N   UNL     1       5.984  -2.549  -0.261  0.00  0.00    -0.191 NA
ENDBRANCH   8  36
TORSDOF 8
