REMARK  Name = ZINC13723593
REMARK  7 active torsions:
REMARK  status: ('A' for Active; 'I' for Inactive)
REMARK    1  A    between atoms: C_1  and  C_2
REMARK    2  A    between atoms: C_2  and  C_4
REMARK    3  A    between atoms: C_2  and  N_15
REMARK    4  A    between atoms: C_4  and  C_5
REMARK    5  A    between atoms: C_16  and  C_18
REMARK    6  A    between atoms: N_27  and  S_28
REMARK    7  A    between atoms: S_28  and  C_31
REMARK                            x       y       z     vdW  Elec       q    Type
REMARK                         _______ _______ _______ _____ _____    ______ ____
ROOT
ATOM      1  N   UNL     1      -4.847   1.560   0.059  0.00  0.00    -0.308 N 
ATOM      2  C   UNL     1      -3.671   2.218   0.051  0.00  0.00    +0.244 C 
ATOM      3  O   UNL     1      -3.654   3.434   0.057  0.00  0.00    -0.270 OA
ATOM      4  H   UNL     1      -4.861   0.590   0.054  0.00  0.00    +0.149 HD
ENDROOT
BRANCH   2   5
ATOM      5  C   UNL     1      -2.404   1.463   0.034  0.00  0.00    +0.038 A 
ATOM      6  C   UNL     1      -2.411   0.061   0.026  0.00  0.00    +0.015 A 
ATOM      7  C   UNL     1      -1.258  -0.652   0.011  0.00  0.00    +0.029 A 
ATOM      8  C   UNL     1       0.002  -0.004   0.002  0.00  0.00    +0.080 A 
ATOM      9  C   UNL     1      -0.017   1.412   0.010  0.00  0.00    +0.042 A 
ATOM     10  C   UNL     1      -1.177   2.136   0.029  0.00  0.00    +0.030 A 
ATOM     11  S   UNL     1       1.714   1.815  -0.005  0.00  0.00    -0.051 S 
ATOM     12  C   UNL     1       2.333   0.138  -0.019  0.00  0.00    +0.178 A 
ATOM     13  N   UNL     1       1.225  -0.570  -0.013  0.00  0.00    -0.224 NA
ATOM     14  N   UNL     1       3.639  -0.301  -0.035  0.00  0.00    -0.198 N 
ATOM     15  H   UNL     1       4.366   0.341  -0.038  0.00  0.00    +0.175 HD
BRANCH  14  16
ATOM     16  S   UNL     1       3.967  -1.924  -0.046  0.00  0.00    +0.042 S 
ATOM     17  O   UNL     1       5.386  -2.007  -0.036  0.00  0.00    -0.155 OA
ATOM     18  O   UNL     1       3.203  -2.456   1.026  0.00  0.00    -0.155 OA
ATOM     19  C   UNL     1       3.318  -2.519  -1.632  0.00  0.00    +0.218 C 
ENDBRANCH  14  16
ENDBRANCH   2   5
BRANCH   1  21
ATOM     20  C   UNL     1      -6.465   2.671   1.519  0.00  0.00    +0.028 C 
ATOM     21  C   UNL     1      -6.106   2.310   0.076  0.00  0.00    +0.074 C 
BRANCH  21  22
ATOM     22  C   UNL     1      -7.219   1.451  -0.527  0.00  0.00    +0.059 C 
BRANCH  22  23
ATOM     23  C   UNL     1      -6.926   1.198  -1.983  0.00  0.00    -0.021 A 
ATOM     24  C   UNL     1      -7.392   1.903  -3.026  0.00  0.00    +0.087 A 
ATOM     25  N   UNL     1      -6.911   1.379  -4.195  0.00  0.00    -0.360 N 
ATOM     26  H   UNL     1      -7.110   1.720  -5.081  0.00  0.00    +0.165 HD
ATOM     27  C   UNL     1      -6.104   0.297  -3.926  0.00  0.00    +0.047 A 
ATOM     28  C   UNL     1      -6.072   0.139  -2.529  0.00  0.00    +0.003 A 
ATOM     29  C   UNL     1      -5.318  -0.889  -1.960  0.00  0.00    +0.010 A 
ATOM     30  C   UNL     1      -4.610  -1.736  -2.766  0.00  0.00    +0.001 A 
ATOM     31  C   UNL     1      -4.635  -1.583  -4.145  0.00  0.00    +0.002 A 
ATOM     32  C   UNL     1      -5.379  -0.579  -4.727  0.00  0.00    +0.026 A 
ENDBRANCH  22  23
ENDBRANCH  21  22
ENDBRANCH   1  21
TORSDOF 5
