REMARK  Name = ZINC00822522
REMARK  2 active torsions:
REMARK  status: ('A' for Active; 'I' for Inactive)
REMARK    1  A    between atoms: C_1  and  S_2
REMARK    2  A    between atoms: S_2  and  C_3
REMARK                            x       y       z     vdW  Elec       q    Type
REMARK                         _______ _______ _______ _____ _____    ______ ____
ROOT
ATOM      1  C   UNL     1       1.434  -4.803  -0.009  0.00  0.00    +0.212 A 
ATOM      2  N   UNL     1       2.180  -4.143  -0.891  0.00  0.00    -0.184 NA
ATOM      3  C   UNL     1       2.128  -2.823  -0.923  0.00  0.00    +0.248 A 
ATOM      4  C   UNL     1       1.283  -2.154  -0.009  0.00  0.00    +0.156 A 
ATOM      5  N   UNL     1       0.566  -2.870   0.844  0.00  0.00    -0.141 NA
ATOM      6  N   UNL     1       0.643  -4.156   0.838  0.00  0.00    -0.122 NA
ATOM      7  C   UNL     1       1.217  -0.678  -0.019  0.00  0.00    +0.028 A 
ATOM      8  C   UNL     1       0.002  -0.004   0.002  0.00  0.00    +0.012 A 
ATOM      9  C   UNL     1      -0.017   1.377   0.010  0.00  0.00    +0.001 A 
ATOM     10  C   UNL     1       1.167   2.094   0.002  0.00  0.00    +0.002 A 
ATOM     11  C   UNL     1       2.384   1.436  -0.019  0.00  0.00    +0.024 A 
ATOM     12  C   UNL     1       2.419   0.054  -0.036  0.00  0.00    +0.040 A 
ATOM     13  N   UNL     1       3.630  -0.643  -0.084  0.00  0.00    -0.295 N 
ATOM     14  C   UNL     1       3.969  -1.375  -1.301  0.00  0.00    +0.283 C 
ATOM     15  O   UNL     1       2.861  -2.108  -1.810  0.00  0.00    -0.437 OA
ATOM     16  C   UNL     1       4.505  -0.438  -2.342  0.00  0.00    +0.047 A 
ATOM     17  C   UNL     1       3.924   0.631  -2.989  0.00  0.00    +0.027 A 
ATOM     18  C   UNL     1       4.709   1.308  -3.918  0.00  0.00    +0.019 A 
ATOM     19  C   UNL     1       6.009   0.923  -4.177  0.00  0.00    +0.032 A 
ATOM     20  C   UNL     1       6.599  -0.153  -3.530  0.00  0.00    +0.041 A 
ATOM     21  C   UNL     1       5.821  -0.841  -2.595  0.00  0.00    +0.057 A 
ATOM     22  N   UNL     1       6.148  -1.935  -1.814  0.00  0.00    -0.279 N 
ATOM     23  C   UNL     1       5.123  -2.318  -1.025  0.00  0.00    +0.285 C 
ATOM     24  O   UNL     1       5.125  -3.244  -0.241  0.00  0.00    -0.269 OA
ATOM     25 BR   UNL     1       8.381  -0.667  -3.897  0.00  0.00    -0.048 Br
ATOM     26 BR   UNL     1       3.979   2.785  -4.846  0.00  0.00    -0.050 Br
ATOM     27  H   UNL     1       4.233  -0.641   0.676  0.00  0.00    +0.151 HD
ATOM     28  H   UNL     1       7.012  -2.375  -1.832  0.00  0.00    +0.155 HD
ENDROOT
BRANCH   1  30
ATOM     29  C   UNL     1       0.326  -6.885   1.377  0.00  0.00    +0.093 C 
ATOM     30  S   UNL     1       1.498  -6.563   0.037  0.00  0.00    -0.088 S 
ENDBRANCH   1  30
TORSDOF 1
