REMARK  Name = ZINC04064453
REMARK  9 active torsions:
REMARK  status: ('A' for Active; 'I' for Inactive)
REMARK    1  A    between atoms: C_1  and  C_2
REMARK    2  A    between atoms: C_2  and  O_3
REMARK    3  A    between atoms: O_3  and  C_4
REMARK    4  A    between atoms: C_4  and  C_5
REMARK    5  A    between atoms: C_5  and  O_6
REMARK    6  A    between atoms: O_6  and  C_7
REMARK    7  A    between atoms: C_7  and  C_9
REMARK    8  A    between atoms: C_10  and  C_27
REMARK    9  A    between atoms: C_15  and  C_17
REMARK                            x       y       z     vdW  Elec       q    Type
REMARK                         _______ _______ _______ _____ _____    ______ ____
ROOT
ATOM      1  C   UNL     1       4.708  -1.633  -3.470  0.00  0.00    +0.078 C 
ATOM      2  C   UNL     1       5.304  -1.694  -4.681  0.00  0.00    +0.021 C 
ATOM      3  N   UNL     1       6.608  -1.321  -4.844  0.00  0.00    -0.273 N 
ATOM      4  C   UNL     1       7.383  -0.876  -3.847  0.00  0.00    +0.304 C 
ATOM      5  O   UNL     1       8.534  -0.568  -4.090  0.00  0.00    -0.252 OA
ATOM      6  N   UNL     1       6.930  -0.759  -2.583  0.00  0.00    -0.288 N 
ATOM      7  C   UNL     1       5.533  -1.131  -2.303  0.00  0.00    +0.145 C 
ATOM      8  C   UNL     1       4.519  -2.183  -5.870  0.00  0.00    +0.061 C 
ATOM      9  H   UNL     1       6.994  -1.383  -5.732  0.00  0.00    +0.156 HD
ATOM     10  H   UNL     1       7.509  -0.435  -1.876  0.00  0.00    +0.151 HD
ENDROOT
BRANCH   7  11
ATOM     11  C   UNL     1       4.835   0.073  -1.724  0.00  0.00    -0.005 A 
ATOM     12  C   UNL     1       5.159   1.341  -2.172  0.00  0.00    +0.056 A 
ATOM     13  C   UNL     1       4.519   2.448  -1.641  0.00  0.00    +0.167 A 
ATOM     14  C   UNL     1       3.548   2.282  -0.656  0.00  0.00    +0.167 A 
ATOM     15  C   UNL     1       3.227   1.010  -0.212  0.00  0.00    +0.065 A 
ATOM     16  C   UNL     1       3.867  -0.093  -0.750  0.00  0.00    +0.027 A 
ATOM     17 BR   UNL     1       3.422  -1.829  -0.147  0.00  0.00    -0.050 Br
ATOM     18  O   UNL     1       3.072   3.511  -0.301  0.00  0.00    -0.453 OA
ATOM     19  C   UNL     1       4.047   4.455  -0.782  0.00  0.00    +0.466 C 
ATOM     20  O   UNL     1       4.651   3.782  -1.903  0.00  0.00    -0.453 OA
ENDBRANCH   7  11
BRANCH   1  21
ATOM     21  C   UNL     1       3.358  -2.018  -3.300  0.00  0.00    +0.339 C 
ATOM     22  O   UNL     1       2.480  -1.175  -3.302  0.00  0.00    -0.245 OA
BRANCH  21  23
ATOM     23  O   UNL     1       3.043  -3.320  -3.135  0.00  0.00    -0.459 OA
BRANCH  23  24
ATOM     24  C   UNL     1       1.654  -3.650  -3.083  0.00  0.00    +0.260 C 
BRANCH  24  25
ATOM     25  C   UNL     1       1.495  -5.140  -2.772  0.00  0.00    +0.201 C 
BRANCH  25  26
ATOM     26  O   UNL     1       1.983  -5.406  -1.455  0.00  0.00    -0.377 OA
BRANCH  26  28
ATOM     27  C   UNL     1       2.405  -6.948   0.358  0.00  0.00    +0.034 C 
ATOM     28  C   UNL     1       1.984  -6.792  -1.105  0.00  0.00    +0.156 C 
ENDBRANCH  26  28
ENDBRANCH  25  26
ENDBRANCH  24  25
ENDBRANCH  23  24
ENDBRANCH  21  23
ENDBRANCH   1  21
TORSDOF 7
