REMARK  Name = ZINC04346930
REMARK  5 active torsions:
REMARK  status: ('A' for Active; 'I' for Inactive)
REMARK    1  A    between atoms: C_1  and  C_2
REMARK    2  A    between atoms: C_5  and  C_9
REMARK    3  A    between atoms: C_6  and  C_8
REMARK    4  A    between atoms: N_14  and  C_17
REMARK    5  A    between atoms: N_24  and  C_28
REMARK                            x       y       z     vdW  Elec       q    Type
REMARK                         _______ _______ _______ _____ _____    ______ ____
ROOT
ATOM      1  C   UNL     1      -2.256   0.617  -0.081  0.00  0.00    +0.142 C 
ATOM      2  C   UNL     1      -2.807   0.475   1.324  0.00  0.00    +0.058 C 
ATOM      3  C   UNL     1      -2.837  -0.761   1.863  0.00  0.00    +0.042 C 
ATOM      4  C   UNL     1      -3.425  -0.606   3.248  0.00  0.00    +0.165 C 
ATOM      5  N   UNL     1      -3.699   0.832   3.384  0.00  0.00    -0.262 N 
ATOM      6  C   UNL     1      -3.321   1.420   2.235  0.00  0.00    +0.251 C 
ATOM      7  O   UNL     1      -3.411   2.614   2.010  0.00  0.00    -0.270 OA
ATOM      8  N   UNL     1      -2.389  -1.847   1.169  0.00  0.00    -0.260 N 
ATOM      9  C   UNL     1      -1.893  -1.780  -0.074  0.00  0.00    +0.307 C 
ATOM     10  O   UNL     1      -1.518  -2.802  -0.614  0.00  0.00    -0.252 OA
ATOM     11  N   UNL     1      -1.798  -0.615  -0.745  0.00  0.00    -0.288 N 
ATOM     12  C   UNL     1      -2.453  -3.159   1.817  0.00  0.00    +0.139 C 
ATOM     13  H   UNL     1      -1.437  -0.588  -1.645  0.00  0.00    +0.151 HD
ENDROOT
BRANCH   1  18
ATOM     14  C   UNL     1       2.201   4.290   0.110  0.00  0.00    +0.044 C 
ATOM     15  C   UNL     1       1.036   3.334   0.061  0.00  0.00    -0.050 A 
ATOM     16  C   UNL     1       0.583   2.737   1.222  0.00  0.00    +0.004 A 
ATOM     17  C   UNL     1      -0.485   1.861   1.177  0.00  0.00    +0.006 A 
ATOM     18  C   UNL     1      -1.096   1.577  -0.030  0.00  0.00    -0.020 A 
ATOM     19  C   UNL     1      -0.645   2.177  -1.191  0.00  0.00    -0.045 A 
ATOM     20  C   UNL     1       0.423   3.055  -1.145  0.00  0.00    +0.007 A 
ATOM     21  C   UNL     1      -1.314   1.872  -2.506  0.00  0.00    +0.044 C 
ENDBRANCH   1  18
BRANCH   5  22
ATOM     22  C   UNL     1      -4.251   1.470   4.501  0.00  0.00    +0.037 A 
ATOM     23  C   UNL     1      -4.600   0.730   5.623  0.00  0.00    +0.026 A 
ATOM     24  C   UNL     1      -5.138   1.363   6.726  0.00  0.00    +0.040 A 
ATOM     25  C   UNL     1      -5.341   2.733   6.710  0.00  0.00    +0.124 A 
ATOM     26  C   UNL     1      -4.999   3.472   5.590  0.00  0.00    +0.040 A 
ATOM     27  C   UNL     1      -4.455   2.844   4.487  0.00  0.00    +0.026 A 
ATOM     28  F   UNL     1      -5.872   3.349   7.788  0.00  0.00    -0.205 F 
ENDBRANCH   5  22
TORSDOF 2
