REMARK  Name = ZINC13778983
REMARK  6 active torsions:
REMARK  status: ('A' for Active; 'I' for Inactive)
REMARK    1  A    between atoms: C_1  and  C_2
REMARK    2  A    between atoms: C_2  and  C_3
REMARK    3  A    between atoms: C_2  and  C_4
REMARK    4  A    between atoms: C_2  and  C_5
REMARK    5  A    between atoms: C_8  and  C_11
REMARK    6  A    between atoms: C_13  and  C_16
REMARK                            x       y       z     vdW  Elec       q    Type
REMARK                         _______ _______ _______ _____ _____    ______ ____
ROOT
ATOM      1  C   UNL     1       2.695  -1.859  -4.733  0.00  0.00    +0.259 A 
ATOM      2  N   UNL     1       3.940  -1.604  -5.059  0.00  0.00    -0.187 NA
ATOM      3  C   UNL     1       4.238  -2.195  -6.228  0.00  0.00    +0.208 A 
ATOM      4  N   UNL     1       3.178  -2.837  -6.659  0.00  0.00    -0.055 NA
ATOM      5  O   UNL     1       2.159  -2.634  -5.692  0.00  0.00    -0.332 OA
ENDROOT
BRANCH   3   6
ATOM      6  C   UNL     1       5.548  -2.132  -6.917  0.00  0.00    +0.087 A 
ATOM      7  C   UNL     1       5.731  -2.774  -8.110  0.00  0.00    +0.027 A 
ATOM      8  C   UNL     1       6.993  -2.700  -8.751  0.00  0.00    -0.001 A 
ATOM      9  C   UNL     1       7.206  -3.348  -9.976  0.00  0.00    +0.010 A 
ATOM     10  C   UNL     1       8.425  -3.270 -10.584  0.00  0.00    +0.001 A 
ATOM     11  C   UNL     1       9.461  -2.552 -10.000  0.00  0.00    +0.002 A 
ATOM     12  C   UNL     1       9.276  -1.907  -8.797  0.00  0.00    +0.026 A 
ATOM     13  C   UNL     1       8.041  -1.972  -8.157  0.00  0.00    +0.049 A 
ATOM     14  N   UNL     1       7.849  -1.327  -6.953  0.00  0.00    -0.322 N 
ATOM     15  C   UNL     1       6.657  -1.378  -6.328  0.00  0.00    +0.260 A 
ATOM     16  O   UNL     1       6.503  -0.799  -5.268  0.00  0.00    -0.267 OA
ATOM     17  H   UNL     1       8.579  -0.829  -6.554  0.00  0.00    +0.169 HD
ENDBRANCH   3   6
BRANCH   1  21
ATOM     18  C   UNL     1       0.707  -0.490  -1.238  0.00  0.00    -0.042 A 
ATOM     19  C   UNL     1       0.033  -1.285  -2.147  0.00  0.00    +0.005 A 
ATOM     20  C   UNL     1       0.672  -1.733  -3.285  0.00  0.00    +0.013 A 
ATOM     21  C   UNL     1       2.003  -1.382  -3.517  0.00  0.00    +0.039 A 
ATOM     22  C   UNL     1       2.678  -0.580  -2.595  0.00  0.00    +0.013 A 
ATOM     23  C   UNL     1       2.025  -0.135  -1.464  0.00  0.00    +0.005 A 
BRANCH  18  25
ATOM     24  C   UNL     1      -0.019   1.526   0.010  0.00  0.00    +0.015 C 
ATOM     25  C   UNL     1       0.002  -0.004   0.002  0.00  0.00    -0.013 C 
ATOM     26  C   UNL     1       0.742  -0.511   1.242  0.00  0.00    +0.015 C 
ATOM     27  C   UNL     1      -1.433  -0.534   0.013  0.00  0.00    +0.015 C 
ENDBRANCH  18  25
ENDBRANCH   1  21
TORSDOF 3
