REMARK  Name = ZINC56230224
REMARK  10 active torsions:
REMARK  status: ('A' for Active; 'I' for Inactive)
REMARK    1  A    between atoms: C_1  and  C_2
REMARK    2  A    between atoms: C_2  and  C_3
REMARK    3  A    between atoms: C_3  and  C_4
REMARK    4  A    between atoms: C_6  and  C_9
REMARK    5  A    between atoms: C_9  and  C_11
REMARK    6  A    between atoms: C_9  and  S_12
REMARK    7  A    between atoms: S_12  and  C_13
REMARK    8  A    between atoms: C_13  and  C_15
REMARK    9  A    between atoms: C_13  and  C_16
REMARK   10  A    between atoms: N_22  and  C_23
REMARK                            x       y       z     vdW  Elec       q    Type
REMARK                         _______ _______ _______ _____ _____    ______ ____
ROOT
ATOM      1  C   UNL     1       3.738  -8.818  -2.110  0.00  0.00    +0.149 A 
ATOM      2  N   UNL     1       3.629  -8.568  -3.404  0.00  0.00    -0.198 NA
ATOM      3  C   UNL     1       3.502  -9.572  -4.269  0.00  0.00    +0.217 A 
ATOM      4  N   UNL     1       3.486 -10.826  -3.831  0.00  0.00    -0.181 NA
ATOM      5  C   UNL     1       3.595 -11.073  -2.530  0.00  0.00    +0.224 A 
ATOM      6  N   UNL     1       3.727 -10.065  -1.672  0.00  0.00    -0.198 NA
ATOM      7  N   UNL     1       3.578 -12.376  -2.070  0.00  0.00    -0.284 N 
ATOM      8  N   UNL     1       3.388  -9.309  -5.619  0.00  0.00    -0.327 N 
ATOM      9  H   UNL     1       3.576 -12.553  -1.117  0.00  0.00    +0.155 HD
ATOM     10  H   UNL     1       3.400  -8.393  -5.938  0.00  0.00    +0.145 HD
ATOM     11  H   UNL     1       3.296 -10.041  -6.249  0.00  0.00    +0.145 HD
ENDROOT
BRANCH   7  12
ATOM     12  C   UNL     1       3.564 -13.438  -2.979  0.00  0.00    +0.034 A 
ATOM     13  C   UNL     1       4.293 -13.355  -4.158  0.00  0.00    +0.023 A 
ATOM     14  C   UNL     1       4.277 -14.407  -5.054  0.00  0.00    +0.002 A 
ATOM     15  C   UNL     1       3.536 -15.541  -4.777  0.00  0.00    +0.000 A 
ATOM     16  C   UNL     1       2.808 -15.626  -3.605  0.00  0.00    +0.002 A 
ATOM     17  C   UNL     1       2.825 -14.581  -2.702  0.00  0.00    +0.023 A 
ENDBRANCH   7  12
BRANCH   1  18
ATOM     18  C   UNL     1       3.882  -7.679  -1.134  0.00  0.00    +0.112 C 
ATOM     19  C   UNL     1       5.299  -7.109  -1.220  0.00  0.00    +0.027 C 
BRANCH  18  20
ATOM     20  S   UNL     1       2.682  -6.380  -1.540  0.00  0.00    -0.137 S 
BRANCH  20  21
ATOM     21  C   UNL     1       2.876  -5.170  -0.202  0.00  0.00    +0.132 C 
ATOM     22  C   UNL     1       2.450  -5.803   1.124  0.00  0.00    +0.029 C 
BRANCH  21  25
ATOM     23  C   UNL     1       1.366  -1.912  -0.696  0.00  0.00    +0.172 A 
ATOM     24  N   UNL     1       2.378  -2.720  -0.364  0.00  0.00    -0.195 NA
ATOM     25  C   UNL     1       2.014  -3.967  -0.484  0.00  0.00    +0.240 A 
ATOM     26  O   UNL     1       0.742  -3.993  -0.902  0.00  0.00    -0.337 OA
ATOM     27  N   UNL     1       0.337  -2.638  -1.028  0.00  0.00    -0.061 NA
BRANCH  23  28
ATOM     28  C   UNL     1       1.406  -0.406  -0.681  0.00  0.00    +0.079 C 
BRANCH  28  30
ATOM     29  C   UNL     1       1.018   1.632   0.712  0.00  0.00    +0.004 C 
ATOM     30  C   UNL     1       0.977   0.103   0.697  0.00  0.00    +0.004 C 
ENDBRANCH  28  30
ENDBRANCH  23  28
ENDBRANCH  21  25
ENDBRANCH  20  21
ENDBRANCH  18  20
ENDBRANCH   1  18
TORSDOF 7
