REMARK  Name = ZINC13077451
REMARK  10 active torsions:
REMARK  status: ('A' for Active; 'I' for Inactive)
REMARK    1  A    between atoms: C_1  and  C_2
REMARK    2  A    between atoms: C_2  and  C_4
REMARK    3  A    between atoms: C_2  and  O_6
REMARK    4  A    between atoms: O_6  and  C_7
REMARK    5  A    between atoms: C_10  and  C_13
REMARK    6  A    between atoms: C_15  and  C_23
REMARK    7  A    between atoms: C_26  and  O_33
REMARK    8  A    between atoms: C_28  and  O_29
REMARK    9  A    between atoms: O_29  and  C_30
REMARK   10  A    between atoms: O_33  and  C_34
REMARK                            x       y       z     vdW  Elec       q    Type
REMARK                         _______ _______ _______ _____ _____    ______ ____
ROOT
ATOM      1  C   UNL     1       2.438  -4.558   1.298  0.00  0.00    +0.039 C 
ATOM      2  C   UNL     1       1.234  -4.004   1.321  0.00  0.00    +0.028 C 
ATOM      3  C   UNL     1       0.616  -3.312   0.136  0.00  0.00    +0.170 C 
ATOM      4  N   UNL     1       1.401  -3.595  -1.060  0.00  0.00    -0.202 N 
ATOM      5  C   UNL     1       2.632  -4.168  -1.040  0.00  0.00    +0.240 A 
ATOM      6  N   UNL     1       3.037  -4.261  -2.274  0.00  0.00    -0.092 NA
ATOM      7  N   UNL     1       2.142  -3.790  -3.074  0.00  0.00    -0.021 NA
ATOM      8  N   UNL     1       1.117  -3.368  -2.406  0.00  0.00    -0.042 NA
ATOM      9  N   UNL     1       3.239  -4.547   0.148  0.00  0.00    -0.282 N 
ATOM     10  H   UNL     1       4.176  -4.793   0.181  0.00  0.00    +0.155 HD
ENDROOT
BRANCH   1  14
ATOM     11  C   UNL     1       3.917  -6.423   4.820  0.00  0.00    +0.122 A 
ATOM     12  C   UNL     1       4.694  -6.401   3.669  0.00  0.00    +0.046 A 
ATOM     13  C   UNL     1       4.217  -5.797   2.525  0.00  0.00    +0.013 A 
ATOM     14  C   UNL     1       2.953  -5.208   2.524  0.00  0.00    -0.004 A 
ATOM     15  C   UNL     1       2.177  -5.227   3.683  0.00  0.00    +0.013 A 
ATOM     16  C   UNL     1       2.658  -5.837   4.822  0.00  0.00    +0.046 A 
BRANCH  11  17
ATOM     17  O   UNL     1       4.389  -7.019   5.945  0.00  0.00    -0.478 OA
BRANCH  17  19
ATOM     18  C   UNL     1       6.785  -6.707   6.026  0.00  0.00    +0.064 C 
ATOM     19  C   UNL     1       5.639  -7.704   5.841  0.00  0.00    +0.282 C 
BRANCH  19  20
ATOM     20  C   UNL     1       5.721  -8.766   6.907  0.00  0.00    +0.395 C 
ATOM     21  O   UNL     1       4.803  -8.920   7.678  0.00  0.00    -0.242 OA
ATOM     22  O   UNL     1       6.813  -9.540   7.001  0.00  0.00    -0.242 OA
ENDBRANCH  19  20
ENDBRANCH  17  19
ENDBRANCH  11  17
ENDBRANCH   1  14
BRANCH   3  23
ATOM     23  C   UNL     1       0.592  -1.825   0.380  0.00  0.00    +0.023 A 
ATOM     24  C   UNL     1       1.774  -1.140   0.587  0.00  0.00    +0.013 A 
ATOM     25  C   UNL     1       1.754   0.223   0.811  0.00  0.00    +0.046 A 
ATOM     26  C   UNL     1       0.547   0.908   0.828  0.00  0.00    +0.130 A 
ATOM     27  C   UNL     1      -0.640   0.222   0.625  0.00  0.00    +0.092 A 
ATOM     28  C   UNL     1      -0.618  -1.145   0.395  0.00  0.00    +0.136 A 
BRANCH  28  29
ATOM     29  O   UNL     1      -1.780  -1.820   0.192  0.00  0.00    -0.434 OA
BRANCH  29  30
ATOM     30  C   UNL     1      -2.987  -1.056   0.222  0.00  0.00    +0.541 C 
ATOM     31  F   UNL     1      -3.122  -0.445   1.473  0.00  0.00    -0.166 F 
ATOM     32  F   UNL     1      -2.942  -0.074  -0.774  0.00  0.00    -0.166 F 
ENDBRANCH  29  30
ENDBRANCH  28  29
BRANCH  26  33
ATOM     33  O   UNL     1       0.529   2.248   1.049  0.00  0.00    -0.434 OA
BRANCH  33  34
ATOM     34  C   UNL     1       1.790   2.889   1.256  0.00  0.00    +0.541 C 
ATOM     35  F   UNL     1       2.417   2.332   2.375  0.00  0.00    -0.166 F 
ATOM     36  F   UNL     1       2.597   2.705   0.128  0.00  0.00    -0.166 F 
ENDBRANCH  33  34
ENDBRANCH  26  33
ENDBRANCH   3  23
TORSDOF 9
