REMARK  Name = ZINC39460348
REMARK  8 active torsions:
REMARK  status: ('A' for Active; 'I' for Inactive)
REMARK    1  A    between atoms: C_1  and  C_2
REMARK    2  A    between atoms: C_7  and  N_8
REMARK    3  A    between atoms: C_11  and  C_16
REMARK    4  A    between atoms: C_16  and  S_17
REMARK    5  A    between atoms: S_17  and  C_18
REMARK    6  A    between atoms: C_18  and  C_19
REMARK    7  A    between atoms: C_24  and  C_31
REMARK    8  A    between atoms: C_25  and  C_30
REMARK                            x       y       z     vdW  Elec       q    Type
REMARK                         _______ _______ _______ _____ _____    ______ ____
ROOT
ATOM      1  N   UNL     1       0.025  -0.015   2.416  0.00  0.00    -0.283 N 
ATOM      2  C   UNL     1      -0.058  -0.712   3.606  0.00  0.00    +0.224 A 
ATOM      3  N   UNL     1      -0.162  -0.053   4.758  0.00  0.00    -0.198 NA
ATOM      4  C   UNL     1      -0.242  -0.719   5.897  0.00  0.00    +0.146 A 
ATOM      5  N   UNL     1      -0.219  -2.041   5.897  0.00  0.00    -0.199 NA
ATOM      6  C   UNL     1      -0.115  -2.706   4.749  0.00  0.00    +0.217 A 
ATOM      7  N   UNL     1      -0.041  -2.040   3.602  0.00  0.00    -0.181 NA
ATOM      8  N   UNL     1      -0.091  -4.086   4.750  0.00  0.00    -0.327 N 
ATOM      9  H   UNL     1      -0.077   0.949   2.411  0.00  0.00    +0.155 HD
ATOM     10  H   UNL     1      -0.150  -4.571   5.588  0.00  0.00    +0.145 HD
ATOM     11  H   UNL     1      -0.015  -4.570   3.913  0.00  0.00    +0.145 HD
ENDROOT
BRANCH   1  18
ATOM     12  C   UNL     1      -1.030   1.083   0.013  0.00  0.00    +0.045 C 
ATOM     13  C   UNL     1      -0.239  -0.200   0.024  0.00  0.00    -0.029 A 
ATOM     14  C   UNL     1      -0.003  -0.876  -1.157  0.00  0.00    +0.005 A 
ATOM     15  C   UNL     1       0.723  -2.053  -1.149  0.00  0.00    +0.000 A 
ATOM     16  C   UNL     1       1.214  -2.557   0.042  0.00  0.00    +0.002 A 
ATOM     17  C   UNL     1       0.981  -1.886   1.226  0.00  0.00    +0.023 A 
ATOM     18  C   UNL     1       0.258  -0.701   1.220  0.00  0.00    +0.036 A 
ENDBRANCH   1  18
BRANCH   4  19
ATOM     19  C   UNL     1      -0.360   0.031   7.199  0.00  0.00    +0.145 C 
BRANCH  19  20
ATOM     20  S   UNL     1      -2.111   0.302   7.585  0.00  0.00    -0.145 S 
BRANCH  20  21
ATOM     21  C   UNL     1      -2.080   1.203   9.159  0.00  0.00    +0.143 C 
BRANCH  21  22
ATOM     22  C   UNL     1      -3.491   1.496   9.598  0.00  0.00    +0.133 C 
ATOM     23  N   UNL     1      -4.477   1.083   8.839  0.00  0.00    -0.161 NA
ATOM     24  C   UNL     1      -5.762   1.293   9.142  0.00  0.00    +0.271 C 
ATOM     25  O   UNL     1      -6.654   0.894   8.413  0.00  0.00    -0.268 OA
ATOM     26  C   UNL     1      -6.070   2.033  10.407  0.00  0.00    +0.071 C 
ATOM     27  C   UNL     1      -7.271   2.356  10.910  0.00  0.00    -0.045 C 
ATOM     28  C   UNL     1      -7.305   3.113  12.218  0.00  0.00    +0.076 C 
ATOM     29  S   UNL     1      -5.514   3.285  12.597  0.00  0.00    -0.098 S 
ATOM     30  C   UNL     1      -4.873   2.443  11.171  0.00  0.00    +0.111 C 
ATOM     31  N   UNL     1      -3.671   2.152  10.734  0.00  0.00    -0.227 NA
ATOM     32  C   UNL     1      -7.962   4.484  12.040  0.00  0.00    +0.024 C 
ATOM     33  C   UNL     1      -8.543   1.977  10.195  0.00  0.00    +0.041 C 
ENDBRANCH  21  22
ENDBRANCH  20  21
ENDBRANCH  19  20
ENDBRANCH   4  19
TORSDOF 5
