REMARK  Name = ZINC10649145
REMARK  13 active torsions:
REMARK  status: ('A' for Active; 'I' for Inactive)
REMARK    1  A    between atoms: C_1  and  C_2
REMARK    2  A    between atoms: C_2  and  O_3
REMARK    3  A    between atoms: O_3  and  C_4
REMARK    4  A    between atoms: C_4  and  C_6
REMARK    5  A    between atoms: C_10  and  N_11
REMARK    6  A    between atoms: C_12  and  C_14
REMARK    7  A    between atoms: C_14  and  S_15
REMARK    8  A    between atoms: S_15  and  C_16
REMARK    9  A    between atoms: N_20  and  C_21
REMARK   10  A    between atoms: C_24  and  C_30
REMARK   11  A    between atoms: C_24  and  C_31
REMARK   12  A    between atoms: C_26  and  C_28
REMARK   13  A    between atoms: C_26  and  C_29
REMARK                            x       y       z     vdW  Elec       q    Type
REMARK                         _______ _______ _______ _____ _____    ______ ____
ROOT
ATOM      1  C   UNL     1       1.496  -2.371   2.467  0.00  0.00    +0.091 A 
ATOM      2  C   UNL     1       0.805  -2.681   3.698  0.00  0.00    -0.024 A 
ATOM      3  C   UNL     1       1.594  -3.182   4.678  0.00  0.00    -0.016 A 
ATOM      4  S   UNL     1       3.207  -3.242   3.955  0.00  0.00    -0.079 S 
ATOM      5  C   UNL     1       2.862  -2.627   2.431  0.00  0.00    +0.086 A 
ATOM      6  C   UNL     1       1.159  -3.574   6.050  0.00  0.00    -0.041 C 
ATOM      7  N   UNL     1      -0.296  -3.566   6.195  0.00  0.00    +0.389 N 
ATOM      8  C   UNL     1      -1.073  -3.623   4.965  0.00  0.00    -0.069 C 
ATOM      9  C   UNL     1      -0.679  -2.512   3.985  0.00  0.00    +0.024 C 
ATOM     10  C   UNL     1      -0.924  -4.984   4.280  0.00  0.00    -0.010 C 
ATOM     11  C   UNL     1      -2.560  -3.434   5.320  0.00  0.00    -0.010 C 
ATOM     12  C   UNL     1       1.760  -2.568   7.053  0.00  0.00    -0.005 C 
ATOM     13  C   UNL     1       1.718  -4.963   6.387  0.00  0.00    -0.005 C 
ATOM     14  H   UNL     1      -0.568  -4.352   6.789  0.00  0.00    -0.084 HD
ATOM     15  H   UNL     1      -0.566  -2.726   6.710  0.00  0.00    -0.084 HD
ENDROOT
BRANCH   5  16
ATOM     16  N   UNL     1       3.738  -2.421   1.376  0.00  0.00    -0.279 N 
ATOM     17  C   UNL     1       5.043  -2.728   1.515  0.00  0.00    +0.228 C 
ATOM     18  O   UNL     1       5.451  -3.183   2.562  0.00  0.00    -0.275 OA
ATOM     19  H   UNL     1       3.411  -2.057   0.539  0.00  0.00    +0.155 HD
BRANCH  17  20
ATOM     20  C   UNL     1       5.995  -2.504   0.368  0.00  0.00    +0.173 C 
BRANCH  20  21
ATOM     21  S   UNL     1       7.666  -3.010   0.862  0.00  0.00    -0.077 S 
BRANCH  21  22
ATOM     22  C   UNL     1       8.647  -2.691  -0.567  0.00  0.00    +0.192 A 
ATOM     23  N   UNL     1       8.228  -2.193  -1.707  0.00  0.00    -0.123 NA
ATOM     24  N   UNL     1       9.211  -2.095  -2.528  0.00  0.00    -0.137 NA
ATOM     25  C   UNL     1      10.307  -2.519  -1.966  0.00  0.00    +0.226 A 
ATOM     26  N   UNL     1       9.989  -2.909  -0.695  0.00  0.00    -0.305 N 
BRANCH  26  27
ATOM     27  C   UNL     1      10.898  -3.451   0.318  0.00  0.00    +0.091 C 
ATOM     28  C   UNL     1      12.397  -3.417   0.013  0.00  0.00    +0.027 C 
ATOM     29  C   UNL     1      11.639  -4.746  -0.019  0.00  0.00    +0.027 C 
ENDBRANCH  26  27
ENDBRANCH  21  22
ENDBRANCH  20  21
ENDBRANCH  17  20
ENDBRANCH   5  16
BRANCH   1  30
ATOM     30  C   UNL     1       0.801  -1.814   1.305  0.00  0.00    +0.342 C 
ATOM     31  O   UNL     1       0.321  -2.557   0.470  0.00  0.00    -0.245 OA
BRANCH  30  32
ATOM     32  O   UNL     1       0.693  -0.477   1.160  0.00  0.00    -0.461 OA
BRANCH  32  34
ATOM     33  C   UNL     1      -0.019   1.526   0.010  0.00  0.00    +0.048 C 
ATOM     34  C   UNL     1       0.002  -0.004   0.002  0.00  0.00    +0.229 C 
ENDBRANCH  32  34
ENDBRANCH  30  32
ENDBRANCH   1  30
TORSDOF 8
