REMARK  Name = ZINC17576784
REMARK  9 active torsions:
REMARK  status: ('A' for Active; 'I' for Inactive)
REMARK    1  A    between atoms: C_1  and  C_2
REMARK    2  A    between atoms: N_4  and  C_5
REMARK    3  A    between atoms: C_8  and  N_11
REMARK    4  A    between atoms: C_12  and  C_14
REMARK    5  A    between atoms: C_14  and  S_15
REMARK    6  A    between atoms: S_15  and  C_16
REMARK    7  A    between atoms: C_20  and  C_29
REMARK    8  A    between atoms: C_22  and  C_24
REMARK    9  A    between atoms: C_33  and  O_35
REMARK                            x       y       z     vdW  Elec       q    Type
REMARK                         _______ _______ _______ _____ _____    ______ ____
ROOT
ATOM      1  C   UNL     1      -7.190   8.159   1.051  0.00  0.00    +0.194 A 
ATOM      2  N   UNL     1      -7.420   9.459   1.110  0.00  0.00    -0.202 NA
ATOM      3  C   UNL     1      -8.674   9.924   1.199  0.00  0.00    +0.169 A 
ATOM      4  C   UNL     1      -9.741   8.991   1.227  0.00  0.00    +0.092 A 
ATOM      5  C   UNL     1     -11.063   9.456   1.320  0.00  0.00    +0.073 A 
ATOM      6  C   UNL     1     -11.271  10.804   1.380  0.00  0.00    +0.042 A 
ATOM      7  C   UNL     1     -10.174  11.681   1.347  0.00  0.00    +0.080 A 
ATOM      8  N   UNL     1      -8.930  11.230   1.260  0.00  0.00    -0.227 NA
ATOM      9  C   UNL     1      -9.436   7.614   1.161  0.00  0.00    +0.226 A 
ATOM     10  N   UNL     1      -8.165   7.255   1.071  0.00  0.00    -0.187 NA
ENDROOT
BRANCH   7  11
ATOM     11  C   UNL     1     -10.411  13.134   1.413  0.00  0.00    +0.038 A 
ATOM     12  C   UNL     1      -9.501  14.160   1.397  0.00  0.00    +0.017 A 
ATOM     13  C   UNL     1      -9.961  15.454   1.470  0.00  0.00    +0.008 A 
ATOM     14  C   UNL     1     -11.300  15.677   1.555  0.00  0.00    +0.046 A 
ATOM     15  S   UNL     1     -11.958  14.018   1.526  0.00  0.00    -0.095 S 
ENDBRANCH   7  11
BRANCH   5  16
ATOM     16  C   UNL     1     -12.221   8.493   1.353  0.00  0.00    +0.418 C 
ATOM     17  F   UNL     1     -13.420   9.208   1.447  0.00  0.00    -0.166 F 
ATOM     18  F   UNL     1     -12.225   7.728   0.181  0.00  0.00    -0.166 F 
ATOM     19  F   UNL     1     -12.094   7.648   2.460  0.00  0.00    -0.166 F 
ENDBRANCH   5  16
BRANCH   9  20
ATOM     20  O   UNL     1     -10.419   6.685   1.185  0.00  0.00    -0.492 OA
ATOM     21  H   UNL     1     -10.755   6.446   0.310  0.00  0.00    +0.294 HD
ENDBRANCH   9  20
BRANCH   1  22
ATOM     22  S   UNL     1      -5.523   7.601   0.935  0.00  0.00    -0.077 S 
BRANCH  22  23
ATOM     23  C   UNL     1      -5.793   5.812   0.888  0.00  0.00    +0.173 C 
BRANCH  23  25
ATOM     24  N   UNL     1      -4.420   3.760   0.737  0.00  0.00    -0.285 N 
ATOM     25  C   UNL     1      -4.465   5.106   0.787  0.00  0.00    +0.227 C 
ATOM     26  O   UNL     1      -3.438   5.750   0.750  0.00  0.00    -0.275 OA
ATOM     27  H   UNL     1      -5.235   3.244   0.834  0.00  0.00    +0.155 HD
BRANCH  24  31
ATOM     28  C   UNL     1      -0.775   1.817   0.166  0.00  0.00    +0.033 A 
ATOM     29  C   UNL     1      -0.829   2.986   0.915  0.00  0.00    +0.025 A 
ATOM     30  C   UNL     1      -2.035   3.632   1.099  0.00  0.00    +0.025 A 
ATOM     31  C   UNL     1      -3.196   3.107   0.545  0.00  0.00    +0.034 A 
ATOM     32  C   UNL     1      -3.143   1.936  -0.198  0.00  0.00    +0.025 A 
ATOM     33  C   UNL     1      -1.936   1.293  -0.387  0.00  0.00    +0.025 A 
BRANCH  28  37
ATOM     34  C   UNL     1       2.055  -0.083  -1.434  0.00  0.00    +0.109 C 
ATOM     35  C   UNL     1       0.703   0.535  -1.190  0.00  0.00    +0.214 C 
ATOM     36  O   UNL     1      -0.158   0.467  -2.042  0.00  0.00    -0.276 OA
ATOM     37  N   UNL     1       0.449   1.164  -0.025  0.00  0.00    -0.286 N 
ATOM     38  H   UNL     1       1.113   1.161   0.682  0.00  0.00    +0.155 HD
ENDBRANCH  28  37
ENDBRANCH  24  31
ENDBRANCH  23  25
ENDBRANCH  22  23
ENDBRANCH   1  22
TORSDOF 8
