REMARK  Name = ZINC36543328
REMARK  11 active torsions:
REMARK  status: ('A' for Active; 'I' for Inactive)
REMARK    1  A    between atoms: C_1  and  C_2
REMARK    2  A    between atoms: C_2  and  C_3
REMARK    3  A    between atoms: C_3  and  C_4
REMARK    4  A    between atoms: C_5  and  C_6
REMARK    5  A    between atoms: C_6  and  C_8
REMARK    6  A    between atoms: C_6  and  N_17
REMARK    7  A    between atoms: N_10  and  C_11
REMARK    8  A    between atoms: N_17  and  C_18
REMARK    9  A    between atoms: C_25  and  C_27
REMARK   10  A    between atoms: C_29  and  N_36
REMARK   11  A    between atoms: C_31  and  N_33
REMARK                            x       y       z     vdW  Elec       q    Type
REMARK                         _______ _______ _______ _____ _____    ______ ____
ROOT
ATOM      1  N   UNL     1      -1.568  -4.888  -0.319  0.00  0.00    -0.251 N 
ATOM      2  C   UNL     1      -2.257  -4.699  -1.462  0.00  0.00    +0.252 C 
ATOM      3  O   UNL     1      -3.099  -3.824  -1.525  0.00  0.00    -0.270 OA
ENDROOT
BRANCH   1   4
ATOM      4  C   UNL     1      -0.518  -5.812  -0.280  0.00  0.00    +0.056 A 
ATOM      5  C   UNL     1       0.710  -5.493  -0.846  0.00  0.00    +0.025 A 
ATOM      6  C   UNL     1       1.745  -6.407  -0.806  0.00  0.00    +0.002 A 
ATOM      7  C   UNL     1       1.560  -7.638  -0.204  0.00  0.00    +0.002 A 
ATOM      8  C   UNL     1       0.340  -7.960   0.360  0.00  0.00    +0.022 A 
ATOM      9  C   UNL     1      -0.699  -7.048   0.329  0.00  0.00    +0.062 A 
ATOM     10 CL   UNL     1      -2.229  -7.448   1.044  0.00  0.00    -0.082 Cl
ENDBRANCH   1   4
BRANCH   2  11
ATOM     11  C   UNL     1      -1.988  -5.553  -2.637  0.00  0.00    +0.042 A 
ATOM     12  C   UNL     1      -1.634  -6.892  -2.464  0.00  0.00    +0.046 A 
ATOM     13  C   UNL     1      -1.385  -7.685  -3.566  0.00  0.00    +0.129 A 
ATOM     14  C   UNL     1      -1.485  -7.155  -4.840  0.00  0.00    +0.065 A 
ATOM     15  C   UNL     1      -1.835  -5.828  -5.018  0.00  0.00    +0.129 A 
ATOM     16  C   UNL     1      -2.092  -5.026  -3.925  0.00  0.00    +0.046 A 
BRANCH  15  17
ATOM     17  N   UNL     1      -1.938  -5.269  -6.385  0.00  0.00    +0.057 N 
ATOM     18  O   UNL     1      -1.718  -5.972  -7.344  0.00  0.00    -0.126 OA
ATOM     19  O   UNL     1      -2.244  -4.110  -6.543  0.00  0.00    -0.126 OA
ENDBRANCH  15  17
BRANCH  13  20
ATOM     20  N   UNL     1      -1.009  -9.105  -3.384  0.00  0.00    +0.057 N 
ATOM     21  O   UNL     1      -0.920  -9.569  -2.271  0.00  0.00    -0.126 OA
ATOM     22  O   UNL     1      -0.790  -9.800  -4.348  0.00  0.00    -0.126 OA
ENDBRANCH  13  20
ENDBRANCH   2  11
BRANCH   1  23
ATOM     23  C   UNL     1      -1.919  -4.128   0.883  0.00  0.00    +0.190 C 
BRANCH  23  24
ATOM     24  C   UNL     1      -3.384  -4.315   1.186  0.00  0.00    +0.238 C 
ATOM     25  O   UNL     1      -4.063  -5.026   0.477  0.00  0.00    -0.273 OA
ATOM     26  N   UNL     1      -3.938  -3.691   2.244  0.00  0.00    -0.311 N 
ATOM     27  H   UNL     1      -3.395  -3.122   2.811  0.00  0.00    +0.149 HD
BRANCH  26  28
ATOM     28  C   UNL     1      -5.362  -3.872   2.538  0.00  0.00    +0.073 C 
ATOM     29  C   UNL     1      -6.184  -2.883   1.710  0.00  0.00    +0.022 C 
ATOM     30  C   UNL     1      -7.671  -3.072   2.017  0.00  0.00    +0.002 C 
ATOM     31  C   UNL     1      -7.920  -2.822   3.505  0.00  0.00    +0.000 C 
ATOM     32  C   UNL     1      -7.098  -3.812   4.333  0.00  0.00    +0.002 C 
ATOM     33  C   UNL     1      -5.611  -3.622   4.026  0.00  0.00    +0.022 C 
ENDBRANCH  26  28
ENDBRANCH  23  24
BRANCH  23  35
ATOM     34  C   UNL     1      -1.030  -2.280  -0.442  0.00  0.00    -0.029 C 
ATOM     35  C   UNL     1      -1.636  -2.666   0.653  0.00  0.00    +0.001 C 
BRANCH  34  36
ATOM     36  C   UNL     1      -0.874  -0.811  -0.741  0.00  0.00    +0.027 C 
BRANCH  36  38
ATOM     37  C   UNL     1       0.762   1.000  -1.275  0.00  0.00    +0.004 C 
ATOM     38  C   UNL     1       0.604  -0.492  -0.972  0.00  0.00    +0.001 C 
ENDBRANCH  36  38
ENDBRANCH  34  36
ENDBRANCH  23  35
ENDBRANCH   1  23
TORSDOF 10
