REMARK  Name = ZINC35035899
REMARK  6 active torsions:
REMARK  status: ('A' for Active; 'I' for Inactive)
REMARK    1  A    between atoms: C_1  and  C_2
REMARK    2  A    between atoms: C_2  and  C_4
REMARK    3  A    between atoms: C_2  and  N_17
REMARK    4  A    between atoms: N_14  and  C_15
REMARK    5  A    between atoms: N_17  and  C_18
REMARK    6  A    between atoms: N_21  and  C_22
REMARK                            x       y       z     vdW  Elec       q    Type
REMARK                         _______ _______ _______ _____ _____    ______ ____
ROOT
ATOM      1  N   UNL     1       0.839  -1.039   1.166  0.00  0.00    -0.279 N 
ATOM      2  C   UNL     1       0.505  -0.657   2.541  0.00  0.00    +0.134 C 
ATOM      3  C   UNL     1       1.802  -1.953   0.936  0.00  0.00    +0.303 C 
ATOM      4  O   UNL     1       2.080  -2.269  -0.204  0.00  0.00    -0.253 OA
ATOM      5  N   UNL     1       2.458  -2.516   1.970  0.00  0.00    -0.294 N 
ATOM      6  H   UNL     1       2.236  -2.263   2.881  0.00  0.00    +0.151 HD
ENDROOT
BRANCH   5   7
ATOM      7  C   UNL     1       3.505  -3.510   1.720  0.00  0.00    +0.037 C 
ATOM      8  C   UNL     1       2.909  -4.701   0.968  0.00  0.00    +0.029 C 
ATOM      9  C   UNL     1       4.002  -5.739   0.707  0.00  0.00    -0.008 C 
ATOM     10  C   UNL     1       4.582  -6.215   2.041  0.00  0.00    +0.007 C 
ATOM     11  C   UNL     1       5.178  -5.024   2.793  0.00  0.00    -0.008 C 
ATOM     12  C   UNL     1       4.085  -3.986   3.054  0.00  0.00    +0.029 C 
ATOM     13  C   UNL     1       6.289  -4.394   1.950  0.00  0.00    +0.007 C 
ATOM     14  C   UNL     1       5.710  -3.917   0.617  0.00  0.00    -0.008 C 
ATOM     15  C   UNL     1       5.113  -5.108  -0.135  0.00  0.00    +0.007 C 
ATOM     16  C   UNL     1       4.616  -2.879   0.878  0.00  0.00    +0.029 C 
ENDBRANCH   5   7
BRANCH   1  18
ATOM     17  C   UNL     1       0.340   1.088   0.067  0.00  0.00    +0.036 C 
ATOM     18  C   UNL     1       0.127  -0.427   0.042  0.00  0.00    +0.140 C 
BRANCH  18  19
ATOM     19  C   UNL     1      -1.345  -0.729   0.156  0.00  0.00    +0.133 A 
ATOM     20  N   UNL     1      -1.875  -0.775   1.340  0.00  0.00    -0.232 NA
ATOM     21  C   UNL     1      -3.193  -1.042   1.520  0.00  0.00    +0.078 A 
ATOM     22  C   UNL     1      -3.763  -1.091   2.794  0.00  0.00    +0.030 A 
ATOM     23  C   UNL     1      -5.105  -1.364   2.931  0.00  0.00    +0.022 A 
ATOM     24  C   UNL     1      -5.902  -1.593   1.815  0.00  0.00    +0.042 A 
ATOM     25  C   UNL     1      -5.362  -1.550   0.548  0.00  0.00    +0.035 A 
ATOM     26  C   UNL     1      -4.005  -1.274   0.389  0.00  0.00    +0.066 A 
ATOM     27  C   UNL     1      -3.374  -1.215  -0.938  0.00  0.00    +0.262 A 
ATOM     28  O   UNL     1      -4.018  -1.406  -1.954  0.00  0.00    -0.267 OA
ATOM     29  N   UNL     1      -2.051  -0.934  -0.987  0.00  0.00    -0.298 N 
ATOM     30  C   UNL     1      -1.373  -0.857  -2.283  0.00  0.00    +0.154 C 
ATOM     31 CL   UNL     1      -7.591  -1.936   2.020  0.00  0.00    -0.084 Cl
ENDBRANCH  18  19
ENDBRANCH   1  18
TORSDOF 3
