REMARK  Name = ZINC28707108
REMARK  10 active torsions:
REMARK  status: ('A' for Active; 'I' for Inactive)
REMARK    1  A    between atoms: C_4  and  C_7
REMARK    2  A    between atoms: C_7  and  C_8
REMARK    3  A    between atoms: C_7  and  C_14
REMARK    4  A    between atoms: C_17  and  C_19
REMARK    5  A    between atoms: N_21  and  CA_22
REMARK    6  A    between atoms: CA_22  and  CB_24
REMARK    7  A    between atoms: CA_22  and  C_31
REMARK    8  A    between atoms: CB_24  and  CG_25
REMARK    9  A    between atoms: CG_25  and  CD_26
REMARK   10  A    between atoms: CD_26  and  NE_27
REMARK                            x       y       z     vdW  Elec       q    Type
REMARK                         _______ _______ _______ _____ _____    ______ ____
ROOT
ATOM      1  C   UNK A   0       1.427  -1.838   2.755  0.00  0.00    +0.280 C 
ATOM      2  O   UNK A   0       2.288  -1.692   3.603  0.00  0.00    -0.267 OA
ATOM      3  N   ARG A   1       0.618  -0.811   2.432  0.00  0.00    -0.296 N 
ATOM      4  H   ARG A   1      -0.160  -0.943   1.665  0.00  0.00    +0.150 HD
ENDROOT
BRANCH   1   8
ATOM      5  C   UNK A   0       0.515  -4.705   0.754  0.00  0.00    +0.118 A 
ATOM      6  C   UNK A   0       1.530  -5.250   1.461  0.00  0.00    +0.046 A 
ATOM      7  C   UNK A   0       2.021  -4.252   2.316  0.00  0.00    +0.055 A 
ATOM      8  C   UNK A   0       1.272  -3.134   2.085  0.00  0.00    +0.189 A 
ATOM      9  O   UNK A   0       0.359  -3.431   1.137  0.00  0.00    -0.454 OA
BRANCH   5  10
ATOM     10  C   UNK A   0      -0.310  -5.415  -0.288  0.00  0.00    +0.115 C 
BRANCH  10  14
ATOM     11  C   UNK A   0      -4.414  -5.407   0.895  0.00  0.00    +0.000 A 
ATOM     12  C   UNK A   0      -3.791  -6.597   0.569  0.00  0.00    +0.000 A 
ATOM     13  C   UNK A   0      -2.463  -6.600   0.186  0.00  0.00    +0.004 A 
ATOM     14  C   UNK A   0      -1.758  -5.412   0.129  0.00  0.00    -0.033 A 
ATOM     15  C   UNK A   0      -2.379  -4.223   0.460  0.00  0.00    +0.004 A 
ATOM     16  C   UNK A   0      -3.709  -4.220   0.838  0.00  0.00    +0.000 A 
ENDBRANCH  10  14
BRANCH  10  17
ATOM     17  C   UNK A   0      -0.166  -4.706  -1.611  0.00  0.00    -0.033 A 
ATOM     18  C   UNK A   0      -0.396  -3.346  -1.694  0.00  0.00    +0.004 A 
ATOM     19  C   UNK A   0      -0.260  -2.695  -2.906  0.00  0.00    +0.000 A 
ATOM     20  C   UNK A   0       0.095  -3.406  -4.037  0.00  0.00    +0.000 A 
ATOM     21  C   UNK A   0       0.320  -4.768  -3.954  0.00  0.00    +0.000 A 
ATOM     22  C   UNK A   0       0.189  -5.418  -2.741  0.00  0.00    +0.004 A 
ENDBRANCH  10  17
ENDBRANCH   5  10
ENDBRANCH   1   8
BRANCH   3  23
ATOM     23  CA  ARG A   1       0.773   0.483   3.101  0.00  0.00    +0.187 C 
BRANCH  23  24
ATOM     24  C   ARG A   1       0.005   0.474   4.397  0.00  0.00    +0.376 C 
ATOM     25  O   ARG A   1      -0.610  -0.512   4.728  0.00  0.00    -0.244 OA
ATOM     26  OXT ARG A   1       0.003   1.561   5.184  0.00  0.00    -0.244 OA
ENDBRANCH  23  24
BRANCH  23  27
ATOM     27  CB  ARG A   1       0.235   1.593   2.196  0.00  0.00    +0.035 C 
BRANCH  27  28
ATOM     28  CG  ARG A   1       1.095   1.685   0.934  0.00  0.00    +0.023 C 
BRANCH  28  29
ATOM     29  CD  ARG A   1       0.556   2.795   0.030  0.00  0.00    +0.115 C 
BRANCH  29  30
ATOM     30  NE  ARG A   1       1.379   2.882  -1.179  0.00  0.00    -0.358 N 
ATOM     31  CZ  ARG A   1       1.084   3.815  -2.146  0.00  0.00    +0.166 C 
ATOM     32  NH1 ARG A   1       0.072   4.621  -1.986  0.00  0.00    -0.372 N 
ATOM     33  NH2 ARG A   1       1.857   3.897  -3.280  0.00  0.00    -0.372 N 
ATOM     34  HE  ARG A   1       2.233   2.202  -1.313  0.00  0.00    +0.162 HD
ATOM     35 HH11 ARG A   1      -0.163   5.367  -2.760  0.00  0.00    +0.159 HD
ATOM     36 HH21 ARG A   1       1.621   4.643  -4.053  0.00  0.00    +0.159 HD
ATOM     37 HH22 ARG A   1       2.711   3.217  -3.414  0.00  0.00    +0.159 HD
ATOM     38 HH12 ARG A   1      -0.545   4.555  -1.079  0.00  0.00    +0.159 HD
ENDBRANCH  29  30
ENDBRANCH  28  29
ENDBRANCH  27  28
ENDBRANCH  23  27
ENDBRANCH   3  23
TORSDOF 10
