REMARK  Name = ZINC44737535
REMARK  10 active torsions:
REMARK  status: ('A' for Active; 'I' for Inactive)
REMARK    1  A    between atoms: C_1  and  C_2
REMARK    2  A    between atoms: C_9  and  C_11
REMARK    3  A    between atoms: C_11  and  C_13
REMARK    4  A    between atoms: C_11  and  N_14
REMARK    5  A    between atoms: C_15  and  C_17
REMARK    6  A    between atoms: C_28  and  C_30
REMARK    7  A    between atoms: C_30  and  C_31
REMARK    8  A    between atoms: C_31  and  C_32
REMARK    9  A    between atoms: C_35  and  O_38
REMARK   10  A    between atoms: O_38  and  C_39
REMARK                            x       y       z     vdW  Elec       q    Type
REMARK                         _______ _______ _______ _____ _____    ______ ____
ROOT
ATOM      1  C   UNL     1       1.878  -8.733   0.984  0.00  0.00    +0.100 C 
ATOM      2  C   UNL     1       0.776  -9.459   0.179  0.00  0.00    +0.121 C 
ATOM      3  N   UNL     1       1.233 -10.867   0.104  0.00  0.00    -0.300 N 
ATOM      4  C   UNL     1       1.812 -11.138   1.442  0.00  0.00    +0.115 C 
ATOM      5  C   UNL     1       2.554  -9.839   1.812  0.00  0.00    -0.004 C 
ATOM      6  C   UNL     1       2.402  -9.551   3.303  0.00  0.00    -0.010 C 
ATOM      7  C   UNL     1       3.133 -10.632   4.104  0.00  0.00    -0.082 C 
ATOM      8  N   UNL     1       4.552 -10.645   3.730  0.00  0.00    +0.379 N 
ATOM      9  C   UNL     1       4.695 -11.014   2.317  0.00  0.00    -0.082 C 
ATOM     10  C   UNL     1       4.030  -9.949   1.440  0.00  0.00    -0.010 C 
ATOM     11  C   UNL     1       1.142 -11.710  -0.943  0.00  0.00    +0.216 C 
ATOM     12  O   UNL     1       1.565 -12.842  -0.848  0.00  0.00    -0.276 OA
ATOM     13  H   UNL     1       4.946  -9.728   3.878  0.00  0.00    -0.086 HD
ATOM     14  H   UNL     1       5.043 -11.315   4.303  0.00  0.00    -0.086 HD
ENDROOT
BRANCH   1  16
ATOM     15  N   UNL     1       1.974  -6.601   2.233  0.00  0.00    -0.305 N 
ATOM     16  C   UNL     1       1.268  -7.697   1.892  0.00  0.00    +0.219 C 
ATOM     17  O   UNL     1       0.141  -7.848   2.315  0.00  0.00    -0.275 OA
ATOM     18  H   UNL     1       2.875  -6.479   1.895  0.00  0.00    +0.149 HD
BRANCH  15  19
ATOM     19  C   UNL     1       1.381  -5.593   3.116  0.00  0.00    +0.136 C 
ATOM     20  C   UNL     1       0.546  -4.616   2.286  0.00  0.00    +0.036 C 
BRANCH  19  29
ATOM     21  C   UNL     1       5.863  -1.643   7.554  0.00  0.00    +0.044 C 
ATOM     22  C   UNL     1       5.346  -2.462   6.400  0.00  0.00    -0.048 A 
ATOM     23  C   UNL     1       6.194  -2.787   5.351  0.00  0.00    +0.005 A 
ATOM     24  C   UNL     1       5.745  -3.530   4.296  0.00  0.00    +0.030 A 
ATOM     25  C   UNL     1       4.418  -3.969   4.268  0.00  0.00    +0.089 A 
ATOM     26  C   UNL     1       3.559  -3.640   5.330  0.00  0.00    +0.067 A 
ATOM     27  C   UNL     1       4.035  -2.889   6.396  0.00  0.00    +0.031 A 
ATOM     28  N   UNL     1       2.338  -4.206   5.021  0.00  0.00    -0.340 N 
ATOM     29  C   UNL     1       2.477  -4.840   3.826  0.00  0.00    +0.128 A 
ATOM     30  N   UNL     1       3.693  -4.702   3.385  0.00  0.00    -0.231 NA
ATOM     31  H   UNL     1       1.531  -4.159   5.557  0.00  0.00    +0.167 HD
ENDBRANCH  19  29
ENDBRANCH  15  19
ENDBRANCH   1  16
BRANCH  11  32
ATOM     32  C   UNL     1       0.515 -11.245  -2.232  0.00  0.00    +0.100 C 
BRANCH  32  33
ATOM     33  C   UNL     1       0.538 -12.387  -3.251  0.00  0.00    +0.044 C 
BRANCH  33  34
ATOM     34  C   UNL     1      -0.089 -11.922  -4.540  0.00  0.00    -0.047 A 
ATOM     35  C   UNL     1      -1.449 -12.072  -4.739  0.00  0.00    +0.007 A 
ATOM     36  C   UNL     1      -2.026 -11.648  -5.921  0.00  0.00    +0.046 A 
ATOM     37  C   UNL     1      -1.240 -11.070  -6.907  0.00  0.00    +0.120 A 
ATOM     38  C   UNL     1       0.124 -10.920  -6.704  0.00  0.00    +0.046 A 
ATOM     39  C   UNL     1       0.696 -11.342  -5.519  0.00  0.00    +0.007 A 
BRANCH  37  40
ATOM     40  O   UNL     1      -1.805 -10.652  -8.070  0.00  0.00    -0.495 OA
ATOM     41  C   UNL     1      -0.935 -10.067  -9.040  0.00  0.00    +0.277 C 
ENDBRANCH  37  40
ENDBRANCH  33  34
ENDBRANCH  32  33
ENDBRANCH  11  32
TORSDOF 7
