REMARK  Name = ZINC63472930
REMARK  4 active torsions:
REMARK  status: ('A' for Active; 'I' for Inactive)
REMARK    1  A    between atoms: C_4  and  C_7
REMARK    2  A    between atoms: C_7  and  N_8
REMARK    3  A    between atoms: C_13  and  C_31
REMARK    4  A    between atoms: C_31  and  C_32
REMARK                            x       y       z     vdW  Elec       q    Type
REMARK                         _______ _______ _______ _____ _____    ______ ____
ROOT
ATOM      1  N   UNL     1       4.152  -0.952   1.338  0.00  0.00    -0.237 N 
ATOM      2  C   UNL     1       4.914  -0.089   2.018  0.00  0.00    +0.227 C 
ATOM      3  O   UNL     1       5.322   0.971   1.593  0.00  0.00    -0.275 OA
ATOM      4  C   UNL     1       5.188  -0.640   3.399  0.00  0.00    +0.107 C 
ATOM      5  C   UNL     1       6.684  -1.002   3.513  0.00  0.00    +0.072 C 
ATOM      6  N   UNL     1       6.703  -2.349   4.142  0.00  0.00    -0.295 NA
ATOM      7  C   UNL     1       5.562  -3.051   3.525  0.00  0.00    +0.136 C 
ATOM      8  C   UNL     1       4.433  -1.998   3.399  0.00  0.00    +0.122 C 
ATOM      9  C   UNL     1       3.820  -2.056   2.018  0.00  0.00    +0.229 C 
ATOM     10  O   UNL     1       3.136  -2.962   1.592  0.00  0.00    -0.275 OA
ATOM     11  C   UNL     1       5.933  -3.638   2.193  0.00  0.00    +0.006 A 
ATOM     12  C   UNL     1       6.402  -3.098   1.017  0.00  0.00    +0.046 A 
ATOM     13  C   UNL     1       6.662  -3.920  -0.068  0.00  0.00    +0.124 A 
ATOM     14  C   UNL     1       6.449  -5.284   0.035  0.00  0.00    +0.040 A 
ATOM     15  C   UNL     1       5.978  -5.827   1.212  0.00  0.00    +0.026 A 
ATOM     16  C   UNL     1       5.714  -5.008   2.307  0.00  0.00    +0.039 A 
ATOM     17  N   UNL     1       5.239  -5.317   3.585  0.00  0.00    -0.283 N 
ATOM     18  C   UNL     1       5.122  -4.222   4.361  0.00  0.00    +0.243 C 
ATOM     19  O   UNL     1       4.736  -4.187   5.510  0.00  0.00    -0.273 OA
ATOM     20  F   UNL     1       7.123  -3.391  -1.223  0.00  0.00    -0.205 F 
ATOM     21  H   UNL     1       7.570  -2.827   3.946  0.00  0.00    +0.124 HD
ATOM     22  H   UNL     1       5.020  -6.215   3.879  0.00  0.00    +0.155 HD
ENDROOT
BRANCH   1  23
ATOM     23  C   UNL     1       3.711  -0.707  -0.038  0.00  0.00    +0.151 C 
BRANCH  23  27
ATOM     24  C   UNL     1      -0.017   1.378   0.010  0.00  0.00    +0.000 A 
ATOM     25  C   UNL     1       1.171   2.086   0.002  0.00  0.00    +0.000 A 
ATOM     26  C   UNL     1       2.377   1.411  -0.013  0.00  0.00    +0.005 A 
ATOM     27  C   UNL     1       2.396   0.029  -0.020  0.00  0.00    -0.030 A 
ATOM     28  C   UNL     1       1.208  -0.679  -0.012  0.00  0.00    +0.005 A 
ATOM     29  C   UNL     1       0.002  -0.004   0.002  0.00  0.00    +0.000 A 
ENDBRANCH  23  27
ENDBRANCH   1  23
BRANCH   5  30
ATOM     30  C   UNL     1       7.412   0.012   4.399  0.00  0.00    +0.052 C 
BRANCH  30  31
ATOM     31  C   UNL     1       8.889  -0.288   4.397  0.00  0.00    -0.040 C 
ATOM     32  C   UNL     1       9.832   0.275   3.608  0.00  0.00    -0.001 A 
ATOM     33  C   UNL     1       9.767   1.296   2.555  0.00  0.00    +0.010 A 
ATOM     34  C   UNL     1      10.908   1.664   1.927  0.00  0.00    +0.001 A 
ATOM     35  C   UNL     1      12.146   1.096   2.256  0.00  0.00    +0.002 A 
ATOM     36  C   UNL     1      12.285   0.153   3.212  0.00  0.00    +0.026 A 
ATOM     37  C   UNL     1      11.152  -0.308   3.937  0.00  0.00    +0.043 A 
ATOM     38  N   UNL     1      11.029  -1.198   4.892  0.00  0.00    -0.380 N 
ATOM     39  C   UNL     1       9.617  -1.275   5.281  0.00  0.00    +0.144 C 
ATOM     40  H   UNL     1      11.752  -1.716   5.279  0.00  0.00    +0.160 HD
ENDBRANCH  30  31
ENDBRANCH   5  30
TORSDOF 4
