REMARK  Name = ZINC22561312
REMARK  15 active torsions:
REMARK  status: ('A' for Active; 'I' for Inactive)
REMARK    1  A    between atoms: C_1  and  C_2
REMARK    2  A    between atoms: C_3  and  C_31
REMARK    3  A    between atoms: C_4  and  C_30
REMARK    4  A    between atoms: C_7  and  C_8
REMARK    5  A    between atoms: C_8  and  C_10
REMARK    6  A    between atoms: C_10  and  S_11
REMARK    7  A    between atoms: S_11  and  C_12
REMARK    8  A    between atoms: C_15  and  C_24
REMARK    9  A    between atoms: N_16  and  C_17
REMARK   10  A    between atoms: C_24  and  C_26
REMARK   11  A    between atoms: C_24  and  N_27
REMARK   12  A    between atoms: N_27  and  C_28
REMARK   13  A    between atoms: N_27  and  C_29
REMARK   14  A    between atoms: C_31  and  O_33
REMARK   15  A    between atoms: O_33  and  C_34
REMARK                            x       y       z     vdW  Elec       q    Type
REMARK                         _______ _______ _______ _____ _____    ______ ____
ROOT
ATOM      1  C   UNL     1       0.002  -0.004   0.002  0.00  0.00    +0.196 A 
ATOM      2  N   UNL     1       1.068  -0.771  -0.012  0.00  0.00    -0.122 NA
ATOM      3  N   UNL     1       0.718  -2.007  -0.015  0.00  0.00    -0.135 NA
ATOM      4  C   UNL     1      -0.582  -2.106  -0.003  0.00  0.00    +0.125 A 
ATOM      5  N   UNL     1      -1.086  -0.833   0.013  0.00  0.00    -0.275 N 
ENDROOT
BRANCH   5   6
ATOM      6  C   UNL     1      -2.438  -0.457   0.035  0.00  0.00    +0.050 A 
ATOM      7  C   UNL     1      -3.229  -0.769   1.131  0.00  0.00    +0.029 A 
ATOM      8  C   UNL     1      -4.558  -0.393   1.153  0.00  0.00    +0.040 A 
ATOM      9  C   UNL     1      -5.104   0.285   0.076  0.00  0.00    +0.124 A 
ATOM     10  C   UNL     1      -4.317   0.593  -1.022  0.00  0.00    +0.040 A 
ATOM     11  C   UNL     1      -2.987   0.224  -1.044  0.00  0.00    +0.029 A 
ATOM     12  F   UNL     1      -6.405   0.647   0.096  0.00  0.00    -0.205 F 
ENDBRANCH   5   6
BRANCH   4  13
ATOM     13  C   UNL     1      -1.380  -3.383  -0.001  0.00  0.00    -0.003 C 
ATOM     14  C   UNL     1      -1.348  -4.007  -1.398  0.00  0.00    -0.005 C 
BRANCH  13  15
ATOM     15  N   UNL     1      -0.800  -4.323   0.968  0.00  0.00    +0.382 N 
ATOM     16  C   UNL     1      -0.729  -3.721   2.306  0.00  0.00    -0.096 C 
ATOM     17  C   UNL     1      -1.555  -5.583   0.996  0.00  0.00    -0.096 C 
ATOM     18  H   UNL     1       0.226  -4.551   0.644  0.00  0.00    -0.082 HD
ENDBRANCH  13  15
ENDBRANCH   4  13
BRANCH   1  19
ATOM     19  S   UNL     1      -0.022   1.758   0.012  0.00  0.00    -0.078 S 
BRANCH  19  20
ATOM     20  C   UNL     1       1.756   2.096  -0.004  0.00  0.00    +0.158 C 
BRANCH  20  21
ATOM     21  C   UNL     1       1.984   3.586   0.002  0.00  0.00    +0.190 C 
ATOM     22  O   UNL     1       1.036   4.345   0.015  0.00  0.00    -0.290 OA
BRANCH  21  29
ATOM     23  C   UNL     1       2.709   6.609  -0.001  0.00  0.00    +0.047 C 
ATOM     24  C   UNL     1       3.652   5.434  -0.009  0.00  0.00    -0.008 A 
ATOM     25  C   UNL     1       5.062   5.487  -0.018  0.00  0.00    +0.083 A 
ATOM     26  C   UNL     1       5.520   4.181  -0.029  0.00  0.00    +0.028 A 
ATOM     27  N   UNL     1       4.464   3.354  -0.023  0.00  0.00    -0.355 N 
ATOM     28  H   UNL     1       4.617   2.265  -0.030  0.00  0.00    +0.166 HD
ATOM     29  C   UNL     1       3.303   4.100  -0.007  0.00  0.00    +0.087 A 
ATOM     30  C   UNL     1       6.966   3.757  -0.047  0.00  0.00    +0.064 C 
BRANCH  25  31
ATOM     31  C   UNL     1       5.891   6.704  -0.020  0.00  0.00    +0.341 C 
ATOM     32  O   UNL     1       6.222   7.212  -1.073  0.00  0.00    -0.245 OA
BRANCH  31  33
ATOM     33  O   UNL     1       6.282   7.254   1.146  0.00  0.00    -0.464 OA
ATOM     34  C   UNL     1       7.098   8.453   1.068  0.00  0.00    +0.280 C 
ENDBRANCH  31  33
ENDBRANCH  25  31
ENDBRANCH  21  29
ENDBRANCH  20  21
ENDBRANCH  19  20
ENDBRANCH   1  19
TORSDOF 9
