REMARK  Name = ZINC13065232
REMARK  12 active torsions:
REMARK  status: ('A' for Active; 'I' for Inactive)
REMARK    1  A    between atoms: C_1  and  C_2
REMARK    2  A    between atoms: C_2  and  C_3
REMARK    3  A    between atoms: C_3  and  C_5
REMARK    4  A    between atoms: C_3  and  N_66
REMARK    5  A    between atoms: N_9  and  C_10
REMARK    6  A    between atoms: C_10  and  C_11
REMARK    7  A    between atoms: C_17  and  C_18
REMARK    8  A    between atoms: C_17  and  N_66
REMARK    9  A    between atoms: C_23  and  C_24
REMARK   10  A    between atoms: C_23  and  N_66
REMARK   11  A    between atoms: C_27  and  C_37
REMARK   12  A    between atoms: C_30  and  C_36
REMARK                            x       y       z     vdW  Elec       q    Type
REMARK                         _______ _______ _______ _____ _____    ______ ____
ROOT
ATOM      1  N   UNL     1      -1.937   0.898   1.349  0.00  0.00    +0.394 N 
ATOM      2  H   UNL     1      -1.779  -0.115   1.395  0.00  0.00    -0.080 HD
ENDROOT
BRANCH   1   3
ATOM      3  C   UNL     1      -0.634   1.581   1.196  0.00  0.00    +0.003 C 
BRANCH   3   4
ATOM      4  C   UNL     1       0.204   1.316   2.420  0.00  0.00    +0.138 A 
ATOM      5  N   UNL     1       0.351   0.168   3.035  0.00  0.00    -0.115 NA
ATOM      6  N   UNL     1       1.145   0.350   4.034  0.00  0.00    -0.023 NA
ATOM      7  N   UNL     1       1.502   1.586   4.076  0.00  0.00    -0.044 NA
ATOM      8  N   UNL     1       0.943   2.215   3.098  0.00  0.00    -0.226 N 
BRANCH   8   9
ATOM      9  C   UNL     1       1.085   3.638   2.783  0.00  0.00    +0.182 C 
BRANCH   9  10
ATOM     10  C   UNL     1       0.018   4.421   3.503  0.00  0.00    -0.026 A 
ATOM     11  C   UNL     1      -1.201   4.651   2.893  0.00  0.00    +0.005 A 
ATOM     12  C   UNL     1      -2.183   5.364   3.555  0.00  0.00    +0.000 A 
ATOM     13  C   UNL     1      -1.941   5.857   4.824  0.00  0.00    +0.000 A 
ATOM     14  C   UNL     1      -0.720   5.632   5.432  0.00  0.00    +0.000 A 
ATOM     15  C   UNL     1       0.259   4.914   4.772  0.00  0.00    +0.005 A 
ENDBRANCH   9  10
ENDBRANCH   8   9
ENDBRANCH   3   4
BRANCH   3  17
ATOM     16  C   UNL     1       1.399   1.763  -0.245  0.00  0.00    +0.002 C 
ATOM     17  C   UNL     1       0.076   1.022  -0.039  0.00  0.00    -0.011 C 
ENDBRANCH   3  17
ENDBRANCH   1   3
BRANCH   1  18
ATOM     18  C   UNL     1      -2.595   1.339   2.596  0.00  0.00    -0.002 C 
BRANCH  18  19
ATOM     19  C   UNL     1      -3.758   0.424   2.880  0.00  0.00    +0.089 A 
ATOM     20  C   UNL     1      -3.729  -0.662   3.674  0.00  0.00    +0.042 A 
ATOM     21  C   UNL     1      -5.029  -1.218   3.655  0.00  0.00    +0.041 A 
ATOM     22  C   UNL     1      -5.774  -0.440   2.850  0.00  0.00    +0.195 A 
ATOM     23  O   UNL     1      -5.000   0.556   2.388  0.00  0.00    -0.470 OA
ENDBRANCH  18  19
ENDBRANCH   1  18
BRANCH   1  24
ATOM     24  C   UNL     1      -2.802   1.197   0.188  0.00  0.00    -0.036 C 
BRANCH  24  25
ATOM     25  C   UNL     1      -2.901   2.685  -0.028  0.00  0.00    +0.001 A 
ATOM     26  C   UNL     1      -2.060   3.299  -0.895  0.00  0.00    +0.017 A 
ATOM     27  C   UNL     1      -2.186   4.746  -1.086  0.00  0.00    +0.002 A 
ATOM     28  C   UNL     1      -1.350   5.434  -1.972  0.00  0.00    -0.041 A 
ATOM     29  C   UNL     1      -1.490   6.784  -2.124  0.00  0.00    +0.004 A 
ATOM     30  C   UNL     1      -2.455   7.480  -1.407  0.00  0.00    +0.005 A 
ATOM     31  C   UNL     1      -3.289   6.822  -0.529  0.00  0.00    -0.026 A 
ATOM     32  C   UNL     1      -3.165   5.447  -0.358  0.00  0.00    +0.052 A 
ATOM     33  N   UNL     1      -3.987   4.764   0.513  0.00  0.00    -0.322 N 
ATOM     34  H   UNL     1      -4.661   5.249   1.014  0.00  0.00    +0.169 HD
ATOM     35  C   UNL     1      -3.867   3.435   0.678  0.00  0.00    +0.251 A 
ATOM     36  O   UNL     1      -4.610   2.863   1.457  0.00  0.00    -0.268 OA
ATOM     37  C   UNL     1      -4.332   7.589   0.242  0.00  0.00    +0.046 C 
ATOM     38  C   UNL     1      -0.300   4.689  -2.755  0.00  0.00    +0.044 C 
ENDBRANCH  24  25
ENDBRANCH   1  24
TORSDOF 9
