REMARK  Name = ZINC03840085
REMARK  10 active torsions:
REMARK  status: ('A' for Active; 'I' for Inactive)
REMARK    1  A    between atoms: C_4  and  C_7
REMARK    2  A    between atoms: C_7  and  C_8
REMARK    3  A    between atoms: C_8  and  C_10
REMARK    4  A    between atoms: C_8  and  N_13
REMARK    5  A    between atoms: C_14  and  C_16
REMARK    6  A    between atoms: C_18  and  N_27
REMARK    7  A    between atoms: C_20  and  O_26
REMARK    8  A    between atoms: C_22  and  O_25
REMARK    9  A    between atoms: C_28  and  C_30
REMARK   10  A    between atoms: C_30  and  C_31
REMARK                            x       y       z     vdW  Elec       q    Type
REMARK                         _______ _______ _______ _____ _____    ______ ____
ROOT
ATOM      1  C   UNL     1       2.061   1.354  -1.334  0.00  0.00    +0.015 C 
ATOM      2  C   UNL     1       1.387   1.054  -2.423  0.00  0.00    +0.006 C 
ATOM      3  C   UNL     1      -0.108   0.930  -2.472  0.00  0.00    +0.127 C 
ATOM      4  C   UNL     1      -0.732   1.598  -1.246  0.00  0.00    +0.167 C 
ATOM      5  C   UNL     1      -0.013   1.086   0.008  0.00  0.00    +0.149 C 
ATOM      6  C   UNL     1       1.421   1.619  -0.003  0.00  0.00    +0.074 C 
ENDROOT
BRANCH   1   8
ATOM      7  N   UNL     1       4.256   1.739  -0.335  0.00  0.00    -0.300 N 
ATOM      8  C   UNL     1       3.527   1.435  -1.427  0.00  0.00    +0.241 C 
ATOM      9  O   UNL     1       4.082   1.226  -2.489  0.00  0.00    -0.271 OA
ATOM     10  H   UNL     1       3.813   1.906   0.512  0.00  0.00    +0.150 HD
BRANCH   7  11
ATOM     11  C   UNL     1       5.716   1.819  -0.427  0.00  0.00    +0.163 C 
BRANCH  11  12
ATOM     12  C   UNL     1       6.114   3.194  -0.899  0.00  0.00    +0.231 C 
ATOM     13  O   UNL     1       5.263   4.025  -1.135  0.00  0.00    -0.274 OA
ATOM     14  N   UNL     1       7.417   3.500  -1.059  0.00  0.00    -0.328 N 
ATOM     15  H   UNL     1       8.098   2.835  -0.870  0.00  0.00    +0.145 HD
ATOM     16  H   UNL     1       7.674   4.384  -1.363  0.00  0.00    +0.145 HD
ENDBRANCH  11  12
BRANCH  11  17
ATOM     17  C   UNL     1       6.329   1.555   0.950  0.00  0.00    +0.067 C 
BRANCH  17  21
ATOM     18  C   UNL     1       5.490  -2.462   2.135  0.00  0.00    +0.000 A 
ATOM     19  C   UNL     1       6.639  -2.178   1.421  0.00  0.00    +0.000 A 
ATOM     20  C   UNL     1       6.911  -0.878   1.038  0.00  0.00    +0.004 A 
ATOM     21  C   UNL     1       6.033   0.138   1.368  0.00  0.00    -0.045 A 
ATOM     22  C   UNL     1       4.886  -0.146   2.086  0.00  0.00    +0.004 A 
ATOM     23  C   UNL     1       4.612  -1.447   2.465  0.00  0.00    +0.000 A 
ENDBRANCH  17  21
ENDBRANCH  11  17
ENDBRANCH   7  11
ENDBRANCH   1   8
BRANCH   3  24
ATOM     24  N   UNL     1      -0.477  -0.488  -2.493  0.00  0.00    -0.306 N 
ATOM     25  C   UNL     1      -0.511  -1.158  -3.662  0.00  0.00    +0.218 C 
ATOM     26  O   UNL     1      -0.237  -0.588  -4.696  0.00  0.00    -0.275 OA
ATOM     27  H   UNL     1      -0.697  -0.944  -1.665  0.00  0.00    +0.149 HD
BRANCH  25  28
ATOM     28  C   UNL     1      -0.891  -2.616  -3.683  0.00  0.00    +0.138 C 
BRANCH  28  29
ATOM     29  C   UNL     1      -0.853  -3.124  -5.101  0.00  0.00    -0.001 A 
ATOM     30  C   UNL     1       0.182  -3.672  -5.784  0.00  0.00    +0.011 A 
ATOM     31  C   UNL     1      -0.015  -4.076  -7.091  0.00  0.00    +0.008 A 
ATOM     32  C   UNL     1      -1.236  -3.901  -7.655  0.00  0.00    +0.045 A 
ATOM     33  S   UNL     1      -2.156  -3.154  -6.321  0.00  0.00    -0.101 S 
ENDBRANCH  28  29
ENDBRANCH  25  28
ENDBRANCH   3  24
BRANCH   5  34
ATOM     34  O   UNL     1      -0.689   1.550   1.178  0.00  0.00    -0.389 OA
ATOM     35  H   UNL     1      -0.280   1.267   2.007  0.00  0.00    +0.210 HD
ENDBRANCH   5  34
BRANCH   4  36
ATOM     36  O   UNL     1      -2.120   1.266  -1.172  0.00  0.00    -0.387 OA
ATOM     37  H   UNL     1      -2.576   1.646  -0.408  0.00  0.00    +0.210 HD
ENDBRANCH   4  36
TORSDOF 10
