REMARK  Name = ZINC05345950
REMARK  8 active torsions:
REMARK  status: ('A' for Active; 'I' for Inactive)
REMARK    1  A    between atoms: C_1  and  C_2
REMARK    2  A    between atoms: C_2  and  C_3
REMARK    3  A    between atoms: C_3  and  C_5
REMARK    4  A    between atoms: C_3  and  N_6
REMARK    5  A    between atoms: C_11  and  C_28
REMARK    6  A    between atoms: C_28  and  C_29
REMARK    7  A    between atoms: C_29  and  C_30
REMARK    8  A    between atoms: C_29  and  C_31
REMARK                            x       y       z     vdW  Elec       q    Type
REMARK                         _______ _______ _______ _____ _____    ______ ____
ROOT
ATOM      1  N   UNL     1       2.066  -1.633  -1.330  0.00  0.00    -0.239 N 
ATOM      2  C   UNL     1       3.294  -1.829  -0.837  0.00  0.00    +0.224 C 
ATOM      3  O   UNL     1       3.761  -2.905  -0.528  0.00  0.00    -0.275 OA
ATOM      4  C   UNL     1       4.009  -0.502  -0.725  0.00  0.00    +0.073 C 
ATOM      5  C   UNL     1       4.207  -0.152   0.765  0.00  0.00    -0.057 C 
ATOM      6  C   UNL     1       2.617   1.373  -0.012  0.00  0.00    +0.050 C 
ATOM      7  C   UNL     1       2.954   0.518  -1.239  0.00  0.00    +0.088 C 
ATOM      8  C   UNL     1       1.771  -0.354  -1.593  0.00  0.00    +0.225 C 
ATOM      9  O   UNL     1       0.718   0.043  -2.044  0.00  0.00    -0.275 OA
ATOM     10  C   UNL     1       1.171   1.780   0.000  0.00  0.00    -0.026 A 
ATOM     11  C   UNL     1      -0.013   1.076   0.008  0.00  0.00    +0.024 A 
ATOM     12  C   UNL     1      -1.221   1.751   0.017  0.00  0.00    +0.041 A 
ATOM     13  C   UNL     1      -1.236   3.135   0.028  0.00  0.00    +0.022 A 
ATOM     14  C   UNL     1      -0.053   3.844   0.020  0.00  0.00    +0.025 A 
ATOM     15  C   UNL     1       1.167   3.172   0.005  0.00  0.00    +0.036 A 
ATOM     16  N   UNL     1       2.477   3.659  -0.005  0.00  0.00    -0.286 N 
ATOM     17  C   UNL     1       3.387   2.666  -0.015  0.00  0.00    +0.211 C 
ATOM     18  O   UNL     1       4.593   2.789  -0.025  0.00  0.00    -0.277 OA
ATOM     19 CL   UNL     1      -2.714   0.865   0.020  0.00  0.00    -0.084 Cl
ATOM     20  H   UNL     1       2.704   4.601  -0.006  0.00  0.00    +0.155 HD
ATOM     21  N   UNL     1       2.975   0.551   1.131  0.00  0.00    +0.394 N 
ATOM     22  H   UNL     1       3.135   1.140   1.956  0.00  0.00    -0.083 HD
ATOM     23  H   UNL     1       2.227  -0.124   1.331  0.00  0.00    -0.083 HD
ENDROOT
BRANCH   1  24
ATOM     24  C   UNL     1       1.121  -2.728  -1.563  0.00  0.00    +0.081 C 
ATOM     25  C   UNL     1       0.837  -3.446  -0.242  0.00  0.00    +0.028 C 
BRANCH  24  27
ATOM     26  C   UNL     1       1.892  -3.032  -3.920  0.00  0.00    +0.006 C 
ATOM     27  C   UNL     1       1.724  -3.717  -2.562  0.00  0.00    +0.019 C 
ENDBRANCH  24  27
ENDBRANCH   1  24
BRANCH   5  28
ATOM     28  C   UNL     1       4.388  -1.427   1.591  0.00  0.00    -0.012 C 
BRANCH  28  29
ATOM     29  C   UNL     1       4.631  -1.056   3.055  0.00  0.00    -0.019 C 
ATOM     30  C   UNL     1       3.381  -0.380   3.623  0.00  0.00    +0.007 C 
ATOM     31  C   UNL     1       4.936  -2.321   3.859  0.00  0.00    +0.007 C 
ENDBRANCH  28  29
ENDBRANCH   5  28
TORSDOF 4
