REMARK  Name = ZINC11071106
REMARK  8 active torsions:
REMARK  status: ('A' for Active; 'I' for Inactive)
REMARK    1  A    between atoms: C_1  and  C_2
REMARK    2  A    between atoms: C_15  and  C_17
REMARK    3  A    between atoms: C_17  and  N_55
REMARK    4  A    between atoms: C_18  and  N_55
REMARK    5  A    between atoms: C_19  and  C_21
REMARK    6  A    between atoms: C_19  and  C_22
REMARK    7  A    between atoms: C_19  and  N_55
REMARK    8  A    between atoms: N_24  and  C_25
REMARK                            x       y       z     vdW  Elec       q    Type
REMARK                         _______ _______ _______ _____ _____    ______ ____
ROOT
ATOM      1  C   UNL     1      -2.487   1.312   0.011  0.00  0.00    +0.020 C 
ENDROOT
BRANCH   1  15
ATOM      2  C   UNL     1       1.837   2.126  -1.422  0.00  0.00    +0.029 C 
ATOM      3  C   UNL     1       1.257   2.126  -0.007  0.00  0.00    +0.087 C 
ATOM      4  C   UNL     1       2.243   1.449   0.947  0.00  0.00    +0.118 C 
ATOM      5  C   UNL     1       1.551   1.083   2.233  0.00  0.00    +0.219 C 
ATOM      6  O   UNL     1       1.744   1.745   3.231  0.00  0.00    -0.275 OA
ATOM      7  N   UNL     1       0.717   0.022   2.283  0.00  0.00    -0.284 N 
ATOM      8  C   UNL     1       0.408  -0.695   1.121  0.00  0.00    +0.055 A 
ATOM      9  C   UNL     1       0.465  -2.078   1.104  0.00  0.00    +0.025 A 
ATOM     10  C   UNL     1       0.102  -2.767  -0.040  0.00  0.00    +0.002 A 
ATOM     11  C   UNL     1      -0.315  -2.079  -1.164  0.00  0.00    +0.002 A 
ATOM     12  C   UNL     1      -0.364  -0.697  -1.158  0.00  0.00    +0.025 A 
ATOM     13  C   UNL     1       0.005   0.000  -0.020  0.00  0.00    +0.058 A 
ATOM     14  N   UNL     1      -0.015   1.402  -0.002  0.00  0.00    -0.268 N 
ATOM     15  C   UNL     1      -1.185   2.071   0.013  0.00  0.00    +0.204 C 
ATOM     16  O   UNL     1      -1.190   3.283   0.028  0.00  0.00    -0.277 OA
ATOM     17  H   UNL     1       0.328  -0.245   3.131  0.00  0.00    +0.155 HD
ENDBRANCH   1  15
BRANCH   1  19
ATOM     18  C   UNL     1      -3.642   3.010   1.292  0.00  0.00    -0.094 C 
ATOM     19  N   UNL     1      -3.604   2.280   0.007  0.00  0.00    +0.391 N 
ATOM     20  H   UNL     1      -3.460   2.953  -0.755  0.00  0.00    -0.080 HD
BRANCH  19  21
ATOM     21  C   UNL     1      -4.884   1.574  -0.211  0.00  0.00    +0.017 C 
ATOM     22  C   UNL     1      -5.233   0.709   1.002  0.00  0.00    -0.004 C 
BRANCH  21  23
ATOM     23  C   UNL     1      -5.971   2.595  -0.429  0.00  0.00    +0.203 C 
ATOM     24  O   UNL     1      -5.708   3.779  -0.389  0.00  0.00    -0.277 OA
ATOM     25  N   UNL     1      -7.235   2.193  -0.669  0.00  0.00    -0.287 N 
ATOM     26  H   UNL     1      -7.433   1.249  -0.768  0.00  0.00    +0.155 HD
BRANCH  25  27
ATOM     27  C   UNL     1      -8.261   3.139  -0.775  0.00  0.00    +0.033 A 
ATOM     28  C   UNL     1      -9.535   2.837  -0.313  0.00  0.00    +0.024 A 
ATOM     29  C   UNL     1     -10.546   3.773  -0.415  0.00  0.00    +0.017 A 
ATOM     30  C   UNL     1     -10.291   5.007  -0.987  0.00  0.00    +0.018 A 
ATOM     31  C   UNL     1      -9.024   5.308  -1.454  0.00  0.00    +0.017 A 
ATOM     32  C   UNL     1      -8.009   4.378  -1.349  0.00  0.00    +0.024 A 
ATOM     33 BR   UNL     1     -11.679   6.284  -1.132  0.00  0.00    -0.050 Br
ENDBRANCH  25  27
ENDBRANCH  21  23
ENDBRANCH  19  21
ENDBRANCH   1  19
TORSDOF 5
