REMARK  Name = ZINC08805937
REMARK  8 active torsions:
REMARK  status: ('A' for Active; 'I' for Inactive)
REMARK    1  A    between atoms: C_1  and  C_2
REMARK    2  A    between atoms: C_2  and  N_3
REMARK    3  A    between atoms: C_7  and  C_9
REMARK    4  A    between atoms: C_9  and  C_11
REMARK    5  A    between atoms: C_9  and  O_12
REMARK    6  A    between atoms: O_12  and  C_13
REMARK    7  A    between atoms: C_13  and  C_15
REMARK    8  A    between atoms: C_18  and  N_21
REMARK                            x       y       z     vdW  Elec       q    Type
REMARK                         _______ _______ _______ _____ _____    ______ ____
ROOT
ATOM      1  C   UNL     1      -1.196  10.170   0.062  0.00  0.00    +0.059 A 
ATOM      2  C   UNL     1      -2.406   9.476  -0.035  0.00  0.00    +0.017 A 
ATOM      3  C   UNL     1      -2.409   8.099  -0.042  0.00  0.00    +0.025 A 
ATOM      4  C   UNL     1      -1.210   7.399   0.049  0.00  0.00    +0.045 A 
ATOM      5  C   UNL     1      -0.005   8.086   0.152  0.00  0.00    +0.025 A 
ATOM      6  C   UNL     1       0.006   9.463   0.153  0.00  0.00    +0.017 A 
ENDROOT
BRANCH   4   7
ATOM      7  N   UNL     1      -1.218   6.002   0.042  0.00  0.00    -0.202 N 
ATOM      8  C   UNL     1      -1.126   5.359  -1.137  0.00  0.00    +0.258 C 
ATOM      9  O   UNL     1      -1.039   5.997  -2.169  0.00  0.00    -0.269 OA
ATOM     10  C   UNL     1      -1.130   3.890  -1.185  0.00  0.00    +0.046 A 
ATOM     11  C   UNL     1      -1.038   3.187  -2.377  0.00  0.00    +0.014 A 
ATOM     12  C   UNL     1      -1.046   1.797  -2.370  0.00  0.00    +0.001 A 
ATOM     13  C   UNL     1      -1.144   1.087  -1.208  0.00  0.00    +0.008 A 
ATOM     14  C   UNL     1      -1.244   1.762   0.022  0.00  0.00    -0.016 A 
ATOM     15  C   UNL     1      -1.231   3.172   0.029  0.00  0.00    +0.006 A 
ATOM     16  C   UNL     1      -1.326   3.879   1.249  0.00  0.00    +0.046 A 
ATOM     17  C   UNL     1      -1.426   3.166   2.435  0.00  0.00    +0.014 A 
ATOM     18  C   UNL     1      -1.432   1.776   2.415  0.00  0.00    +0.001 A 
ATOM     19  C   UNL     1      -1.342   1.077   1.246  0.00  0.00    +0.008 A 
ATOM     20  C   UNL     1      -1.316   5.349   1.216  0.00  0.00    +0.258 C 
ATOM     21  O   UNL     1      -1.396   5.978   2.253  0.00  0.00    -0.269 OA
ENDBRANCH   4   7
BRANCH   1  22
ATOM     22  C   UNL     1      -1.189  11.645   0.070  0.00  0.00    +0.340 C 
ATOM     23  O   UNL     1      -2.235  12.258  -0.008  0.00  0.00    -0.245 OA
BRANCH  22  24
ATOM     24  O   UNL     1      -0.022  12.312   0.165  0.00  0.00    -0.449 OA
BRANCH  24  25
ATOM     25  C   UNL     1      -0.090  13.763   0.167  0.00  0.00    +0.259 C 
ATOM     26  C   UNL     1      -0.002  14.279  -1.271  0.00  0.00    +0.062 C 
BRANCH  25  31
ATOM     27  N   UNL     1       2.251  17.468   2.142  0.00  0.00    -0.299 N 
ATOM     28  C   UNL     1       2.166  16.142   1.917  0.00  0.00    +0.306 C 
ATOM     29  O   UNL     1       3.015  15.394   2.362  0.00  0.00    -0.252 OA
ATOM     30  N   UNL     1       1.141  15.645   1.197  0.00  0.00    -0.237 N 
ATOM     31  C   UNL     1       1.056  14.318   0.971  0.00  0.00    +0.261 C 
ATOM     32  O   UNL     1       1.903  13.573   1.415  0.00  0.00    -0.271 OA
ATOM     33  H   UNL     1       1.483  18.144   1.739  0.00  0.00    +0.150 HD
ATOM     34  H   UNL     1       0.373  16.321   0.794  0.00  0.00    +0.159 HD
BRANCH  27  36
ATOM     35  C   UNL     1       3.224  19.528   3.031  0.00  0.00    +0.024 C 
ATOM     36  C   UNL     1       3.365  18.008   2.925  0.00  0.00    +0.102 C 
ENDBRANCH  27  36
ENDBRANCH  25  31
ENDBRANCH  24  25
ENDBRANCH  22  24
ENDBRANCH   1  22
TORSDOF 6
