REMARK  Name = ZINC34757881
REMARK  5 active torsions:
REMARK  status: ('A' for Active; 'I' for Inactive)
REMARK    1  A    between atoms: C_7  and  C_9
REMARK    2  A    between atoms: C_9  and  S_10
REMARK    3  A    between atoms: S_10  and  C_11
REMARK    4  A    between atoms: N_26  and  C_29
REMARK    5  A    between atoms: C_29  and  C_30
REMARK                            x       y       z     vdW  Elec       q    Type
REMARK                         _______ _______ _______ _____ _____    ______ ____
ROOT
ATOM      1  C   UNL     1       4.381  -4.631   1.611  0.00  0.00    +0.191 A 
ATOM      2  N   UNL     1       5.403  -5.467   1.752  0.00  0.00    -0.206 NA
ATOM      3  C   UNL     1       5.229  -6.757   1.986  0.00  0.00    +0.134 A 
ATOM      4  C   UNL     1       3.905  -7.269   2.091  0.00  0.00    +0.051 A 
ATOM      5  C   UNL     1       3.480  -8.656   2.345  0.00  0.00    -0.025 A 
ATOM      6  C   UNL     1       2.159  -8.886   2.397  0.00  0.00    -0.004 A 
ATOM      7  S   UNL     1       1.402  -7.300   2.121  0.00  0.00    -0.073 S 
ATOM      8  C   UNL     1       2.872  -6.329   1.931  0.00  0.00    +0.115 A 
ATOM      9  N   UNL     1       3.127  -5.054   1.704  0.00  0.00    -0.214 NA
ATOM     10  C   UNL     1       1.843 -10.335   2.656  0.00  0.00    +0.043 C 
ATOM     11  C   UNL     1       3.156 -11.081   2.334  0.00  0.00    +0.010 C 
ATOM     12  C   UNL     1       4.208  -9.983   2.581  0.00  0.00    +0.037 C 
ATOM     13  N   UNL     1       6.318  -7.598   2.127  0.00  0.00    -0.318 N 
ATOM     14  C   UNL     1       6.871  -7.903   3.455  0.00  0.00    +0.088 C 
ATOM     15  C   UNL     1       8.384  -7.666   3.418  0.00  0.00    -0.059 C 
ATOM     16  N   UNL     1       8.974  -8.446   2.322  0.00  0.00    +0.387 N 
ATOM     17  C   UNL     1       8.466  -7.960   1.033  0.00  0.00    -0.059 C 
ATOM     18  C   UNL     1       6.953  -8.216   0.953  0.00  0.00    +0.088 C 
ATOM     19  H   UNL     1       8.729  -9.418   2.433  0.00  0.00    -0.081 HD
ENDROOT
BRANCH   1  20
ATOM     20  S   UNL     1       4.696  -2.926   1.301  0.00  0.00    -0.077 S 
BRANCH  20  21
ATOM     21  C   UNL     1       3.043  -2.187   1.192  0.00  0.00    +0.173 C 
BRANCH  21  28
ATOM     22  C   UNL     1      -0.098   1.340  -0.486  0.00  0.00    +0.003 C 
ATOM     23  C   UNL     1       1.335   1.836  -0.692  0.00  0.00    +0.019 C 
ATOM     24  C   UNL     1       2.172   1.494   0.544  0.00  0.00    +0.108 C 
ATOM     25  N   UNL     1       2.065   0.052   0.804  0.00  0.00    -0.301 N 
ATOM     26  C   UNL     1       0.728  -0.545   0.929  0.00  0.00    +0.108 C 
ATOM     27  C   UNL     1      -0.093  -0.180  -0.311  0.00  0.00    +0.019 C 
ATOM     28  C   UNL     1       3.171  -0.709   0.925  0.00  0.00    +0.226 C 
ATOM     29  O   UNL     1       4.268  -0.204   0.819  0.00  0.00    -0.275 OA
ENDBRANCH  21  28
ENDBRANCH  20  21
ENDBRANCH   1  20
BRANCH  16  30
ATOM     30  C   UNL     1      10.436  -8.305   2.355  0.00  0.00    +0.019 C 
BRANCH  30  31
ATOM     31  C   UNL     1      11.050  -9.200   1.310  0.00  0.00    +0.199 C 
ATOM     32  O   UNL     1      10.340  -9.887   0.607  0.00  0.00    -0.278 OA
ATOM     33  N   UNL     1      12.389  -9.236   1.156  0.00  0.00    -0.303 N 
ATOM     34  C   UNL     1      13.363  -8.464   1.941  0.00  0.00    +0.108 C 
ATOM     35  C   UNL     1      14.765  -8.808   1.397  0.00  0.00    +0.020 C 
ATOM     36  C   UNL     1      14.466  -9.323  -0.035  0.00  0.00    +0.020 C 
ATOM     37  C   UNL     1      13.119 -10.062   0.177  0.00  0.00    +0.108 C 
ENDBRANCH  30  31
ENDBRANCH  16  30
TORSDOF 5
