REMARK  Name = ZINC36531863
REMARK  14 active torsions:
REMARK  status: ('A' for Active; 'I' for Inactive)
REMARK    1  A    between atoms: C_1  and  C_2
REMARK    2  A    between atoms: C_5  and  S_8
REMARK    3  A    between atoms: S_8  and  C_11
REMARK    4  A    between atoms: C_11  and  N_12
REMARK    5  A    between atoms: C_13  and  C_15
REMARK    6  A    between atoms: C_15  and  C_17
REMARK    7  A    between atoms: C_15  and  N_24
REMARK    8  A    between atoms: C_22  and  O_23
REMARK    9  A    between atoms: N_24  and  C_25
REMARK   10  A    between atoms: C_26  and  C_28
REMARK   11  A    between atoms: C_28  and  C_29
REMARK   12  A    between atoms: C_29  and  C_30
REMARK   13  A    between atoms: C_33  and  O_36
REMARK   14  A    between atoms: O_36  and  C_37
REMARK                            x       y       z     vdW  Elec       q    Type
REMARK                         _______ _______ _______ _____ _____    ______ ____
ROOT
ATOM      1  C   UNL     1       3.163  -4.858   3.507  0.00  0.00    +0.195 C 
ENDROOT
BRANCH   1   2
ATOM      2  C   UNL     1       4.473  -4.199   3.158  0.00  0.00    +0.023 A 
ATOM      3  C   UNL     1       5.096  -4.491   1.959  0.00  0.00    +0.009 A 
ATOM      4  C   UNL     1       6.298  -3.888   1.639  0.00  0.00    +0.001 A 
ATOM      5  C   UNL     1       6.880  -2.991   2.517  0.00  0.00    +0.004 A 
ATOM      6  C   UNL     1       6.261  -2.696   3.716  0.00  0.00    +0.046 A 
ATOM      7  C   UNL     1       5.052  -3.296   4.037  0.00  0.00    +0.122 A 
BRANCH   7   8
ATOM      8  O   UNL     1       4.439  -3.004   5.214  0.00  0.00    -0.506 OA
ATOM      9  H   UNL     1       4.697  -3.580   5.947  0.00  0.00    +0.292 HD
ENDBRANCH   7   8
ENDBRANCH   1   2
BRANCH   1  11
ATOM     10  N   UNL     1       2.241  -4.638   1.222  0.00  0.00    -0.294 N 
ATOM     11  C   UNL     1       2.546  -5.440   2.261  0.00  0.00    +0.239 C 
ATOM     12  O   UNL     1       2.324  -6.631   2.194  0.00  0.00    -0.273 OA
ATOM     13  H   UNL     1       2.418  -3.686   1.276  0.00  0.00    +0.150 HD
BRANCH  10  14
ATOM     14  C   UNL     1       1.641  -5.204   0.011  0.00  0.00    +0.278 C 
BRANCH  14  15
ATOM     15  S   UNL     1      -0.164  -5.050   0.102  0.00  0.00    +0.013 S 
ATOM     16  O   UNL     1      -0.630  -5.485   1.371  0.00  0.00    -0.168 OA
ATOM     17  O   UNL     1      -0.757  -5.537  -1.094  0.00  0.00    -0.168 OA
BRANCH  15  22
ATOM     18  C   UNL     1      -1.220   0.891   0.031  0.00  0.00    +0.044 C 
ATOM     19  C   UNL     1      -0.956  -0.593   0.049  0.00  0.00    -0.050 A 
ATOM     20  C   UNL     1      -0.896  -1.298  -1.139  0.00  0.00    +0.005 A 
ATOM     21  C   UNL     1      -0.654  -2.659  -1.123  0.00  0.00    +0.027 A 
ATOM     22  C   UNL     1      -0.471  -3.315   0.081  0.00  0.00    +0.090 A 
ATOM     23  C   UNL     1      -0.530  -2.609   1.268  0.00  0.00    +0.027 A 
ATOM     24  C   UNL     1      -0.768  -1.247   1.252  0.00  0.00    +0.005 A 
ENDBRANCH  15  22
ENDBRANCH  14  15
ENDBRANCH  10  14
ENDBRANCH   1  11
BRANCH   1  25
ATOM     25  N   UNL     1       3.398  -5.926   4.481  0.00  0.00    -0.289 N 
ATOM     26  C   UNL     1       4.372  -6.981   4.191  0.00  0.00    +0.133 C 
ATOM     27  C   UNL     1       2.717  -5.939   5.644  0.00  0.00    +0.216 C 
ATOM     28  O   UNL     1       1.911  -5.066   5.885  0.00  0.00    -0.276 OA
BRANCH  27  29
ATOM     29  C   UNL     1       2.959  -7.038   6.647  0.00  0.00    +0.100 C 
BRANCH  29  30
ATOM     30  C   UNL     1       2.066  -6.819   7.870  0.00  0.00    +0.044 C 
BRANCH  30  31
ATOM     31  C   UNL     1       2.307  -7.918   8.872  0.00  0.00    -0.047 A 
ATOM     32  C   UNL     1       1.560  -9.079   8.816  0.00  0.00    +0.007 A 
ATOM     33  C   UNL     1       1.778 -10.088   9.733  0.00  0.00    +0.046 A 
ATOM     34  C   UNL     1       2.750  -9.936  10.712  0.00  0.00    +0.120 A 
ATOM     35  C   UNL     1       3.500  -8.769  10.766  0.00  0.00    +0.046 A 
ATOM     36  C   UNL     1       3.280  -7.765   9.842  0.00  0.00    +0.007 A 
BRANCH  34  37
ATOM     37  O   UNL     1       2.967 -10.927  11.616  0.00  0.00    -0.495 OA
ATOM     38  C   UNL     1       3.984 -10.700  12.595  0.00  0.00    +0.277 C 
ENDBRANCH  34  37
ENDBRANCH  30  31
ENDBRANCH  29  30
ENDBRANCH  27  29
ENDBRANCH   1  25
TORSDOF 11
