REMARK  Name = ZINC16676083
REMARK  6 active torsions:
REMARK  status: ('A' for Active; 'I' for Inactive)
REMARK    1  A    between atoms: C_4  and  N_7
REMARK    2  A    between atoms: C_8  and  S_12
REMARK    3  A    between atoms: S_12  and  C_13
REMARK    4  A    between atoms: C_13  and  C_14
REMARK    5  A    between atoms: N_16  and  N_17
REMARK    6  A    between atoms: C_18  and  C_19
REMARK                            x       y       z     vdW  Elec       q    Type
REMARK                         _______ _______ _______ _____ _____    ______ ____
ROOT
ATOM      1  C   UNL     1      -3.525   1.651   0.028  0.00  0.00    +0.242 C 
ATOM      2  O   UNL     1      -3.542   2.864   0.034  0.00  0.00    -0.273 OA
ATOM      3  N   UNL     1      -2.349   0.993   0.019  0.00  0.00    -0.206 N 
ATOM      4  H   UNL     1      -2.336   0.023   0.013  0.00  0.00    +0.177 HD
ENDROOT
BRANCH   3   5
ATOM      5  N   UNL     1      -1.145   1.709   0.017  0.00  0.00    -0.188 NA
ATOM      6  C   UNL     1      -0.013   1.076   0.008  0.00  0.00    +0.139 C 
BRANCH   6   7
ATOM      7  C   UNL     1       1.254   1.830  -0.000  0.00  0.00    +0.012 A 
ATOM      8  C   UNL     1       2.475   1.150  -0.009  0.00  0.00    +0.060 A 
ATOM      9  C   UNL     1       3.659   1.861  -0.021  0.00  0.00    +0.167 A 
ATOM     10  C   UNL     1       3.636   3.256  -0.014  0.00  0.00    +0.167 A 
ATOM     11  C   UNL     1       2.425   3.931   0.001  0.00  0.00    +0.065 A 
ATOM     12  C   UNL     1       1.237   3.228   0.008  0.00  0.00    +0.030 A 
ATOM     13 BR   UNL     1      -0.411   4.154   0.028  0.00  0.00    -0.050 Br
ATOM     14  O   UNL     1       4.922   3.712  -0.022  0.00  0.00    -0.453 OA
ATOM     15  C   UNL     1       5.725   2.595  -0.448  0.00  0.00    +0.466 C 
ATOM     16  O   UNL     1       4.961   1.447  -0.035  0.00  0.00    -0.453 OA
ENDBRANCH   6   7
ENDBRANCH   3   5
BRANCH   1  17
ATOM     17  C   UNL     1      -4.820   0.879   0.030  0.00  0.00    +0.174 C 
BRANCH  17  18
ATOM     18  S   UNL     1      -6.212   2.037   0.043  0.00  0.00    -0.075 S 
BRANCH  18  20
ATOM     19  N   UNL     1      -8.877   1.210   0.056  0.00  0.00    -0.187 N 
ATOM     20  C   UNL     1      -7.556   0.898   0.043  0.00  0.00    +0.214 A 
ATOM     21  N   UNL     1      -7.470  -0.415   0.036  0.00  0.00    -0.101 NA
ATOM     22  N   UNL     1      -8.640  -0.943   0.039  0.00  0.00    -0.022 NA
ATOM     23  N   UNL     1      -9.547  -0.026   0.048  0.00  0.00    -0.038 NA
BRANCH  19  27
ATOM     24  C   UNL     1     -10.582   5.014   0.105  0.00  0.00    +0.000 A 
ATOM     25  C   UNL     1     -11.201   3.989  -0.587  0.00  0.00    +0.002 A 
ATOM     26  C   UNL     1     -10.638   2.728  -0.605  0.00  0.00    +0.028 A 
ATOM     27  C   UNL     1      -9.450   2.489   0.073  0.00  0.00    +0.070 A 
ATOM     28  C   UNL     1      -8.834   3.518   0.771  0.00  0.00    +0.028 A 
ATOM     29  C   UNL     1      -9.398   4.779   0.781  0.00  0.00    +0.002 A 
ENDBRANCH  19  27
ENDBRANCH  18  20
ENDBRANCH  17  18
ENDBRANCH   1  17
TORSDOF 6
