REMARK  Name = ZINC45441895
REMARK  10 active torsions:
REMARK  status: ('A' for Active; 'I' for Inactive)
REMARK    1  A    between atoms: C_1  and  C_2
REMARK    2  A    between atoms: C_2  and  C_3
REMARK    3  A    between atoms: C_8  and  N_9
REMARK    4  A    between atoms: C_10  and  C_12
REMARK    5  A    between atoms: C_12  and  N_13
REMARK    6  A    between atoms: C_14  and  C_16
REMARK    7  A    between atoms: C_16  and  N_17
REMARK    8  A    between atoms: C_20  and  C_24
REMARK    9  A    between atoms: C_20  and  C_26
REMARK   10  A    between atoms: C_24  and  C_25
REMARK                            x       y       z     vdW  Elec       q    Type
REMARK                         _______ _______ _______ _____ _____    ______ ____
ROOT
ATOM      1  C   UNL     1      -2.870  -0.764  -8.385  0.00  0.00    +0.213 C 
ENDROOT
BRANCH   1   2
ATOM      2  N   UNL     1      -2.193  -0.503  -9.658  0.00  0.00    -0.215 N 
ATOM      3  C   UNL     1      -2.225   0.679 -10.304  0.00  0.00    +0.251 C 
ATOM      4  O   UNL     1      -2.797   1.689  -9.954  0.00  0.00    -0.272 OA
ATOM      5  C   UNL     1      -1.396   0.484 -11.557  0.00  0.00    +0.138 C 
ATOM      6  N   UNL     1      -0.951  -0.917 -11.464  0.00  0.00    -0.281 N 
ATOM      7  C   UNL     1      -1.463  -1.407 -10.320  0.00  0.00    +0.310 C 
ATOM      8  O   UNL     1      -1.284  -2.546  -9.933  0.00  0.00    -0.252 OA
ATOM      9  H   UNL     1      -0.396  -1.393 -12.101  0.00  0.00    +0.152 HD
BRANCH   5  10
ATOM     10  C   UNL     1      -2.239   0.692 -12.789  0.00  0.00    -0.015 A 
ATOM     11  C   UNL     1      -2.330   1.947 -13.361  0.00  0.00    +0.007 A 
ATOM     12  C   UNL     1      -3.103   2.138 -14.490  0.00  0.00    +0.020 A 
ATOM     13  C   UNL     1      -3.787   1.072 -15.048  0.00  0.00    +0.041 A 
ATOM     14  C   UNL     1      -3.696  -0.184 -14.475  0.00  0.00    +0.020 A 
ATOM     15  C   UNL     1      -2.918  -0.374 -13.349  0.00  0.00    +0.007 A 
ATOM     16 CL   UNL     1      -4.759   1.312 -16.466  0.00  0.00    -0.084 Cl
ENDBRANCH   5  10
BRANCH   5  17
ATOM     17  C   UNL     1      -0.194   1.431 -11.560  0.00  0.00    +0.037 C 
ATOM     18  C   UNL     1       0.737   1.078 -10.399  0.00  0.00    +0.007 C 
ENDBRANCH   5  17
ENDBRANCH   1   2
BRANCH   1  20
ATOM     19  N   UNL     1      -2.353  -0.595  -5.972  0.00  0.00    -0.305 N 
ATOM     20  C   UNL     1      -1.942  -0.432  -7.245  0.00  0.00    +0.231 C 
ATOM     21  O   UNL     1      -0.825  -0.018  -7.473  0.00  0.00    -0.274 OA
ATOM     22  H   UNL     1      -3.246  -0.926  -5.789  0.00  0.00    +0.149 HD
BRANCH  19  23
ATOM     23  C   UNL     1      -1.451  -0.272  -4.864  0.00  0.00    +0.200 C 
BRANCH  23  25
ATOM     24  N   UNL     1      -1.505  -0.315  -2.391  0.00  0.00    -0.284 N 
ATOM     25  C   UNL     1      -2.147  -0.541  -3.555  0.00  0.00    +0.234 C 
ATOM     26  O   UNL     1      -3.285  -0.961  -3.548  0.00  0.00    -0.274 OA
ATOM     27  H   UNL     1      -0.620   0.082  -2.395  0.00  0.00    +0.155 HD
BRANCH  24  33
ATOM     28  C   UNL     1      -1.349  -1.119  -0.119  0.00  0.00    -0.026 A 
ATOM     29  C   UNL     1      -1.954  -1.445   1.079  0.00  0.00    +0.005 A 
ATOM     30  C   UNL     1      -3.322  -1.313   1.222  0.00  0.00    +0.000 A 
ATOM     31  C   UNL     1      -4.090  -0.854   0.168  0.00  0.00    +0.002 A 
ATOM     32  C   UNL     1      -3.491  -0.525  -1.033  0.00  0.00    +0.023 A 
ATOM     33  C   UNL     1      -2.116  -0.652  -1.178  0.00  0.00    +0.037 A 
BRANCH  28  35
ATOM     34  C   UNL     1       0.819   0.078   0.019  0.00  0.00    +0.009 C 
ATOM     35  C   UNL     1       0.143  -1.263  -0.275  0.00  0.00    +0.033 C 
ENDBRANCH  28  35
ENDBRANCH  24  33
ENDBRANCH  23  25
ENDBRANCH  19  23
ENDBRANCH   1  20
TORSDOF 8
