REMARK  Name = ZINC01231929
REMARK  9 active torsions:
REMARK  status: ('A' for Active; 'I' for Inactive)
REMARK    1  A    between atoms: C_1  and  C_2
REMARK    2  A    between atoms: C_5  and  N_9
REMARK    3  A    between atoms: C_7  and  C_8
REMARK    4  A    between atoms: N_9  and  P_10
REMARK    5  A    between atoms: P_10  and  C_12
REMARK    6  A    between atoms: P_10  and  O_13
REMARK    7  A    between atoms: O_13  and  C_14
REMARK    8  A    between atoms: C_14  and  C_16
REMARK    9  A    between atoms: C_14  and  C_23
REMARK                            x       y       z     vdW  Elec       q    Type
REMARK                         _______ _______ _______ _____ _____    ______ ____
ROOT
ATOM      1  P   UNL     1      -0.267   4.287   0.027  0.00  0.00    +0.286 P 
ATOM      2  O   UNL     1      -1.050   3.927  -1.176  0.00  0.00    -0.269 OA
ATOM      3  C   UNL     1      -1.204   3.829   1.522  0.00  0.00    +0.133 C 
ENDROOT
BRANCH   1   4
ATOM      4  N   UNL     1       1.163   3.483   0.009  0.00  0.00    -0.274 N 
ATOM      5  H   UNL     1       1.997   3.977   0.004  0.00  0.00    +0.155 HD
BRANCH   4  10
ATOM      6  C   UNL     1       1.225  -2.188  -0.022  0.00  0.00    +0.044 C 
ATOM      7  C   UNL     1       1.208  -0.681  -0.014  0.00  0.00    -0.047 A 
ATOM      8  C   UNL     1       0.002  -0.004   0.002  0.00  0.00    +0.005 A 
ATOM      9  C   UNL     1      -0.017   1.377   0.010  0.00  0.00    +0.023 A 
ATOM     10  C   UNL     1       1.178   2.086   0.002  0.00  0.00    +0.034 A 
ATOM     11  C   UNL     1       2.387   1.403  -0.014  0.00  0.00    +0.027 A 
ATOM     12  C   UNL     1       2.399   0.022  -0.022  0.00  0.00    -0.046 A 
ATOM     13  C   UNL     1       3.711  -0.720  -0.039  0.00  0.00    +0.044 C 
ENDBRANCH   4  10
ENDBRANCH   1   4
BRANCH   1  14
ATOM     14  O   UNL     1       0.010   5.873   0.032  0.00  0.00    -0.297 OA
BRANCH  14  15
ATOM     15  C   UNL     1      -1.036   6.846   0.047  0.00  0.00    +0.261 C 
BRANCH  15  16
ATOM     16  C   UNL     1      -0.909   7.702   1.280  0.00  0.00    -0.010 A 
ATOM     17  C   UNL     1       0.340   8.102   1.718  0.00  0.00    +0.008 A 
ATOM     18  C   UNL     1       0.456   8.892   2.846  0.00  0.00    +0.020 A 
ATOM     19  C   UNL     1      -0.676   9.273   3.544  0.00  0.00    +0.041 A 
ATOM     20  C   UNL     1      -1.925   8.867   3.109  0.00  0.00    +0.020 A 
ATOM     21  C   UNL     1      -2.041   8.082   1.977  0.00  0.00    +0.008 A 
ATOM     22 CL   UNL     1      -0.529  10.258   4.965  0.00  0.00    -0.084 Cl
ENDBRANCH  15  16
BRANCH  15  23
ATOM     23  C   UNL     1      -0.931   7.728  -1.199  0.00  0.00    +0.420 C 
ATOM     24  F   UNL     1      -1.049   6.933  -2.344  0.00  0.00    -0.168 F 
ATOM     25  F   UNL     1      -1.956   8.680  -1.185  0.00  0.00    -0.168 F 
ATOM     26  F   UNL     1       0.309   8.376  -1.208  0.00  0.00    -0.168 F 
ENDBRANCH  15  23
ENDBRANCH  14  15
ENDBRANCH   1  14
TORSDOF 6
