REMARK  Name = ZINC08971260
REMARK  2 active torsions:
REMARK  status: ('A' for Active; 'I' for Inactive)
REMARK    1  A    between atoms: C_6  and  C_7
REMARK    2  A    between atoms: C_10  and  N_15
REMARK                            x       y       z     vdW  Elec       q    Type
REMARK                         _______ _______ _______ _____ _____    ______ ____
ROOT
ATOM      1  C   UNL     1      -1.798  -0.290   0.140  0.00  0.00    +0.032 C 
ATOM      2  C   UNL     1      -1.645  -1.266   1.310  0.00  0.00    +0.059 C 
ATOM      3  C   UNL     1      -2.735  -2.303   1.245  0.00  0.00    +0.015 C 
ATOM      4  C   UNL     1      -3.268  -2.682   0.064  0.00  0.00    +0.065 C 
ATOM      5  C   UNL     1      -2.839  -2.130  -1.148  0.00  0.00    +0.158 C 
ATOM      6  O   UNL     1      -3.341  -2.501  -2.190  0.00  0.00    -0.293 OA
ATOM      7  C   UNL     1      -1.761  -1.077  -1.173  0.00  0.00    +0.087 C 
ENDROOT
BRANCH   1  13
ATOM      8  C   UNL     1      -0.942   2.058   0.279  0.00  0.00    +0.005 A 
ATOM      9  C   UNL     1       0.093   2.973   0.301  0.00  0.00    +0.020 A 
ATOM     10  C   UNL     1       1.403   2.538   0.207  0.00  0.00    +0.041 A 
ATOM     11  C   UNL     1       1.676   1.186   0.091  0.00  0.00    +0.020 A 
ATOM     12  C   UNL     1       0.640   0.272   0.070  0.00  0.00    +0.005 A 
ATOM     13  C   UNL     1      -0.669   0.708   0.164  0.00  0.00    -0.043 A 
ATOM     14 CL   UNL     1       2.704   3.687   0.234  0.00  0.00    -0.084 Cl
ENDBRANCH   1  13
BRANCH   3  15
ATOM     15  N   UNL     1      -3.192  -2.869   2.400  0.00  0.00    -0.286 N 
ATOM     16  C   UNL     1      -2.564  -2.590   3.604  0.00  0.00    +0.240 A 
ATOM     17  N   UNL     1      -1.436  -1.865   3.763  0.00  0.00    -0.111 NA
ATOM     18  N   UNL     1      -1.172  -1.845   5.142  0.00  0.00    -0.134 NA
ATOM     19  C   UNL     1      -2.119  -2.532   5.723  0.00  0.00    +0.249 A 
ATOM     20  N   UNL     1      -2.965  -2.979   4.795  0.00  0.00    -0.200 NA
ATOM     21  H   UNL     1      -3.955  -3.466   2.378  0.00  0.00    +0.155 HD
ENDBRANCH   3  15
TORSDOF 2
