REMARK  Name = ZINC49412063
REMARK  2 active torsions:
REMARK  status: ('A' for Active; 'I' for Inactive)
REMARK    1  A    between atoms: C_4  and  C_7
REMARK    2  A    between atoms: C_7  and  C_8
REMARK                            x       y       z     vdW  Elec       q    Type
REMARK                         _______ _______ _______ _____ _____    ______ ____
ROOT
ATOM      1  C   UNL     1       2.999  -1.962  -2.475  0.00  0.00    +0.111 A 
ATOM      2  N   UNL     1       3.612  -2.613  -3.497  0.00  0.00    -0.310 N 
ATOM      3  H   UNL     1       3.960  -2.103  -4.245  0.00  0.00    +0.170 HD
ATOM      4  C   UNL     1       3.749  -3.953  -3.492  0.00  0.00    +0.260 A 
ATOM      5  O   UNL     1       4.302  -4.524  -4.416  0.00  0.00    -0.267 OA
ATOM      6  C   UNL     1       3.232  -4.694  -2.380  0.00  0.00    +0.075 A 
ATOM      7  C   UNL     1       3.268  -6.148  -2.164  0.00  0.00    -0.023 A 
ATOM      8  C   UNL     1       2.710  -6.608  -1.032  0.00  0.00    -0.004 A 
ATOM      9  S   UNL     1       2.113  -5.159  -0.192  0.00  0.00    -0.073 S 
ATOM     10  C   UNL     1       2.616  -3.937  -1.375  0.00  0.00    +0.116 A 
ATOM     11  N   UNL     1       2.523  -2.611  -1.447  0.00  0.00    -0.227 NA
ATOM     12  C   UNL     1       2.801  -8.106  -0.921  0.00  0.00    +0.043 C 
ATOM     13  C   UNL     1       3.119  -8.582  -2.355  0.00  0.00    +0.010 C 
ATOM     14  C   UNL     1       3.817  -7.343  -2.949  0.00  0.00    +0.037 C 
ENDROOT
BRANCH   1  15
ATOM     15  C   UNL     1       2.870  -0.461  -2.526  0.00  0.00    +0.078 C 
BRANCH  15  19
ATOM     16  C   UNL     1      -0.019   1.526   0.010  0.00  0.00    +0.000 C 
ATOM     17  C   UNL     1       1.417   2.055  -0.000  0.00  0.00    +0.000 C 
ATOM     18  C   UNL     1       2.133   1.562  -1.259  0.00  0.00    +0.004 C 
ATOM     19  C   UNL     1       2.154   0.032  -1.268  0.00  0.00    -0.004 C 
ATOM     20  C   UNL     1       0.718  -0.497  -1.257  0.00  0.00    +0.004 C 
ATOM     21  C   UNL     1       0.002  -0.004   0.002  0.00  0.00    +0.000 C 
ENDBRANCH  15  19
ENDBRANCH   1  15
TORSDOF 2
