REMARK  Name = ZINC42015061
REMARK  4 active torsions:
REMARK  status: ('A' for Active; 'I' for Inactive)
REMARK    1  A    between atoms: C_1  and  C_2
REMARK    2  A    between atoms: C_5  and  N_9
REMARK    3  A    between atoms: C_10  and  C_14
REMARK    4  A    between atoms: C_19  and  N_20
REMARK                            x       y       z     vdW  Elec       q    Type
REMARK                         _______ _______ _______ _____ _____    ______ ____
ROOT
ATOM      1  N   UNL     1       0.034  -4.173  -0.003  0.00  0.00    -0.193 N 
ATOM      2  C   UNL     1       0.764  -4.999   0.803  0.00  0.00    +0.189 A 
ATOM      3  N   UNL     1       0.504  -6.233   0.421  0.00  0.00    -0.108 NA
ATOM      4  N   UNL     1      -0.328  -6.236  -0.556  0.00  0.00    -0.022 NA
ATOM      5  N   UNL     1      -0.666  -5.032  -0.868  0.00  0.00    -0.039 NA
ENDROOT
BRANCH   1  10
ATOM      6  C   UNL     1      -0.151   1.498   0.128  0.00  0.00    +0.045 C 
ATOM      7  C   UNL     1      -0.102  -0.008   0.093  0.00  0.00    -0.032 A 
ATOM      8  C   UNL     1       1.108  -0.662   0.231  0.00  0.00    +0.007 A 
ATOM      9  C   UNL     1       1.156  -2.042   0.199  0.00  0.00    +0.028 A 
ATOM     10  C   UNL     1      -0.012  -2.773   0.030  0.00  0.00    +0.071 A 
ATOM     11  C   UNL     1      -1.226  -2.114  -0.107  0.00  0.00    +0.048 A 
ATOM     12  C   UNL     1      -1.269  -0.733  -0.070  0.00  0.00    +0.046 A 
ATOM     13 CL   UNL     1      -2.788   0.092  -0.234  0.00  0.00    -0.083 Cl
ENDBRANCH   1  10
BRANCH   2  14
ATOM     14  C   UNL     1       1.672  -4.587   1.893  0.00  0.00    +0.042 A 
ATOM     15  C   UNL     1       1.246  -3.664   2.849  0.00  0.00    +0.015 A 
ATOM     16  C   UNL     1       2.098  -3.284   3.865  0.00  0.00    +0.021 A 
ATOM     17  C   UNL     1       3.376  -3.813   3.942  0.00  0.00    +0.043 A 
ATOM     18  C   UNL     1       3.811  -4.728   3.001  0.00  0.00    +0.043 A 
ATOM     19  C   UNL     1       2.964  -5.126   1.976  0.00  0.00    +0.037 A 
ATOM     20 CL   UNL     1       4.438  -3.325   5.226  0.00  0.00    -0.083 Cl
BRANCH  19  21
ATOM     21  N   UNL     1       3.397  -6.053   1.030  0.00  0.00    -0.357 N 
ATOM     22  H   UNL     1       2.805  -6.326   0.313  0.00  0.00    +0.142 HD
ATOM     23  H   UNL     1       4.291  -6.424   1.090  0.00  0.00    +0.142 HD
ENDBRANCH  19  21
ENDBRANCH   2  14
TORSDOF 3
