REMARK  Name = ZINC03106855
REMARK  8 active torsions:
REMARK  status: ('A' for Active; 'I' for Inactive)
REMARK    1  A    between atoms: C_1  and  C_2
REMARK    2  A    between atoms: C_6  and  O_9
REMARK    3  A    between atoms: C_7  and  C_8
REMARK    4  A    between atoms: O_9  and  C_10
REMARK    5  A    between atoms: C_10  and  C_11
REMARK    6  A    between atoms: N_13  and  N_14
REMARK    7  A    between atoms: C_15  and  C_16
REMARK    8  A    between atoms: C_20  and  N_22
REMARK                            x       y       z     vdW  Elec       q    Type
REMARK                         _______ _______ _______ _____ _____    ______ ____
ROOT
ATOM      1  C   UNL     1       1.319  -2.276   0.281  0.00  0.00    +0.270 C 
ATOM      2  O   UNL     1       2.375  -2.849   0.451  0.00  0.00    -0.270 OA
ATOM      3  N   UNL     1       1.301  -0.943   0.085  0.00  0.00    -0.204 N 
ATOM      4  H   UNL     1       0.457  -0.484  -0.051  0.00  0.00    +0.177 HD
ENDROOT
BRANCH   3   5
ATOM      5  N   UNL     1       2.500  -0.219   0.077  0.00  0.00    -0.188 NA
ATOM      6  C   UNL     1       2.475   1.078   0.015  0.00  0.00    +0.138 C 
BRANCH   6   7
ATOM      7  C   UNL     1       1.299   1.817   0.510  0.00  0.00    -0.003 A 
ATOM      8  C   UNL     1       0.356   1.174   1.317  0.00  0.00    +0.013 A 
ATOM      9  C   UNL     1      -0.744   1.868   1.772  0.00  0.00    +0.054 A 
ATOM     10  C   UNL     1      -0.910   3.206   1.440  0.00  0.00    +0.209 A 
ATOM     11  C   UNL     1       0.024   3.848   0.638  0.00  0.00    +0.173 A 
ATOM     12  C   UNL     1       1.125   3.161   0.173  0.00  0.00    +0.046 A 
ATOM     13  O   UNL     1      -1.994   3.887   1.896  0.00  0.00    -0.285 OA
BRANCH  11  14
ATOM     14  N   UNL     1      -0.162   5.273   0.283  0.00  0.00    +0.060 N 
ATOM     15  O   UNL     1       0.657   5.838  -0.420  0.00  0.00    -0.126 OA
ATOM     16  O   UNL     1      -1.135   5.881   0.693  0.00  0.00    -0.126 OA
ENDBRANCH  11  14
ENDBRANCH   6   7
ENDBRANCH   3   5
BRANCH   1  17
ATOM     17  C   UNL     1       0.029  -3.055   0.289  0.00  0.00    +0.326 C 
BRANCH  17  18
ATOM     18  O   UNL     1       0.309  -4.438   0.514  0.00  0.00    -0.482 OA
BRANCH  18  24
ATOM     19  C   UNL     1      -1.420  -8.972   1.034  0.00  0.00    +0.044 C 
ATOM     20  C   UNL     1      -1.635  -7.499   0.802  0.00  0.00    -0.044 A 
ATOM     21  C   UNL     1      -2.916  -7.008   0.626  0.00  0.00    +0.004 A 
ATOM     22  C   UNL     1      -3.117  -5.657   0.412  0.00  0.00    +0.004 A 
ATOM     23  C   UNL     1      -2.038  -4.794   0.374  0.00  0.00    +0.046 A 
ATOM     24  C   UNL     1      -0.753  -5.284   0.551  0.00  0.00    +0.124 A 
ATOM     25  C   UNL     1      -0.553  -6.642   0.760  0.00  0.00    -0.006 A 
ATOM     26  C   UNL     1       0.842  -7.179   0.945  0.00  0.00    +0.048 C 
ENDBRANCH  18  24
ENDBRANCH  17  18
ENDBRANCH   1  17
TORSDOF 6
