REMARK  Name = ZINC06321212
REMARK  11 active torsions:
REMARK  status: ('A' for Active; 'I' for Inactive)
REMARK    1  A    between atoms: C_1  and  C_2
REMARK    2  A    between atoms: C_6  and  C_15
REMARK    3  A    between atoms: C_13  and  C_14
REMARK    4  A    between atoms: C_15  and  C_17
REMARK    5  A    between atoms: C_15  and  N_76
REMARK    6  A    between atoms: N_21  and  C_22
REMARK    7  A    between atoms: C_27  and  C_28
REMARK    8  A    between atoms: C_27  and  N_76
REMARK    9  A    between atoms: C_28  and  C_29
REMARK   10  A    between atoms: C_35  and  C_36
REMARK   11  A    between atoms: C_35  and  N_76
REMARK                            x       y       z     vdW  Elec       q    Type
REMARK                         _______ _______ _______ _____ _____    ______ ____
ROOT
ATOM      1  C   UNL     1       3.247  -2.025  -2.150  0.00  0.00    +0.039 C 
ENDROOT
BRANCH   1   7
ATOM      2  C   UNL     1      -0.222  -0.542  -8.583  0.00  0.00    +0.044 C 
ATOM      3  C   UNL     1      -0.179  -0.517  -7.077  0.00  0.00    -0.047 A 
ATOM      4  C   UNL     1       0.908  -1.023  -6.422  0.00  0.00    +0.013 A 
ATOM      5  C   UNL     1       0.948  -1.000  -5.024  0.00  0.00    -0.001 A 
ATOM      6  C   UNL     1       2.097  -1.534  -4.291  0.00  0.00    +0.017 A 
ATOM      7  C   UNL     1       2.080  -1.485  -2.936  0.00  0.00    +0.011 A 
ATOM      8  C   UNL     1       0.971  -0.934  -2.258  0.00  0.00    +0.251 A 
ATOM      9  O   UNL     1       0.974  -0.904  -1.040  0.00  0.00    -0.268 OA
ATOM     10  N   UNL     1      -0.086  -0.436  -2.923  0.00  0.00    -0.322 N 
ATOM     11  H   UNL     1      -0.830  -0.061  -2.426  0.00  0.00    +0.169 HD
ATOM     12  C   UNL     1      -0.131  -0.457  -4.301  0.00  0.00    +0.049 A 
ATOM     13  C   UNL     1      -1.227   0.052  -4.989  0.00  0.00    +0.030 A 
ATOM     14  C   UNL     1      -1.244   0.019  -6.367  0.00  0.00    -0.046 A 
ATOM     15  C   UNL     1      -2.433   0.572  -7.111  0.00  0.00    +0.044 C 
ENDBRANCH   1   7
BRANCH   1  16
ATOM     16  C   UNL     1       2.801  -3.216  -1.343  0.00  0.00    +0.143 A 
ATOM     17  N   UNL     1       2.255  -3.194  -0.151  0.00  0.00    -0.115 NA
ATOM     18  N   UNL     1       2.014  -4.411   0.199  0.00  0.00    -0.023 NA
ATOM     19  N   UNL     1       2.400  -5.209  -0.735  0.00  0.00    -0.044 NA
ATOM     20  N   UNL     1       2.890  -4.510  -1.703  0.00  0.00    -0.227 N 
BRANCH  20  21
ATOM     21  C   UNL     1       3.442  -5.029  -2.957  0.00  0.00    +0.111 C 
ATOM     22  C   UNL     1       2.378  -5.868  -3.695  0.00  0.00    +0.027 C 
ATOM     23  C   UNL     1       3.184  -7.031  -4.326  0.00  0.00    +0.002 C 
ATOM     24  C   UNL     1       4.235  -7.352  -3.234  0.00  0.00    +0.002 C 
ATOM     25  C   UNL     1       4.622  -5.971  -2.664  0.00  0.00    +0.027 C 
ENDBRANCH  20  21
ENDBRANCH   1  16
BRANCH   1  26
ATOM     26  N   UNL     1       3.735  -0.981  -1.225  0.00  0.00    +0.392 N 
ATOM     27  H   UNL     1       3.075  -0.892  -0.444  0.00  0.00    -0.080 HD
BRANCH  26  28
ATOM     28  C   UNL     1       3.825   0.316  -1.929  0.00  0.00    -0.072 C 
BRANCH  28  29
ATOM     29  C   UNL     1       4.114   1.415  -0.904  0.00  0.00    +0.016 C 
BRANCH  29  30
ATOM     30  C   UNL     1       4.186   2.748  -1.603  0.00  0.00    -0.049 A 
ATOM     31  C   UNL     1       5.396   3.209  -2.087  0.00  0.00    +0.003 A 
ATOM     32  C   UNL     1       5.461   4.429  -2.733  0.00  0.00    +0.000 A 
ATOM     33  C   UNL     1       4.319   5.193  -2.886  0.00  0.00    +0.000 A 
ATOM     34  C   UNL     1       3.110   4.734  -2.397  0.00  0.00    +0.000 A 
ATOM     35  C   UNL     1       3.044   3.511  -1.756  0.00  0.00    +0.003 A 
ENDBRANCH  29  30
ENDBRANCH  28  29
ENDBRANCH  26  28
BRANCH  26  36
ATOM     36  C   UNL     1       5.061  -1.358  -0.692  0.00  0.00    -0.042 C 
BRANCH  36  37
ATOM     37  C   UNL     1       4.874  -2.421   0.361  0.00  0.00    -0.064 A 
ATOM     38  C   UNL     1       5.043  -3.754   0.035  0.00  0.00    +0.002 A 
ATOM     39  C   UNL     1       4.871  -4.728   1.000  0.00  0.00    +0.000 A 
ATOM     40  C   UNL     1       4.530  -4.370   2.291  0.00  0.00    +0.000 A 
ATOM     41  C   UNL     1       4.362  -3.037   2.617  0.00  0.00    +0.000 A 
ATOM     42  C   UNL     1       4.534  -2.063   1.652  0.00  0.00    +0.002 A 
ENDBRANCH  36  37
ENDBRANCH  26  36
ENDBRANCH   1  26
TORSDOF 9
