REMARK  Name = ZINC04850331
REMARK  12 active torsions:
REMARK  status: ('A' for Active; 'I' for Inactive)
REMARK    1  A    between atoms: C_1  and  C_2
REMARK    2  A    between atoms: C_2  and  C_3
REMARK    3  A    between atoms: C_3  and  C_4
REMARK    4  A    between atoms: C_4  and  C_5
REMARK    5  A    between atoms: C_5  and  C_7
REMARK    6  A    between atoms: C_5  and  N_61
REMARK    7  A    between atoms: N_11  and  C_12
REMARK    8  A    between atoms: C_12  and  C_13
REMARK    9  A    between atoms: C_12  and  C_14
REMARK   10  A    between atoms: C_12  and  C_15
REMARK   11  A    between atoms: C_15  and  C_16
REMARK   12  A    between atoms: N_19  and  C_22
REMARK                            x       y       z     vdW  Elec       q    Type
REMARK                         _______ _______ _______ _____ _____    ______ ____
ROOT
ATOM      1  C   UNL     1      -0.792   1.692  -3.618  0.00  0.00    +0.003 C 
ENDROOT
BRANCH   1   7
ATOM      2  C   UNL     1      -1.058   3.683  -2.264  0.00  0.00    -0.059 C 
ATOM      3  C   UNL     1      -0.683   5.163  -2.158  0.00  0.00    +0.086 C 
ATOM      4  N   UNL     1      -1.215   5.885  -3.321  0.00  0.00    -0.331 N 
ATOM      5  C   UNL     1      -0.674   5.334  -4.572  0.00  0.00    +0.086 C 
ATOM      6  C   UNL     1      -1.050   3.854  -4.678  0.00  0.00    -0.059 C 
ATOM      7  N   UNL     1      -0.490   3.136  -3.514  0.00  0.00    +0.388 N 
ATOM      8  H   UNL     1       0.529   3.263  -3.502  0.00  0.00    -0.081 HD
BRANCH   4   9
ATOM      9  C   UNL     1      -0.953   7.255  -3.223  0.00  0.00    +0.065 A 
ATOM     10  C   UNL     1      -1.438   8.127  -4.189  0.00  0.00    +0.026 A 
ATOM     11  C   UNL     1      -1.181   9.481  -4.087  0.00  0.00    +0.002 A 
ATOM     12  C   UNL     1      -0.434   9.968  -3.030  0.00  0.00    +0.003 A 
ATOM     13  C   UNL     1       0.055   9.103  -2.069  0.00  0.00    +0.040 A 
ATOM     14  C   UNL     1      -0.201   7.747  -2.162  0.00  0.00    +0.144 A 
ATOM     15  F   UNL     1       0.277   6.902  -1.223  0.00  0.00    -0.204 F 
ENDBRANCH   4   9
ENDBRANCH   1   7
BRANCH   1  16
ATOM     16  C   UNL     1      -0.260   1.172  -4.928  0.00  0.00    +0.139 A 
ATOM     17  N   UNL     1       0.917   1.419  -5.447  0.00  0.00    -0.115 NA
ATOM     18  N   UNL     1       0.995   0.794  -6.572  0.00  0.00    -0.023 NA
ATOM     19  N   UNL     1      -0.102   0.154  -6.782  0.00  0.00    -0.043 NA
ATOM     20  N   UNL     1      -0.899   0.358  -5.789  0.00  0.00    -0.225 N 
BRANCH  20  21
ATOM     21  C   UNL     1      -2.248  -0.190  -5.629  0.00  0.00    +0.061 C 
ATOM     22  C   UNL     1      -2.341  -0.936  -4.296  0.00  0.00    +0.036 C 
ATOM     23  C   UNL     1      -3.268   0.950  -5.648  0.00  0.00    +0.036 C 
BRANCH  21  24
ATOM     24  C   UNL     1      -2.545  -1.158  -6.776  0.00  0.00    +0.026 C 
ATOM     25  C   UNL     1      -3.954  -1.731  -6.610  0.00  0.00    +0.006 C 
ENDBRANCH  21  24
ENDBRANCH  20  21
ENDBRANCH   1  16
BRANCH   1  26
ATOM     26  C   UNL     1      -0.109   0.958  -2.462  0.00  0.00    -0.008 C 
BRANCH  26  27
ATOM     27  C   UNL     1       1.393   1.251  -2.489  0.00  0.00    -0.001 C 
BRANCH  27  29
ATOM     28  C   UNL     1       3.558   0.917  -1.287  0.00  0.00    +0.004 C 
ATOM     29  C   UNL     1       2.056   0.625  -1.260  0.00  0.00    -0.003 C 
ENDBRANCH  27  29
ENDBRANCH  26  27
ENDBRANCH   1  26
TORSDOF 8
