REMARK  Name = ZINC43261769
REMARK  8 active torsions:
REMARK  status: ('A' for Active; 'I' for Inactive)
REMARK    1  A    between atoms: C_1  and  C_2
REMARK    2  A    between atoms: C_2  and  C_4
REMARK    3  A    between atoms: C_2  and  N_22
REMARK    4  A    between atoms: C_4  and  C_6
REMARK    5  A    between atoms: C_4  and  N_12
REMARK    6  A    between atoms: N_12  and  C_13
REMARK    7  A    between atoms: N_12  and  C_19
REMARK    8  A    between atoms: C_13  and  C_14
REMARK                            x       y       z     vdW  Elec       q    Type
REMARK                         _______ _______ _______ _____ _____    ______ ____
ROOT
ATOM      1  C   UNL     1       0.770  -0.579   1.276  0.00  0.00    -0.013 C 
ENDROOT
BRANCH   1   2
ATOM      2  C   UNL     1       0.165  -0.337   2.635  0.00  0.00    -0.021 A 
ATOM      3  C   UNL     1      -0.587  -1.170   3.395  0.00  0.00    +0.011 A 
ATOM      4  C   UNL     1      -1.040  -0.730   4.625  0.00  0.00    +0.023 A 
ATOM      5  C   UNL     1      -0.717   0.522   5.034  0.00  0.00    +0.055 A 
ATOM      6  S   UNL     1       0.261   1.118   3.665  0.00  0.00    -0.088 S 
ATOM      7 BR   UNL     1      -1.178   1.405   6.642  0.00  0.00    -0.043 Br
ENDBRANCH   1   2
BRANCH   1   9
ATOM      8  C   UNL     1      -0.065   1.599   0.381  0.00  0.00    +0.022 C 
ATOM      9  C   UNL     1      -0.102   0.080   0.205  0.00  0.00    +0.039 C 
BRANCH   9  10
ATOM     10  N   UNL     1      -1.486  -0.395   0.340  0.00  0.00    -0.329 NA
ATOM     11  H   UNL     1      -1.546  -1.387   0.164  0.00  0.00    +0.118 HD
ATOM     12  H   UNL     1      -1.860  -0.165   1.248  0.00  0.00    +0.118 HD
ENDBRANCH   9  10
ENDBRANCH   1   9
BRANCH   1  13
ATOM     13  N   UNL     1       2.120  -0.002   1.231  0.00  0.00    +0.390 N 
ATOM     14  H   UNL     1       2.059   1.003   1.294  0.00  0.00    -0.080 HD
BRANCH  13  15
ATOM     15  C   UNL     1       2.770  -0.375  -0.032  0.00  0.00    -0.067 C 
ATOM     16  C   UNL     1       3.556   0.711  -0.770  0.00  0.00    -0.017 C 
ATOM     17  C   UNL     1       2.211   0.232  -1.321  0.00  0.00    -0.017 C 
ENDBRANCH  13  15
BRANCH  13  18
ATOM     18  C   UNL     1       2.910  -0.516   2.358  0.00  0.00    -0.041 C 
BRANCH  18  19
ATOM     19  C   UNL     1       4.253   0.167   2.384  0.00  0.00    -0.057 A 
ATOM     20  C   UNL     1       5.324  -0.364   1.690  0.00  0.00    +0.009 A 
ATOM     21  C   UNL     1       6.518   0.276   1.734  0.00  0.00    +0.045 A 
ATOM     22  S   UNL     1       6.149   1.675   2.780  0.00  0.00    -0.105 S 
ATOM     23  C   UNL     1       4.427   1.315   3.083  0.00  0.00    +0.047 A 
ENDBRANCH  18  19
ENDBRANCH  13  18
ENDBRANCH   1  13
TORSDOF 7
