REMARK  Name = ZINC22093440
REMARK  11 active torsions:
REMARK  status: ('A' for Active; 'I' for Inactive)
REMARK    1  A    between atoms: C_1  and  C_2
REMARK    2  A    between atoms: C_2  and  C_3
REMARK    3  A    between atoms: C_2  and  C_4
REMARK    4  A    between atoms: C_2  and  N_5
REMARK    5  A    between atoms: C_6  and  C_8
REMARK    6  A    between atoms: C_8  and  N_9
REMARK    7  A    between atoms: C_15  and  C_17
REMARK    8  A    between atoms: C_17  and  S_18
REMARK    9  A    between atoms: S_18  and  C_19
REMARK   10  A    between atoms: N_24  and  C_25
REMARK   11  A    between atoms: C_25  and  C_26
REMARK                            x       y       z     vdW  Elec       q    Type
REMARK                         _______ _______ _______ _____ _____    ______ ____
ROOT
ATOM      1  N   UNL     1      -7.615   0.338   1.037  0.00  0.00    +0.387 N 
ATOM      2  C   UNL     1      -7.434   1.788   1.183  0.00  0.00    -0.059 C 
ATOM      3  C   UNL     1      -6.543   2.306   0.049  0.00  0.00    +0.089 C 
ATOM      4  N   UNL     1      -5.298   1.522   0.038  0.00  0.00    -0.304 N 
ATOM      5  C   UNL     1      -5.400   0.055   0.025  0.00  0.00    +0.089 C 
ATOM      6  C   UNL     1      -6.336  -0.374   1.166  0.00  0.00    -0.059 C 
ATOM      7  C   UNL     1      -4.097   2.132   0.035  0.00  0.00    +0.226 C 
ATOM      8  O   UNL     1      -4.032   3.343   0.041  0.00  0.00    -0.275 OA
ATOM      9  H   UNL     1      -8.002   0.149   0.025  0.00  0.00    -0.081 HD
ENDROOT
BRANCH   1  10
ATOM     10  C   UNL     1      -8.599  -0.170   2.002  0.00  0.00    +0.019 C 
BRANCH  10  12
ATOM     11  N   UNL     1      -9.830  -2.274   2.421  0.00  0.00    -0.312 N 
ATOM     12  C   UNL     1      -8.941  -1.599   1.667  0.00  0.00    +0.197 C 
ATOM     13  O   UNL     1      -8.415  -2.141   0.718  0.00  0.00    -0.278 OA
ATOM     14  H   UNL     1     -10.306  -1.782   3.282  0.00  0.00    +0.149 HD
BRANCH  11  16
ATOM     15  C   UNL     1      -8.895  -4.519   2.161  0.00  0.00    +0.031 C 
ATOM     16  C   UNL     1     -10.161  -3.663   2.095  0.00  0.00    +0.026 C 
ATOM     17  C   UNL     1     -11.187  -4.192   3.100  0.00  0.00    +0.031 C 
ATOM     18  C   UNL     1     -10.749  -3.730   0.684  0.00  0.00    +0.031 C 
ENDBRANCH  11  16
ENDBRANCH  10  12
ENDBRANCH   1  10
BRANCH   7  19
ATOM     19  C   UNL     1      -2.834   1.310   0.024  0.00  0.00    +0.172 C 
BRANCH  19  20
ATOM     20  S   UNL     1      -1.394   2.413   0.022  0.00  0.00    -0.088 S 
BRANCH  20  21
ATOM     21  C   UNL     1      -0.016   1.315   0.009  0.00  0.00    +0.160 A 
ATOM     22  N   UNL     1       0.002  -0.004   0.002  0.00  0.00    -0.133 NA
ATOM     23  N   UNL     1       1.205  -0.672  -0.013  0.00  0.00    -0.125 NA
ATOM     24  C   UNL     1       2.334   0.009  -0.020  0.00  0.00    +0.182 A 
ATOM     25  S   UNL     1       1.730   1.690  -0.005  0.00  0.00    -0.025 S 
ATOM     26  N   UNL     1       3.643  -0.457  -0.035  0.00  0.00    -0.320 N 
ATOM     27  H   UNL     1       4.481   0.256  -0.039  0.00  0.00    +0.148 HD
BRANCH  26  28
ATOM     28  C   UNL     1       3.908  -1.898  -0.044  0.00  0.00    +0.135 C 
BRANCH  28  29
ATOM     29  C   UNL     1       5.419  -2.138  -0.059  0.00  0.00    +0.135 C 
ATOM     30  C   UNL     1       5.722  -3.647  -0.196  0.00  0.00    +0.035 C 
ATOM     31  C   UNL     1       6.962  -3.863   0.700  0.00  0.00    +0.031 C 
ATOM     32  C   UNL     1       7.262  -2.460   1.271  0.00  0.00    +0.160 C 
ATOM     33  O   UNL     1       6.002  -1.758   1.206  0.00  0.00    -0.375 OA
ENDBRANCH  28  29
ENDBRANCH  26  28
ENDBRANCH  20  21
ENDBRANCH  19  20
ENDBRANCH   7  19
TORSDOF 8
