REMARK  Name = ZINC03407349
REMARK  3 active torsions:
REMARK  status: ('A' for Active; 'I' for Inactive)
REMARK    1  A    between atoms: C_1  and  C_2
REMARK    2  A    between atoms: C_2  and  C_3
REMARK    3  A    between atoms: C_2  and  C_4
REMARK                            x       y       z     vdW  Elec       q    Type
REMARK                         _______ _______ _______ _____ _____    ______ ____
ROOT
ATOM      1  C   UNL     1       0.718  -0.497  -1.257  0.00  0.00    +0.269 C 
ATOM      2  C   UNL     1       0.712  -2.011  -1.312  0.00  0.00    +0.292 C 
ATOM      3  N   UNL     1       0.061  -2.335  -2.394  0.00  0.00    -0.157 NA
ATOM      4  C   UNL     1      -0.365  -1.241  -3.063  0.00  0.00    +0.314 C 
ATOM      5  N   UNL     1      -1.041  -1.281  -4.178  0.00  0.00    -0.249 NA
ATOM      6  O   UNL     1      -0.001  -0.098  -2.434  0.00  0.00    -0.449 OA
ATOM      7  O   UNL     1       1.267  -2.853  -0.423  0.00  0.00    -0.267 OA
ATOM      8  H   UNL     1      -1.268  -2.135  -4.577  0.00  0.00    +0.191 HD
ENDROOT
BRANCH   1  10
ATOM      9  C   UNL     1      -0.019   1.526   0.010  0.00  0.00    +0.011 C 
ATOM     10  C   UNL     1       0.002  -0.004   0.002  0.00  0.00    +0.033 C 
ATOM     11  C   UNL     1      -1.433  -0.534   0.013  0.00  0.00    +0.011 C 
ENDBRANCH   1  10
TORSDOF 1
