REMARK  Name = ZINC19863253
REMARK  3 active torsions:
REMARK  status: ('A' for Active; 'I' for Inactive)
REMARK    1  A    between atoms: C_4  and  C_7
REMARK    2  A    between atoms: N_8  and  N_9
REMARK    3  A    between atoms: C_10  and  C_12
REMARK                            x       y       z     vdW  Elec       q    Type
REMARK                         _______ _______ _______ _____ _____    ______ ____
ROOT
ATOM      1  C   UNL     1      -2.392   1.191   0.023  0.00  0.00    +0.076 A 
ATOM      2  C   UNL     1      -1.254   1.987   0.019  0.00  0.00    +0.028 A 
ATOM      3  C   UNL     1      -0.017   1.399   0.010  0.00  0.00    +0.005 A 
ATOM      4  C   UNL     1       0.002  -0.004   0.002  0.00  0.00    +0.030 A 
ATOM      5  S   UNL     1      -1.699  -0.459   0.007  0.00  0.00    -0.083 S 
ATOM      6  C   UNL     1       1.243  -0.767  -0.005  0.00  0.00    +0.031 A 
ATOM      7  C   UNL     1       1.321  -2.124  -0.280  0.00  0.00    +0.012 A 
ATOM      8  C   UNL     1       2.551  -2.753  -0.277  0.00  0.00    +0.001 A 
ATOM      9  C   UNL     1       3.700  -2.030  -0.004  0.00  0.00    +0.004 A 
ATOM     10  C   UNL     1       3.634  -0.678   0.277  0.00  0.00    +0.046 A 
ATOM     11  C   UNL     1       2.412  -0.030   0.289  0.00  0.00    +0.129 A 
ATOM     12  O   UNL     1       2.314   1.282   0.603  0.00  0.00    -0.487 OA
ATOM     13  C   UNL     1       1.327   2.118   0.001  0.00  0.00    +0.265 C 
ENDROOT
BRANCH   1  15
ATOM     14  N   UNL     1      -4.769   0.662   0.032  0.00  0.00    -0.203 N 
ATOM     15  C   UNL     1      -3.798   1.597   0.034  0.00  0.00    +0.270 C 
ATOM     16  O   UNL     1      -4.090   2.779   0.045  0.00  0.00    -0.268 OA
ATOM     17  H   UNL     1      -4.505  -0.405   0.022  0.00  0.00    +0.178 HD
BRANCH  14  19
ATOM     18  C   UNL     1      -7.051   0.151   0.041  0.00  0.00    +0.138 C 
ATOM     19  N   UNL     1      -6.115   1.051   0.043  0.00  0.00    -0.187 NA
BRANCH  18  23
ATOM     20  C   UNL     1     -11.128   1.329   0.073  0.00  0.00    +0.000 A 
ATOM     21  C   UNL     1     -10.800  -0.015   0.061  0.00  0.00    +0.001 A 
ATOM     22  C   UNL     1      -9.477  -0.405   0.051  0.00  0.00    +0.009 A 
ATOM     23  C   UNL     1      -8.467   0.561   0.052  0.00  0.00    -0.005 A 
ATOM     24  C   UNL     1      -8.806   1.916   0.071  0.00  0.00    +0.009 A 
ATOM     25  C   UNL     1     -10.134   2.291   0.075  0.00  0.00    +0.001 A 
ENDBRANCH  18  23
ENDBRANCH  14  19
ENDBRANCH   1  15
TORSDOF 3
