REMARK  Name = ZINC00844618
REMARK  4 active torsions:
REMARK  status: ('A' for Active; 'I' for Inactive)
REMARK    1  A    between atoms: C_1  and  O_2
REMARK    2  A    between atoms: O_2  and  C_3
REMARK    3  A    between atoms: C_3  and  C_5
REMARK    4  A    between atoms: C_18  and  C_21
REMARK                            x       y       z     vdW  Elec       q    Type
REMARK                         _______ _______ _______ _____ _____    ______ ____
ROOT
ATOM      1  C   UNL     1      -1.258  -1.937   0.457  0.00  0.00    +0.059 A 
ATOM      2  C   UNL     1      -0.078  -2.675   0.323  0.00  0.00    +0.017 A 
ATOM      3  C   UNL     1       1.095  -2.032   0.050  0.00  0.00    +0.024 A 
ATOM      4  C   UNL     1       1.121  -0.647  -0.097  0.00  0.00    +0.031 A 
ATOM      5  C   UNL     1      -0.043   0.102   0.033  0.00  0.00    -0.019 A 
ATOM      6  C   UNL     1      -1.232  -0.549   0.310  0.00  0.00    +0.021 A 
ATOM      7  C   UNL     1      -0.058   1.590  -0.117  0.00  0.00    +0.049 C 
ATOM      8  C   UNL     1      -0.655   2.006  -1.440  0.00  0.00    -0.023 C 
ATOM      9  C   UNL     1      -0.031   3.058  -1.910  0.00  0.00    -0.030 C 
ATOM     10  C   UNL     1       1.067   3.492  -0.958  0.00  0.00    +0.033 C 
ATOM     11  C   UNL     1       1.355   2.206  -0.128  0.00  0.00    +0.029 C 
ATOM     12  C   UNL     1       2.298   1.330  -0.958  0.00  0.00    +0.105 C 
ATOM     13  N   UNL     1       2.330  -0.016  -0.378  0.00  0.00    -0.336 N 
ATOM     14  H   UNL     1       3.174  -0.457  -0.194  0.00  0.00    +0.147 HD
ENDROOT
BRANCH  12  15
ATOM     15  C   UNL     1       3.683   1.921  -0.938  0.00  0.00    -0.019 A 
ATOM     16  C   UNL     1       4.013   2.860  -0.010  0.00  0.00    +0.006 A 
ATOM     17  C   UNL     1       5.292   3.413   0.028  0.00  0.00    +0.001 A 
ATOM     18  C   UNL     1       6.244   3.040  -0.870  0.00  0.00    +0.008 A 
ATOM     19  C   UNL     1       5.939   2.078  -1.847  0.00  0.00    -0.018 A 
ATOM     20  C   UNL     1       4.640   1.510  -1.882  0.00  0.00    -0.013 A 
ATOM     21  C   UNL     1       4.335   0.548  -2.860  0.00  0.00    +0.009 A 
ATOM     22  C   UNL     1       5.286   0.175  -3.758  0.00  0.00    +0.001 A 
ATOM     23  C   UNL     1       6.563   0.734  -3.724  0.00  0.00    +0.001 A 
ATOM     24  C   UNL     1       6.895   1.668  -2.792  0.00  0.00    +0.008 A 
ENDBRANCH  12  15
BRANCH   1  25
ATOM     25  C   UNL     1      -2.528  -2.623   0.752  0.00  0.00    +0.339 C 
ATOM     26  O   UNL     1      -3.553  -1.981   0.868  0.00  0.00    -0.245 OA
BRANCH  25  28
ATOM     27  C   UNL     1      -3.839  -4.572   1.183  0.00  0.00    +0.280 C 
ATOM     28  O   UNL     1      -2.553  -3.963   0.893  0.00  0.00    -0.464 OA
ENDBRANCH  25  28
ENDBRANCH   1  25
TORSDOF 3
