REMARK  Name = ZINC50867488
REMARK  4 active torsions:
REMARK  status: ('A' for Active; 'I' for Inactive)
REMARK    1  A    between atoms: C_1  and  C_2
REMARK    2  A    between atoms: C_3  and  C_21
REMARK    3  A    between atoms: C_5  and  C_9
REMARK    4  A    between atoms: C_7  and  N_8
REMARK                            x       y       z     vdW  Elec       q    Type
REMARK                         _______ _______ _______ _____ _____    ______ ____
ROOT
ATOM      1  C   UNL     1       0.059  -4.168  -0.028  0.00  0.00    +0.024 A 
ATOM      2  C   UNL     1       0.069  -4.880   1.173  0.00  0.00    +0.061 A 
ATOM      3  C   UNL     1       0.087  -6.261   1.149  0.00  0.00    +0.164 A 
ATOM      4  C   UNL     1       0.096  -6.939  -0.064  0.00  0.00    +0.176 A 
ATOM      5  C   UNL     1       0.087  -6.234  -1.259  0.00  0.00    +0.064 A 
ATOM      6  C   UNL     1       0.063  -4.853  -1.243  0.00  0.00    +0.030 A 
ATOM      7 BR   UNL     1       0.100  -7.162  -2.906  0.00  0.00    -0.046 Br
ATOM      8  O   UNL     1       0.113  -8.303  -0.072  0.00  0.00    -0.487 OA
ATOM      9  C   UNL     1       1.315  -8.916   0.399  0.00  0.00    +0.232 C 
ATOM     10  C   UNL     1       1.299  -9.038   1.915  0.00  0.00    +0.082 C 
ATOM     11  C   UNL     1       1.298  -7.683   2.605  0.00  0.00    +0.232 C 
ATOM     12  O   UNL     1       0.095  -6.968   2.316  0.00  0.00    -0.488 OA
ENDROOT
BRANCH   1  17
ATOM     13  C   UNL     1      -0.018   1.503   0.010  0.00  0.00    +0.049 C 
ATOM     14  C   UNL     1       0.002  -0.004   0.002  0.00  0.00    +0.010 A 
ATOM     15  C   UNL     1       0.006  -0.704  -1.190  0.00  0.00    +0.047 A 
ATOM     16  N   UNL     1       0.025  -2.028  -1.164  0.00  0.00    -0.232 NA
ATOM     17  C   UNL     1       0.039  -2.687  -0.013  0.00  0.00    +0.162 A 
ATOM     18  N   UNL     1       0.036  -2.052   1.152  0.00  0.00    -0.213 NA
ATOM     19  C   UNL     1       0.023  -0.725   1.199  0.00  0.00    +0.123 A 
ATOM     20  C   UNL     1      -0.011   0.031  -2.505  0.00  0.00    +0.066 C 
BRANCH  19  21
ATOM     21  N   UNL     1       0.026  -0.064   2.417  0.00  0.00    -0.343 N 
ATOM     22  H   UNL     1       0.013   0.905   2.443  0.00  0.00    +0.144 HD
ATOM     23  H   UNL     1       0.041  -0.572   3.243  0.00  0.00    +0.144 HD
ENDBRANCH  19  21
ENDBRANCH   1  17
TORSDOF 2
