REMARK  Name = ZINC13059382
REMARK  6 active torsions:
REMARK  status: ('A' for Active; 'I' for Inactive)
REMARK    1  A    between atoms: C_1  and  C_2
REMARK    2  A    between atoms: C_9  and  C_11
REMARK    3  A    between atoms: C_12  and  C_36
REMARK    4  A    between atoms: C_16  and  C_18
REMARK    5  A    between atoms: C_21  and  O_24
REMARK    6  A    between atoms: C_28  and  C_31
REMARK                            x       y       z     vdW  Elec       q    Type
REMARK                         _______ _______ _______ _____ _____    ______ ____
ROOT
ATOM      1  C   UNL     1      -1.243   1.920   0.026  0.00  0.00    +0.043 C 
ATOM      2  C   UNL     1      -2.390   1.230   0.137  0.00  0.00    +0.014 C 
ATOM      3  N   UNL     1      -3.592   1.882   0.167  0.00  0.00    -0.321 N 
ATOM      4  C   UNL     1      -3.656   3.213   0.482  0.00  0.00    +0.016 C 
ATOM      5  C   UNL     1      -2.556   3.991   0.393  0.00  0.00    +0.024 C 
ATOM      6  C   UNL     1      -1.242   3.417  -0.068  0.00  0.00    +0.090 C 
ATOM      7  C   UNL     1      -2.604   5.356   0.729  0.00  0.00    +0.162 C 
ATOM      8  O   UNL     1      -1.598   6.030   0.629  0.00  0.00    -0.292 OA
ATOM      9  C   UNL     1      -3.878   5.996   1.208  0.00  0.00    +0.091 C 
ATOM     10  C   UNL     1      -4.738   4.936   1.905  0.00  0.00    +0.068 C 
ATOM     11  C   UNL     1      -4.979   3.786   0.925  0.00  0.00    +0.062 C 
ATOM     12  C   UNL     1      -2.353  -0.274   0.228  0.00  0.00    +0.061 C 
ATOM     13  H   UNL     1      -4.520   1.337  -0.062  0.00  0.00    +0.152 HD
ENDROOT
BRANCH   1  22
ATOM     14  C   UNL     1       5.516  -1.720  -1.248  0.00  0.00    +0.045 C 
ATOM     15  C   UNL     1       4.148  -1.087  -1.257  0.00  0.00    -0.032 A 
ATOM     16  C   UNL     1       3.426  -0.995  -2.439  0.00  0.00    +0.008 A 
ATOM     17  C   UNL     1       2.174  -0.407  -2.404  0.00  0.00    +0.044 A 
ATOM     18  C   UNL     1       1.684   0.068  -1.192  0.00  0.00    +0.125 A 
ATOM     19  N   UNL     1       2.405  -0.034  -0.087  0.00  0.00    -0.240 NA
ATOM     20  C   UNL     1       3.600  -0.594  -0.090  0.00  0.00    +0.116 A 
ATOM     21  N   UNL     1       0.425   0.662  -1.143  0.00  0.00    -0.267 N 
ATOM     22  C   UNL     1      -0.012   1.221   0.003  0.00  0.00    +0.248 C 
ATOM     23  O   UNL     1       0.650   1.121   1.020  0.00  0.00    -0.270 OA
ATOM     24  H   UNL     1      -0.213   0.676  -2.039  0.00  0.00    +0.157 HD
ENDBRANCH   1  22
BRANCH   6  25
ATOM     25  C   UNL     1      -1.005   3.823  -1.500  0.00  0.00    -0.035 A 
ATOM     26  C   UNL     1      -1.884   3.418  -2.486  0.00  0.00    +0.008 A 
ATOM     27  C   UNL     1      -1.672   3.793  -3.799  0.00  0.00    +0.046 A 
ATOM     28  C   UNL     1      -0.569   4.568  -4.128  0.00  0.00    +0.117 A 
ATOM     29  C   UNL     1       0.315   4.969  -3.137  0.00  0.00    +0.046 A 
ATOM     30  C   UNL     1       0.095   4.596  -1.825  0.00  0.00    +0.008 A 
BRANCH  28  31
ATOM     31  O   UNL     1      -0.355   4.933  -5.419  0.00  0.00    -0.507 OA
ATOM     32  H   UNL     1       0.520   5.547  -5.679  0.00  0.00    +0.292 HD
ENDBRANCH  28  31
ENDBRANCH   6  25
BRANCH  10  33
ATOM     33  C   UNL     1      -6.058   5.542   2.309  0.00  0.00    +0.109 A 
ATOM     34  C   UNL     1      -6.543   5.605   3.562  0.00  0.00    +0.045 A 
ATOM     35  C   UNL     1      -7.798   6.250   3.483  0.00  0.00    +0.041 A 
ATOM     36  C   UNL     1      -8.009   6.535   2.186  0.00  0.00    +0.195 A 
ATOM     37  O   UNL     1      -6.952   6.103   1.479  0.00  0.00    -0.468 OA
ENDBRANCH  10  33
TORSDOF 4
