REMARK  Name = ZINC16919661
REMARK  11 active torsions:
REMARK  status: ('A' for Active; 'I' for Inactive)
REMARK    1  A    between atoms: C_1  and  C_2
REMARK    2  A    between atoms: C_2  and  C_4
REMARK    3  A    between atoms: C_2  and  N_62
REMARK    4  A    between atoms: C_7  and  S_16
REMARK    5  A    between atoms: N_8  and  C_9
REMARK    6  A    between atoms: S_16  and  C_17
REMARK    7  A    between atoms: C_17  and  C_18
REMARK    8  A    between atoms: N_20  and  C_21
REMARK    9  A    between atoms: C_24  and  N_27
REMARK   10  A    between atoms: C_32  and  N_62
REMARK   11  A    between atoms: C_33  and  N_62
REMARK                            x       y       z     vdW  Elec       q    Type
REMARK                         _______ _______ _______ _____ _____    ______ ____
ROOT
ATOM      1  C   UNL     1       1.256   1.714   0.468  0.00  0.00    +0.125 A 
ATOM      2  N   UNL     1       0.049   1.268   0.265  0.00  0.00    -0.135 NA
ATOM      3  N   UNL     1       0.052  -0.017   0.233  0.00  0.00    -0.122 NA
ATOM      4  C   UNL     1       1.272  -0.466   0.415  0.00  0.00    +0.197 A 
ATOM      5  N   UNL     1       2.081   0.626   0.571  0.00  0.00    -0.275 N 
ENDROOT
BRANCH   5   6
ATOM      6  C   UNL     1       3.467   0.630   0.791  0.00  0.00    +0.050 A 
ATOM      7  C   UNL     1       3.979   1.118   1.986  0.00  0.00    +0.028 A 
ATOM      8  C   UNL     1       5.344   1.117   2.202  0.00  0.00    +0.022 A 
ATOM      9  C   UNL     1       6.200   0.639   1.225  0.00  0.00    +0.041 A 
ATOM     10  C   UNL     1       5.691   0.156   0.032  0.00  0.00    +0.022 A 
ATOM     11  C   UNL     1       4.327   0.151  -0.187  0.00  0.00    +0.028 A 
ATOM     12 CL   UNL     1       7.914   0.644   1.498  0.00  0.00    -0.084 Cl
ENDBRANCH   5   6
BRANCH   1  14
ATOM     13  C   UNL     1       1.672   3.789  -0.825  0.00  0.00    -0.005 C 
ATOM     14  C   UNL     1       1.669   3.160   0.570  0.00  0.00    -0.003 C 
BRANCH  14  17
ATOM     15  C   UNL     1       0.621   3.246   2.751  0.00  0.00    -0.096 C 
ATOM     16  C   UNL     1       1.091   5.296   1.553  0.00  0.00    -0.096 C 
ATOM     17  N   UNL     1       0.694   3.879   1.418  0.00  0.00    +0.382 N 
ATOM     18  H   UNL     1      -0.231   3.833   0.975  0.00  0.00    -0.082 HD
ENDBRANCH  14  17
ENDBRANCH   1  14
BRANCH   4  19
ATOM     19  S   UNL     1       1.773  -2.155   0.452  0.00  0.00    -0.076 S 
BRANCH  19  20
ATOM     20  C   UNL     1       0.176  -2.962   0.178  0.00  0.00    +0.173 C 
BRANCH  20  21
ATOM     21  C   UNL     1       0.363  -4.457   0.170  0.00  0.00    +0.227 C 
ATOM     22  O   UNL     1       1.468  -4.931   0.333  0.00  0.00    -0.275 OA
ATOM     23  N   UNL     1      -0.696  -5.269  -0.019  0.00  0.00    -0.285 N 
ATOM     24  H   UNL     1      -1.589  -4.894  -0.076  0.00  0.00    +0.155 HD
BRANCH  23  25
ATOM     25  C   UNL     1      -0.508  -6.653  -0.134  0.00  0.00    +0.034 A 
ATOM     26  C   UNL     1      -1.313  -7.394  -0.988  0.00  0.00    +0.025 A 
ATOM     27  C   UNL     1      -1.123  -8.757  -1.105  0.00  0.00    +0.025 A 
ATOM     28  C   UNL     1      -0.135  -9.387  -0.361  0.00  0.00    +0.030 A 
ATOM     29  C   UNL     1       0.667  -8.646   0.498  0.00  0.00    +0.025 A 
ATOM     30  C   UNL     1       0.481  -7.283   0.611  0.00  0.00    +0.025 A 
BRANCH  28  31
ATOM     31  N   UNL     1       0.053 -10.769  -0.475  0.00  0.00    -0.330 N 
ATOM     32  C   UNL     1       1.408 -11.080  -1.000  0.00  0.00    +0.105 C 
ATOM     33  C   UNL     1       1.625 -12.552  -0.569  0.00  0.00    +0.020 C 
ATOM     34  C   UNL     1       0.963 -12.605   0.827  0.00  0.00    +0.020 C 
ATOM     35  C   UNL     1      -0.027 -11.426   0.847  0.00  0.00    +0.105 C 
ENDBRANCH  28  31
ENDBRANCH  23  25
ENDBRANCH  20  21
ENDBRANCH  19  20
ENDBRANCH   4  19
TORSDOF 8
