REMARK  Name = ZINC38885889
REMARK  8 active torsions:
REMARK  status: ('A' for Active; 'I' for Inactive)
REMARK    1  A    between atoms: C_1  and  C_2
REMARK    2  A    between atoms: C_2  and  C_4
REMARK    3  A    between atoms: C_2  and  N_16
REMARK    4  A    between atoms: C_7  and  N_10
REMARK    5  A    between atoms: C_17  and  C_19
REMARK    6  A    between atoms: N_24  and  C_26
REMARK    7  A    between atoms: C_26  and  C_27
REMARK    8  A    between atoms: C_29  and  C_32
REMARK                            x       y       z     vdW  Elec       q    Type
REMARK                         _______ _______ _______ _____ _____    ______ ____
ROOT
ATOM      1  C   UNL     1       0.740  -1.062  -3.602  0.00  0.00    +0.058 C 
ATOM      2  C   UNL     1       1.868  -0.085  -3.943  0.00  0.00    +0.009 C 
ATOM      3  C   UNL     1       2.539  -0.528  -5.246  0.00  0.00    -0.018 C 
ATOM      4  C   UNL     1       1.486  -0.607  -6.354  0.00  0.00    -0.078 C 
ATOM      5  N   UNL     1       0.449  -1.577  -5.980  0.00  0.00    +0.386 N 
ATOM      6  C   UNL     1      -0.247  -1.122  -4.771  0.00  0.00    -0.065 C 
ATOM      7  H   UNL     1       0.877  -2.473  -5.804  0.00  0.00    -0.081 HD
ENDROOT
BRANCH   1   9
ATOM      8  N   UNL     1       0.698  -0.461  -1.203  0.00  0.00    -0.309 N 
ATOM      9  C   UNL     1       0.024  -0.592  -2.362  0.00  0.00    +0.215 C 
ATOM     10  O   UNL     1      -1.160  -0.333  -2.408  0.00  0.00    -0.276 OA
ATOM     11  H   UNL     1       1.645  -0.669  -1.167  0.00  0.00    +0.149 HD
BRANCH   8  13
ATOM     12  C   UNL     1      -0.036   1.525   0.020  0.00  0.00    +0.033 C 
ATOM     13  C   UNL     1       0.002  -0.004   0.002  0.00  0.00    +0.100 C 
BRANCH  13  14
ATOM     14  C   UNL     1       0.731  -0.503   1.223  0.00  0.00    -0.027 A 
ATOM     15  C   UNL     1       2.114  -0.498   1.251  0.00  0.00    +0.007 A 
ATOM     16  C   UNL     1       2.785  -0.955   2.369  0.00  0.00    +0.023 A 
ATOM     17  C   UNL     1       2.069  -1.420   3.465  0.00  0.00    +0.030 A 
ATOM     18  C   UNL     1       0.680  -1.424   3.433  0.00  0.00    +0.023 A 
ATOM     19  C   UNL     1       0.016  -0.960   2.315  0.00  0.00    +0.007 A 
BRANCH  17  20
ATOM     20  N   UNL     1       2.745  -1.883   4.596  0.00  0.00    -0.330 N 
ATOM     21  C   UNL     1       2.004  -2.265   5.806  0.00  0.00    +0.105 C 
ATOM     22  C   UNL     1       2.411  -3.687   6.205  0.00  0.00    +0.019 C 
ATOM     23  C   UNL     1       3.933  -3.755   6.352  0.00  0.00    +0.003 C 
ATOM     24  C   UNL     1       4.592  -3.423   5.011  0.00  0.00    +0.019 C 
ATOM     25  C   UNL     1       4.209  -2.004   4.596  0.00  0.00    +0.105 C 
ENDBRANCH  17  20
ENDBRANCH  13  14
ENDBRANCH   8  13
ENDBRANCH   1   9
BRANCH   5  26
ATOM     26  C   UNL     1      -0.517  -1.706  -7.080  0.00  0.00    +0.022 C 
BRANCH  26  27
ATOM     27  C   UNL     1       0.169  -2.298  -8.284  0.00  0.00    +0.211 A 
ATOM     28  N   UNL     1       0.261  -3.568  -8.560  0.00  0.00    -0.193 NA
ATOM     29  C   UNL     1       0.937  -3.741  -9.710  0.00  0.00    +0.202 A 
ATOM     30  N   UNL     1       1.283  -2.566 -10.174  0.00  0.00    -0.056 NA
ATOM     31  O   UNL     1       0.782  -1.607  -9.254  0.00  0.00    -0.340 OA
BRANCH  29  32
ATOM     32  C   UNL     1       1.242  -5.047 -10.346  0.00  0.00    +0.022 A 
ATOM     33  C   UNL     1       0.813  -6.232  -9.752  0.00  0.00    +0.012 A 
ATOM     34  C   UNL     1       1.099  -7.443 -10.347  0.00  0.00    +0.001 A 
ATOM     35  C   UNL     1       1.812  -7.483 -11.532  0.00  0.00    +0.000 A 
ATOM     36  C   UNL     1       2.241  -6.310 -12.126  0.00  0.00    +0.001 A 
ATOM     37  C   UNL     1       1.955  -5.092 -11.542  0.00  0.00    +0.012 A 
ENDBRANCH  29  32
ENDBRANCH  26  27
ENDBRANCH   5  26
TORSDOF 7
