REMARK  Name = ZINC21800514
REMARK  10 active torsions:
REMARK  status: ('A' for Active; 'I' for Inactive)
REMARK    1  A    between atoms: C_1  and  C_2
REMARK    2  A    between atoms: C_5  and  C_8
REMARK    3  A    between atoms: C_14  and  C_16
REMARK    4  A    between atoms: C_16  and  C_18
REMARK    5  A    between atoms: C_16  and  O_19
REMARK    6  A    between atoms: O_19  and  C_20
REMARK    7  A    between atoms: C_23  and  C_26
REMARK    8  A    between atoms: C_26  and  C_27
REMARK    9  A    between atoms: C_26  and  C_28
REMARK   10  A    between atoms: C_26  and  C_29
REMARK                            x       y       z     vdW  Elec       q    Type
REMARK                         _______ _______ _______ _____ _____    ______ ____
ROOT
ATOM      1  C   UNL     1      -3.978   1.960  -4.323  0.00  0.00    +0.260 A 
ATOM      2  N   UNL     1      -3.854   1.561  -3.071  0.00  0.00    -0.174 NA
ATOM      3  C   UNL     1      -2.569   1.795  -2.743  0.00  0.00    +0.262 A 
ATOM      4  N   UNL     1      -1.984   2.307  -3.792  0.00  0.00    -0.039 NA
ATOM      5  O   UNL     1      -2.774   2.410  -4.707  0.00  0.00    -0.331 OA
ATOM      6  N   UNL     1      -1.972   1.534  -1.511  0.00  0.00    -0.249 N 
ATOM      7  C   UNL     1      -0.668   1.816  -1.322  0.00  0.00    +0.260 C 
ATOM      8  O   UNL     1      -0.014   2.296  -2.224  0.00  0.00    -0.271 OA
ATOM      9  H   UNL     1      -2.565   1.099  -0.694  0.00  0.00    +0.158 HD
ENDROOT
BRANCH   1  14
ATOM     10  C   UNL     1      -8.756   1.781  -7.526  0.00  0.00    +0.044 C 
ATOM     11  C   UNL     1      -7.505   1.828  -6.687  0.00  0.00    -0.050 A 
ATOM     12  C   UNL     1      -6.331   2.324  -7.227  0.00  0.00    +0.004 A 
ATOM     13  C   UNL     1      -5.183   2.370  -6.465  0.00  0.00    +0.013 A 
ATOM     14  C   UNL     1      -5.206   1.915  -5.146  0.00  0.00    +0.039 A 
ATOM     15  C   UNL     1      -6.391   1.411  -4.608  0.00  0.00    +0.013 A 
ATOM     16  C   UNL     1      -7.534   1.375  -5.380  0.00  0.00    +0.004 A 
ENDBRANCH   1  14
BRANCH   7  17
ATOM     17  C   UNL     1      -0.021   1.533   0.010  0.00  0.00    +0.256 C 
ATOM     18  C   UNL     1      -0.015   0.025   0.264  0.00  0.00    +0.062 C 
BRANCH  17  19
ATOM     19  O   UNL     1       1.322   2.020   0.000  0.00  0.00    -0.480 OA
BRANCH  19  20
ATOM     20  C   UNL     1       1.876   2.326   1.203  0.00  0.00    +0.122 A 
ATOM     21  C   UNL     1       1.182   2.063   2.375  0.00  0.00    +0.046 A 
ATOM     22  C   UNL     1       1.749   2.369   3.596  0.00  0.00    +0.008 A 
ATOM     23  C   UNL     1       3.003   2.950   3.651  0.00  0.00    -0.042 A 
ATOM     24  C   UNL     1       3.695   3.218   2.485  0.00  0.00    +0.008 A 
ATOM     25  C   UNL     1       3.134   2.908   1.261  0.00  0.00    +0.046 A 
BRANCH  23  26
ATOM     26  C   UNL     1       3.617   3.289   4.985  0.00  0.00    -0.013 C 
ATOM     27  C   UNL     1       3.889   4.793   5.053  0.00  0.00    +0.015 C 
ATOM     28  C   UNL     1       2.654   2.893   6.106  0.00  0.00    +0.015 C 
ATOM     29  C   UNL     1       4.933   2.525   5.150  0.00  0.00    +0.015 C 
ENDBRANCH  23  26
ENDBRANCH  19  20
ENDBRANCH  17  19
ENDBRANCH   7  17
TORSDOF 5
