REMARK  Name = ZINC08987563
REMARK  7 active torsions:
REMARK  status: ('A' for Active; 'I' for Inactive)
REMARK    1  A    between atoms: C_1  and  C_2
REMARK    2  A    between atoms: C_9  and  N_14
REMARK    3  A    between atoms: C_10  and  C_11
REMARK    4  A    between atoms: C_15  and  C_17
REMARK    5  A    between atoms: C_17  and  C_18
REMARK    6  A    between atoms: C_18  and  C_19
REMARK    7  A    between atoms: C_19  and  C_20
REMARK                            x       y       z     vdW  Elec       q    Type
REMARK                         _______ _______ _______ _____ _____    ______ ____
ROOT
ATOM      1  N   UNL     1      -2.304  -5.917   0.763  0.00  0.00    -0.279 N 
ATOM      2  C   UNL     1      -3.569  -6.205   0.396  0.00  0.00    +0.218 C 
ATOM      3  O   UNL     1      -4.297  -5.325  -0.013  0.00  0.00    -0.275 OA
ATOM      4  H   UNL     1      -1.722  -6.620   1.090  0.00  0.00    +0.155 HD
ENDROOT
BRANCH   1  12
ATOM      5  C   UNL     1      -0.019   1.526   0.010  0.00  0.00    +0.008 C 
ATOM      6  C   UNL     1       0.002  -0.004   0.002  0.00  0.00    -0.009 C 
ATOM      7  C   UNL     1       0.742  -0.514   1.242  0.00  0.00    +0.008 C 
ATOM      8  C   UNL     1       0.984  -2.020   1.121  0.00  0.00    +0.037 C 
ATOM      9  C   UNL     1      -0.340  -2.706   0.809  0.00  0.00    -0.023 A 
ATOM     10  C   UNL     1      -1.390  -2.006   0.327  0.00  0.00    -0.004 A 
ATOM     11  S   UNL     1      -2.678  -3.203   0.125  0.00  0.00    -0.077 S 
ATOM     12  C   UNL     1      -1.836  -4.615   0.673  0.00  0.00    +0.084 A 
ATOM     13  C   UNL     1      -0.579  -4.127   0.999  0.00  0.00    +0.068 A 
ATOM     14  C   UNL     1      -1.437  -0.538   0.030  0.00  0.00    +0.046 C 
BRANCH  13  15
ATOM     15  C   UNL     1       0.470  -5.011   1.517  0.00  0.00    +0.244 C 
ATOM     16  O   UNL     1       0.577  -5.192   2.716  0.00  0.00    -0.270 OA
ATOM     17  N   UNL     1       1.315  -5.624   0.665  0.00  0.00    -0.325 N 
ATOM     18  H   UNL     1       1.230  -5.480  -0.291  0.00  0.00    +0.145 HD
ATOM     19  H   UNL     1       2.009  -6.209   1.007  0.00  0.00    +0.145 HD
ENDBRANCH  13  15
ENDBRANCH   1  12
BRANCH   2  20
ATOM     20  C   UNL     1      -4.078  -7.620   0.494  0.00  0.00    +0.096 C 
BRANCH  20  21
ATOM     21  C   UNL     1      -5.532  -7.673   0.019  0.00  0.00    +0.014 C 
BRANCH  21  22
ATOM     22  C   UNL     1      -6.049  -9.110   0.118  0.00  0.00    +0.038 C 
BRANCH  22  23
ATOM     23  C   UNL     1      -7.480  -9.162  -0.349  0.00  0.00    -0.022 A 
ATOM     24  C   UNL     1      -8.576  -9.091   0.424  0.00  0.00    +0.087 A 
ATOM     25  N   UNL     1      -9.700  -9.172  -0.352  0.00  0.00    -0.360 N 
ATOM     26  H   UNL     1     -10.610  -9.144  -0.018  0.00  0.00    +0.165 HD
ATOM     27  C   UNL     1      -9.347  -9.299  -1.677  0.00  0.00    +0.047 A 
ATOM     28  C   UNL     1      -7.941  -9.292  -1.734  0.00  0.00    +0.003 A 
ATOM     29  C   UNL     1      -7.293  -9.402  -2.965  0.00  0.00    +0.010 A 
ATOM     30  C   UNL     1      -8.029  -9.512  -4.111  0.00  0.00    +0.001 A 
ATOM     31  C   UNL     1      -9.416  -9.515  -4.061  0.00  0.00    +0.002 A 
ATOM     32  C   UNL     1     -10.076  -9.416  -2.855  0.00  0.00    +0.026 A 
ENDBRANCH  22  23
ENDBRANCH  21  22
ENDBRANCH  20  21
ENDBRANCH   2  20
TORSDOF 6
