REMARK  Name = ZINC49284790
REMARK  7 active torsions:
REMARK  status: ('A' for Active; 'I' for Inactive)
REMARK    1  A    between atoms: C_1  and  C_2
REMARK    2  A    between atoms: C_2  and  C_4
REMARK    3  A    between atoms: C_2  and  N_10
REMARK    4  A    between atoms: N_13  and  C_14
REMARK    5  A    between atoms: C_14  and  C_16
REMARK    6  A    between atoms: C_14  and  C_17
REMARK    7  A    between atoms: N_19  and  C_20
REMARK                            x       y       z     vdW  Elec       q    Type
REMARK                         _______ _______ _______ _____ _____    ______ ____
ROOT
ATOM      1  N   UNL     1       0.711  -0.489   1.189  0.00  0.00    -0.292 N 
ATOM      2  C   UNL     1       2.054  -0.600   1.174  0.00  0.00    +0.301 C 
ATOM      3  O   UNL     1       2.677  -0.297   0.175  0.00  0.00    -0.253 OA
ATOM      4  N   UNL     1       2.706  -1.046   2.266  0.00  0.00    -0.288 N 
ATOM      5  H   UNL     1       0.213  -0.731   1.986  0.00  0.00    +0.151 HD
ATOM      6  H   UNL     1       2.208  -1.288   3.062  0.00  0.00    +0.151 HD
ENDROOT
BRANCH   1   8
ATOM      7  C   UNL     1      -0.019   1.526   0.010  0.00  0.00    +0.033 C 
ATOM      8  C   UNL     1       0.002  -0.004   0.002  0.00  0.00    +0.108 C 
BRANCH   8   9
ATOM      9  C   UNL     1      -1.412  -0.526   0.013  0.00  0.00    +0.011 A 
ATOM     10  C   UNL     1      -2.157  -0.992  -1.019  0.00  0.00    +0.014 A 
ATOM     11  C   UNL     1      -3.447  -1.424  -0.772  0.00  0.00    +0.028 A 
ATOM     12  C   UNL     1      -3.928  -1.369   0.495  0.00  0.00    +0.078 A 
ATOM     13  S   UNL     1      -2.536  -0.697   1.389  0.00  0.00    -0.080 S 
ATOM     14 CL   UNL     1      -5.489  -1.836   1.093  0.00  0.00    -0.076 Cl
ENDBRANCH   8   9
ENDBRANCH   1   8
BRANCH   4  15
ATOM     15  C   UNL     1       4.166  -1.166   2.249  0.00  0.00    +0.157 C 
ATOM     16  C   UNL     1       4.560  -2.515   1.643  0.00  0.00    +0.038 C 
BRANCH  15  17
ATOM     17  C   UNL     1       4.693  -1.075   3.658  0.00  0.00    +0.233 C 
ATOM     18  O   UNL     1       3.925  -0.925   4.584  0.00  0.00    -0.274 OA
ATOM     19  N   UNL     1       6.018  -1.161   3.888  0.00  0.00    -0.317 N 
ATOM     20  C   UNL     1       6.531  -1.073   5.258  0.00  0.00    +0.128 C 
ATOM     21  H   UNL     1       6.633  -1.281   3.147  0.00  0.00    +0.148 HD
ENDBRANCH  15  17
ENDBRANCH   4  15
TORSDOF 4
