REMARK  Name = ZINC35965533
REMARK  9 active torsions:
REMARK  status: ('A' for Active; 'I' for Inactive)
REMARK    1  A    between atoms: C_1  and  C_2
REMARK    2  A    between atoms: C_6  and  C_8
REMARK    3  A    between atoms: N_13  and  C_16
REMARK    4  A    between atoms: C_16  and  C_18
REMARK    5  A    between atoms: C_16  and  C_19
REMARK    6  A    between atoms: N_21  and  C_22
REMARK    7  A    between atoms: C_22  and  C_23
REMARK    8  A    between atoms: N_28  and  C_32
REMARK    9  A    between atoms: C_32  and  C_33
REMARK                            x       y       z     vdW  Elec       q    Type
REMARK                         _______ _______ _______ _____ _____    ______ ____
ROOT
ATOM      1  C   UNL     1       0.054  -2.845   2.489  0.00  0.00    +0.142 C 
ATOM      2  C   UNL     1       1.493  -3.200   2.804  0.00  0.00    +0.058 C 
ATOM      3  C   UNL     1       1.797  -4.505   2.956  0.00  0.00    +0.043 C 
ATOM      4  C   UNL     1       3.277  -4.564   3.258  0.00  0.00    +0.160 C 
ATOM      5  N   UNL     1       3.721  -3.163   3.250  0.00  0.00    -0.281 N 
ATOM      6  C   UNL     1       2.643  -2.405   2.980  0.00  0.00    +0.247 C 
ATOM      7  O   UNL     1       2.659  -1.190   2.898  0.00  0.00    -0.270 OA
ATOM      8  N   UNL     1       0.842  -5.474   2.831  0.00  0.00    -0.253 N 
ATOM      9  C   UNL     1      -0.443  -5.216   2.554  0.00  0.00    +0.307 C 
ATOM     10  O   UNL     1      -1.222  -6.145   2.463  0.00  0.00    -0.252 OA
ATOM     11  N   UNL     1      -0.899  -3.962   2.373  0.00  0.00    -0.288 N 
ATOM     12  H   UNL     1      -1.834  -3.798   2.173  0.00  0.00    +0.151 HD
ENDROOT
BRANCH   1  18
ATOM     13  C   UNL     1      -0.018   1.503   0.010  0.00  0.00    +0.044 C 
ATOM     14  C   UNL     1       0.002  -0.004   0.002  0.00  0.00    -0.050 A 
ATOM     15  C   UNL     1       0.006  -0.689  -1.199  0.00  0.00    +0.003 A 
ATOM     16  C   UNL     1       0.025  -2.071  -1.207  0.00  0.00    +0.001 A 
ATOM     17  C   UNL     1       0.040  -2.768  -0.013  0.00  0.00    +0.006 A 
ATOM     18  C   UNL     1       0.037  -2.084   1.188  0.00  0.00    -0.022 A 
ATOM     19  C   UNL     1       0.023  -0.702   1.195  0.00  0.00    +0.009 A 
ENDBRANCH   1  18
BRANCH   5  20
ATOM     20  C   UNL     1       5.084  -2.681   3.491  0.00  0.00    +0.159 C 
ATOM     21  C   UNL     1       5.580  -1.919   2.261  0.00  0.00    +0.038 C 
BRANCH  20  22
ATOM     22  C   UNL     1       5.088  -1.763   4.686  0.00  0.00    +0.234 C 
ATOM     23  O   UNL     1       4.055  -1.534   5.278  0.00  0.00    -0.274 OA
ATOM     24  N   UNL     1       6.240  -1.197   5.097  0.00  0.00    -0.307 N 
ATOM     25  H   UNL     1       7.067  -1.381   4.623  0.00  0.00    +0.149 HD
BRANCH  24  26
ATOM     26  C   UNL     1       6.245  -0.305   6.259  0.00  0.00    +0.178 C 
BRANCH  26  27
ATOM     27  C   UNL     1       7.646   0.191   6.506  0.00  0.00    +0.122 A 
ATOM     28  C   UNL     1       8.190   1.305   5.986  0.00  0.00    +0.046 A 
ATOM     29  C   UNL     1       9.513   1.385   6.479  0.00  0.00    +0.041 A 
ATOM     30  C   UNL     1       9.697   0.314   7.272  0.00  0.00    +0.195 A 
ATOM     31  O   UNL     1       8.562  -0.403   7.290  0.00  0.00    -0.466 OA
ENDBRANCH  26  27
ENDBRANCH  24  26
ENDBRANCH  20  22
ENDBRANCH   5  20
BRANCH   8  32
ATOM     32  C   UNL     1       1.246  -6.871   3.009  0.00  0.00    +0.141 C 
BRANCH  32  33
ATOM     33  C   UNL     1       1.104  -7.253   4.460  0.00  0.00    -0.015 C 
ATOM     34  C   UNL     1       0.380  -8.292   4.796  0.00  0.00    +0.005 C 
ENDBRANCH  32  33
ENDBRANCH   8  32
TORSDOF 7
