REMARK  Name = ZINC49886021
REMARK  4 active torsions:
REMARK  status: ('A' for Active; 'I' for Inactive)
REMARK    1  A    between atoms: C_1  and  C_2
REMARK    2  A    between atoms: N_5  and  S_8
REMARK    3  A    between atoms: S_8  and  C_11
REMARK    4  A    between atoms: C_14  and  C_17
REMARK                            x       y       z     vdW  Elec       q    Type
REMARK                         _______ _______ _______ _____ _____    ______ ____
ROOT
ATOM      1  S   UNL     1      -1.173  -3.668   2.148  0.00  0.00    +0.061 S 
ATOM      2  O   UNL     1      -0.421  -3.521   3.344  0.00  0.00    -0.153 OA
ATOM      3  O   UNL     1      -2.589  -3.544   2.119  0.00  0.00    -0.153 OA
ENDROOT
BRANCH   1   8
ATOM      4  C   UNL     1      -0.019   1.526   0.010  0.00  0.00    +0.007 C 
ATOM      5  C   UNL     1       0.002  -0.004   0.002  0.00  0.00    -0.012 C 
ATOM      6  C   UNL     1      -1.434  -0.533   0.011  0.00  0.00    +0.020 C 
ATOM      7  C   UNL     1      -1.409  -2.065  -0.032  0.00  0.00    +0.110 C 
ATOM      8  N   UNL     1      -0.578  -2.556   1.075  0.00  0.00    -0.177 NA
ATOM      9  C   UNL     1       0.791  -2.042   1.212  0.00  0.00    +0.110 C 
ATOM     10  C   UNL     1       0.742  -0.511   1.242  0.00  0.00    +0.020 C 
ENDBRANCH   1   8
BRANCH   1  11
ATOM     11  C   UNL     1      -0.795  -5.265   1.507  0.00  0.00    +0.105 A 
ATOM     12  C   UNL     1      -1.686  -5.900   0.662  0.00  0.00    +0.029 A 
ATOM     13  C   UNL     1      -1.388  -7.153   0.159  0.00  0.00    +0.007 A 
ATOM     14  C   UNL     1      -0.200  -7.771   0.501  0.00  0.00    -0.033 A 
ATOM     15  C   UNL     1       0.691  -7.136   1.346  0.00  0.00    +0.007 A 
ATOM     16  C   UNL     1       0.396  -5.881   1.845  0.00  0.00    +0.029 A 
BRANCH  14  17
ATOM     17  C   UNL     1       0.123  -9.137  -0.046  0.00  0.00    +0.143 C 
ATOM     18 CL   UNL     1       1.011  -8.965  -1.606  0.00  0.00    -0.120 Cl
ENDBRANCH  14  17
ENDBRANCH   1  11
TORSDOF 3
