REMARK  Name = ZINC37506303
REMARK  2 active torsions:
REMARK  status: ('A' for Active; 'I' for Inactive)
REMARK    1  A    between atoms: C_2  and  C_8
REMARK    2  A    between atoms: C_3  and  N_7
REMARK                            x       y       z     vdW  Elec       q    Type
REMARK                         _______ _______ _______ _____ _____    ______ ____
ROOT
ATOM      1  C   UNL     1       1.765   3.158   0.002  0.00  0.00    +0.251 C 
ATOM      2  O   UNL     1       2.950   3.421   0.092  0.00  0.00    -0.270 OA
ATOM      3  N   UNL     1       0.859   4.152  -0.086  0.00  0.00    -0.297 N 
ATOM      4  C   UNL     1      -0.581   3.857  -0.069  0.00  0.00    +0.108 C 
ATOM      5  C   UNL     1      -1.240   4.692   1.033  0.00  0.00    +0.023 C 
ATOM      6  C   UNL     1      -0.906   6.170   0.818  0.00  0.00    -0.005 C 
ATOM      7  C   UNL     1      -1.593   7.004   1.902  0.00  0.00    +0.004 C 
ATOM      8  C   UNL     1      -1.260   8.483   1.699  0.00  0.00    +0.000 C 
ATOM      9  C   UNL     1       0.254   8.681   1.789  0.00  0.00    +0.000 C 
ATOM     10  C   UNL     1       0.940   7.851   0.702  0.00  0.00    +0.005 C 
ATOM     11  C   UNL     1       0.609   6.370   0.899  0.00  0.00    +0.010 C 
ATOM     12  C   UNL     1       1.290   5.552  -0.194  0.00  0.00    +0.112 C 
ENDROOT
BRANCH   1  14
ATOM     13  C   UNL     1       0.296   1.207  -0.814  0.00  0.00    +0.149 A 
ATOM     14  C   UNL     1       1.323   1.758  -0.011  0.00  0.00    +0.095 A 
ATOM     15  C   UNL     1       1.835   0.720   0.763  0.00  0.00    +0.124 A 
ATOM     16  N   UNL     1       1.148  -0.394   0.438  0.00  0.00    -0.264 N 
ATOM     17  H   UNL     1       1.285  -1.275   0.818  0.00  0.00    +0.190 HD
ATOM     18  N   UNL     1       0.203  -0.063  -0.539  0.00  0.00    -0.180 NA
BRANCH  15  19
ATOM     19  N   UNL     1       2.855   0.814   1.688  0.00  0.00    -0.343 N 
ATOM     20  H   UNL     1       3.287   1.667   1.849  0.00  0.00    +0.144 HD
ATOM     21  H   UNL     1       3.139   0.026   2.178  0.00  0.00    +0.144 HD
ENDBRANCH  15  19
ENDBRANCH   1  14
TORSDOF 2
