REMARK  Name = ZINC59318104
REMARK  6 active torsions:
REMARK  status: ('A' for Active; 'I' for Inactive)
REMARK    1  A    between atoms: C_1  and  C_2
REMARK    2  A    between atoms: C_2  and  C_3
REMARK    3  A    between atoms: C_13  and  C_15
REMARK    4  A    between atoms: C_15  and  O_16
REMARK    5  A    between atoms: O_16  and  C_17
REMARK    6  A    between atoms: C_20  and  N_23
REMARK                            x       y       z     vdW  Elec       q    Type
REMARK                         _______ _______ _______ _____ _____    ______ ____
ROOT
ATOM      1  C   UNL     1      -1.433  -0.534   0.013  0.00  0.00    -0.006 C 
ATOM      2  C   UNL     1      -1.416  -2.061   0.124  0.00  0.00    +0.010 C 
ATOM      3  C   UNL     1      -2.830  -2.586   0.382  0.00  0.00    +0.056 C 
ATOM      4  C   UNL     1      -3.763  -2.014  -0.676  0.00  0.00    +0.054 A 
ATOM      5  C   UNL     1      -3.403  -0.921  -1.396  0.00  0.00    +0.015 A 
ATOM      6  S   UNL     1      -4.801  -0.679  -2.456  0.00  0.00    -0.057 S 
ATOM      7  C   UNL     1      -5.723  -1.977  -1.902  0.00  0.00    +0.165 A 
ATOM      8  N   UNL     1      -4.959  -2.513  -0.976  0.00  0.00    -0.229 NA
ATOM      9  N   UNL     1      -6.985  -2.382  -2.322  0.00  0.00    -0.262 N 
ATOM     10  C   UNL     1      -7.571  -3.455  -1.756  0.00  0.00    +0.256 C 
ATOM     11  O   UNL     1      -6.998  -4.068  -0.880  0.00  0.00    -0.272 OA
ATOM     12  C   UNL     1      -2.139  -0.136  -1.294  0.00  0.00    +0.048 C 
ATOM     13  H   UNL     1      -7.444  -1.892  -3.022  0.00  0.00    +0.157 HD
ENDROOT
BRANCH   1  15
ATOM     14  C   UNL     1      -0.019   1.526   0.010  0.00  0.00    +0.004 C 
ATOM     15  C   UNL     1       0.002  -0.004   0.002  0.00  0.00    +0.000 C 
ENDBRANCH   1  15
BRANCH  10  16
ATOM     16  C   UNL     1      -8.939  -3.894  -2.211  0.00  0.00    +0.324 C 
BRANCH  16  17
ATOM     17  O   UNL     1      -9.342  -5.045  -1.466  0.00  0.00    -0.483 OA
BRANCH  17  18
ATOM     18  C   UNL     1     -10.561  -5.572  -1.756  0.00  0.00    +0.121 A 
ATOM     19  C   UNL     1     -11.351  -4.996  -2.740  0.00  0.00    +0.048 A 
ATOM     20  C   UNL     1     -12.589  -5.533  -3.033  0.00  0.00    +0.036 A 
ATOM     21  C   UNL     1     -13.042  -6.644  -2.345  0.00  0.00    +0.126 A 
ATOM     22  C   UNL     1     -12.258  -7.220  -1.363  0.00  0.00    +0.036 A 
ATOM     23  C   UNL     1     -11.016  -6.690  -1.071  0.00  0.00    +0.048 A 
BRANCH  21  24
ATOM     24  N   UNL     1     -14.370  -7.218  -2.661  0.00  0.00    +0.056 N 
ATOM     25  O   UNL     1     -15.057  -6.715  -3.519  0.00  0.00    -0.126 OA
ATOM     26  O   UNL     1     -14.767  -8.189  -2.061  0.00  0.00    -0.126 OA
ENDBRANCH  21  24
ENDBRANCH  17  18
ENDBRANCH  16  17
ENDBRANCH  10  16
TORSDOF 5
