REMARK  Name = ZINC00906504
REMARK  11 active torsions:
REMARK  status: ('A' for Active; 'I' for Inactive)
REMARK    1  A    between atoms: C_1  and  C_2
REMARK    2  A    between atoms: C_5  and  S_13
REMARK    3  A    between atoms: N_6  and  C_7
REMARK    4  A    between atoms: C_7  and  C_8
REMARK    5  A    between atoms: S_13  and  C_14
REMARK    6  A    between atoms: C_14  and  C_15
REMARK    7  A    between atoms: N_17  and  C_18
REMARK    8  A    between atoms: N_17  and  C_24
REMARK    9  A    between atoms: C_24  and  C_26
REMARK   10  A    between atoms: C_24  and  C_33
REMARK   11  A    between atoms: N_35  and  C_36
REMARK                            x       y       z     vdW  Elec       q    Type
REMARK                         _______ _______ _______ _____ _____    ______ ____
ROOT
ATOM      1  C   UNL     1      -0.283  -6.410   1.065  0.00  0.00    +0.231 C 
ATOM      2  O   UNL     1       0.083  -6.431   2.221  0.00  0.00    -0.274 OA
ATOM      3  N   UNL     1      -0.289  -7.545   0.339  0.00  0.00    -0.255 N 
ENDROOT
BRANCH   3   4
ATOM      4  C   UNL     1      -0.612  -7.504  -1.022  0.00  0.00    +0.037 A 
ATOM      5  C   UNL     1      -1.806  -8.051  -1.471  0.00  0.00    +0.023 A 
ATOM      6  C   UNL     1      -2.122  -8.008  -2.815  0.00  0.00    +0.002 A 
ATOM      7  C   UNL     1      -1.249  -7.422  -3.713  0.00  0.00    +0.000 A 
ATOM      8  C   UNL     1      -0.058  -6.877  -3.270  0.00  0.00    +0.002 A 
ATOM      9  C   UNL     1       0.260  -6.910  -1.926  0.00  0.00    +0.023 A 
ENDBRANCH   3   4
BRANCH   1  10
ATOM     10  C   UNL     1      -0.732  -5.113   0.440  0.00  0.00    +0.173 C 
BRANCH  10  11
ATOM     11  S   UNL     1      -0.760  -3.812   1.703  0.00  0.00    -0.077 S 
BRANCH  11  16
ATOM     12  C   UNL     1      -2.232   1.116   0.363  0.00  0.00    +0.088 C 
ATOM     13  C   UNL     1      -1.897  -0.352   0.303  0.00  0.00    +0.131 A 
ATOM     14  N   UNL     1      -1.951  -1.114  -0.752  0.00  0.00    -0.134 NA
ATOM     15  N   UNL     1      -1.598  -2.313  -0.449  0.00  0.00    -0.122 NA
ATOM     16  C   UNL     1      -1.297  -2.380   0.827  0.00  0.00    +0.192 A 
ATOM     17  N   UNL     1      -1.473  -1.129   1.346  0.00  0.00    -0.299 N 
BRANCH  17  18
ATOM     18  C   UNL     1      -1.257  -0.709   2.732  0.00  0.00    +0.199 C 
BRANCH  18  19
ATOM     19  C   UNL     1      -2.532  -0.886   3.516  0.00  0.00    +0.125 A 
ATOM     20  C   UNL     1      -2.893  -1.992   4.191  0.00  0.00    +0.046 A 
ATOM     21  C   UNL     1      -4.153  -1.723   4.774  0.00  0.00    +0.041 A 
ATOM     22  C   UNL     1      -4.486  -0.468   4.421  0.00  0.00    +0.195 A 
ATOM     23  O   UNL     1      -3.498   0.036   3.664  0.00  0.00    -0.466 OA
ENDBRANCH  18  19
ENDBRANCH  17  18
ENDBRANCH  11  16
ENDBRANCH  10  11
ENDBRANCH   1  10
BRANCH   3  24
ATOM     24  C   UNL     1       0.042  -8.823   0.974  0.00  0.00    +0.197 C 
BRANCH  24  25
ATOM     25  C   UNL     1      -0.179  -9.944  -0.007  0.00  0.00    -0.018 A 
ATOM     26  C   UNL     1       0.496  -9.950  -1.214  0.00  0.00    +0.007 A 
ATOM     27  C   UNL     1       0.293 -10.979  -2.114  0.00  0.00    +0.020 A 
ATOM     28  C   UNL     1      -0.585 -12.003  -1.808  0.00  0.00    +0.041 A 
ATOM     29  C   UNL     1      -1.261 -11.996  -0.601  0.00  0.00    +0.020 A 
ATOM     30  C   UNL     1      -1.053 -10.970   0.301  0.00  0.00    +0.007 A 
ATOM     31 CL   UNL     1      -0.841 -13.295  -2.939  0.00  0.00    -0.084 Cl
ENDBRANCH  24  25
BRANCH  24  32
ATOM     32  C   UNL     1       1.486  -8.810   1.405  0.00  0.00    +0.239 C 
ATOM     33  O   UNL     1       2.171  -7.830   1.201  0.00  0.00    -0.273 OA
ATOM     34  N   UNL     1       2.017  -9.887   2.017  0.00  0.00    -0.311 N 
ATOM     35  H   UNL     1       1.469 -10.671   2.180  0.00  0.00    +0.149 HD
BRANCH  34  36
ATOM     36  C   UNL     1       3.420  -9.875   2.436  0.00  0.00    +0.073 C 
ATOM     37  C   UNL     1       4.307 -10.289   1.260  0.00  0.00    +0.022 C 
ATOM     38  C   UNL     1       5.773 -10.276   1.697  0.00  0.00    +0.002 C 
ATOM     39  C   UNL     1       5.969 -11.258   2.854  0.00  0.00    +0.000 C 
ATOM     40  C   UNL     1       5.082 -10.843   4.030  0.00  0.00    +0.002 C 
ATOM     41  C   UNL     1       3.616 -10.856   3.593  0.00  0.00    +0.022 C 
ENDBRANCH  34  36
ENDBRANCH  24  32
ENDBRANCH   3  24
TORSDOF 10
