REMARK  Name = ZINC44452921
REMARK  6 active torsions:
REMARK  status: ('A' for Active; 'I' for Inactive)
REMARK    1  A    between atoms: C_1  and  C_2
REMARK    2  A    between atoms: N_4  and  N_5
REMARK    3  A    between atoms: C_6  and  C_8
REMARK    4  A    between atoms: C_12  and  N_13
REMARK    5  A    between atoms: C_14  and  C_16
REMARK    6  A    between atoms: C_21  and  N_22
REMARK                            x       y       z     vdW  Elec       q    Type
REMARK                         _______ _______ _______ _____ _____    ______ ____
ROOT
ATOM      1  C   UNL     1       0.211  -5.279  -3.383  0.00  0.00    +0.070 A 
ATOM      2  C   UNL     1      -0.884  -6.239  -3.403  0.00  0.00    -0.023 A 
ATOM      3  C   UNL     1      -0.520  -7.491  -3.057  0.00  0.00    -0.004 A 
ATOM      4  S   UNL     1       1.218  -7.383  -2.734  0.00  0.00    -0.077 S 
ATOM      5  C   UNL     1       1.465  -5.750  -3.034  0.00  0.00    +0.085 A 
ATOM      6  C   UNL     1      -1.393  -8.703  -2.957  0.00  0.00    +0.043 C 
ATOM      7  C   UNL     1      -2.243  -8.818  -4.229  0.00  0.00    +0.005 C 
ATOM      8  C   UNL     1      -3.540  -8.042  -4.020  0.00  0.00    +0.001 C 
ATOM      9  C   UNL     1      -3.291  -6.829  -3.126  0.00  0.00    +0.005 C 
ATOM     10  C   UNL     1      -2.308  -5.869  -3.791  0.00  0.00    +0.037 C 
ENDROOT
BRANCH   1  12
ATOM     11  N   UNL     1      -0.327  -2.984  -2.763  0.00  0.00    -0.230 N 
ATOM     12  C   UNL     1      -0.005  -3.870  -3.726  0.00  0.00    +0.263 C 
ATOM     13  O   UNL     1       0.107  -3.501  -4.881  0.00  0.00    -0.269 OA
ATOM     14  H   UNL     1      -0.417  -3.278  -1.843  0.00  0.00    +0.173 HD
BRANCH  11  18
ATOM     15  C   UNL     1      -1.078   0.697  -2.481  0.00  0.00    +0.110 C 
ATOM     16  C   UNL     1      -0.856  -0.751  -2.128  0.00  0.00    +0.226 C 
ATOM     17  O   UNL     1      -0.968  -1.119  -0.978  0.00  0.00    -0.275 OA
ATOM     18  N   UNL     1      -0.534  -1.637  -3.091  0.00  0.00    -0.234 N 
ATOM     19  H   UNL     1      -0.445  -1.343  -4.011  0.00  0.00    +0.173 HD
ENDBRANCH  11  18
ENDBRANCH   1  12
BRANCH   5  20
ATOM     20  N   UNL     1       2.650  -5.038  -2.949  0.00  0.00    -0.275 N 
ATOM     21  C   UNL     1       3.788  -5.664  -2.590  0.00  0.00    +0.251 C 
ATOM     22  O   UNL     1       3.775  -6.853  -2.340  0.00  0.00    -0.270 OA
ATOM     23  H   UNL     1       2.660  -4.088  -3.148  0.00  0.00    +0.156 HD
BRANCH  21  24
ATOM     24  C   UNL     1       5.053  -4.904  -2.499  0.00  0.00    +0.069 A 
ATOM     25  C   UNL     1       5.505  -4.164  -3.593  0.00  0.00    +0.035 A 
ATOM     26  C   UNL     1       6.687  -3.456  -3.501  0.00  0.00    +0.042 A 
ATOM     27  C   UNL     1       7.422  -3.479  -2.328  0.00  0.00    +0.022 A 
ATOM     28  C   UNL     1       6.978  -4.211  -1.241  0.00  0.00    +0.035 A 
ATOM     29  C   UNL     1       5.796  -4.918  -1.318  0.00  0.00    +0.138 A 
ATOM     30 CL   UNL     1       7.253  -2.535  -4.860  0.00  0.00    -0.084 Cl
BRANCH  29  31
ATOM     31  N   UNL     1       5.319  -5.694  -0.151  0.00  0.00    +0.057 N 
ATOM     32  O   UNL     1       6.021  -5.808   0.827  0.00  0.00    -0.126 OA
ATOM     33  O   UNL     1       4.229  -6.216  -0.177  0.00  0.00    -0.126 OA
ENDBRANCH  29  31
ENDBRANCH  21  24
ENDBRANCH   5  20
TORSDOF 5
