REMARK  Name = ZINC33033623
REMARK  9 active torsions:
REMARK  status: ('A' for Active; 'I' for Inactive)
REMARK    1  A    between atoms: C_1  and  C_2
REMARK    2  A    between atoms: C_2  and  C_3
REMARK    3  A    between atoms: C_3  and  C_4
REMARK    4  A    between atoms: C_7  and  S_10
REMARK    5  A    between atoms: S_10  and  N_13
REMARK    6  A    between atoms: N_13  and  C_14
REMARK    7  A    between atoms: C_16  and  C_26
REMARK    8  A    between atoms: C_19  and  N_20
REMARK    9  A    between atoms: C_32  and  C_35
REMARK                            x       y       z     vdW  Elec       q    Type
REMARK                         _______ _______ _______ _____ _____    ______ ____
ROOT
ATOM      1  C   UNL     1      -6.331  -0.760  -2.853  0.00  0.00    +0.070 A 
ATOM      2  C   UNL     1      -4.968  -0.534  -2.857  0.00  0.00    +0.039 A 
ATOM      3  C   UNL     1      -4.384   0.218  -1.834  0.00  0.00    +0.039 A 
ATOM      4  C   UNL     1      -5.180   0.735  -0.808  0.00  0.00    +0.015 A 
ATOM      5  C   UNL     1      -6.539   0.511  -0.810  0.00  0.00    +0.026 A 
ATOM      6  C   UNL     1      -7.122  -0.236  -1.827  0.00  0.00    +0.052 A 
ENDROOT
BRANCH   3   7
ATOM      7  C   UNL     1      -2.929   0.463  -1.834  0.00  0.00    +0.247 C 
ATOM      8  O   UNL     1      -2.286   0.303  -0.815  0.00  0.00    -0.270 OA
ATOM      9  N   UNL     1      -2.313   0.862  -2.964  0.00  0.00    -0.297 N 
ATOM     10  C   UNL     1      -3.062   0.983  -4.223  0.00  0.00    +0.108 C 
ATOM     11  C   UNL     1      -2.848   2.389  -4.790  0.00  0.00    +0.019 C 
ATOM     12  C   UNL     1      -1.347   2.659  -4.924  0.00  0.00    +0.006 C 
ATOM     13  C   UNL     1      -0.690   2.590  -3.543  0.00  0.00    +0.003 C 
ATOM     14  C   UNL     1      -0.880   1.186  -2.961  0.00  0.00    +0.111 C 
ATOM     15  C   UNL     1       0.804   2.892  -3.673  0.00  0.00    +0.009 C 
ENDBRANCH   3   7
BRANCH   6  16
ATOM     16  N   UNL     1      -8.496  -0.465  -1.822  0.00  0.00    -0.332 N 
ATOM     17  C   UNL     1      -9.096  -0.045  -0.548  0.00  0.00    +0.086 C 
ATOM     18  C   UNL     1     -10.588  -0.384  -0.553  0.00  0.00    -0.063 C 
ATOM     19  N   UNL     1     -11.238   0.292  -1.684  0.00  0.00    +0.381 N 
ATOM     20  C   UNL     1     -10.639  -0.128  -2.959  0.00  0.00    -0.063 C 
ATOM     21  C   UNL     1      -9.146   0.212  -2.954  0.00  0.00    +0.086 C 
ATOM     22  H   UNL     1     -12.308   0.039  -1.697  0.00  0.00    -0.086 HD
ATOM     23  H   UNL     1     -11.119   1.380  -1.579  0.00  0.00    -0.086 HD
ENDBRANCH   6  16
BRANCH   1  24
ATOM     24  N   UNL     1      -6.920  -1.514  -3.876  0.00  0.00    -0.214 N 
ATOM     25  H   UNL     1      -7.350  -1.008  -4.753  0.00  0.00    +0.174 HD
BRANCH  24  26
ATOM     26  S   UNL     1      -6.967  -3.165  -3.766  0.00  0.00    +0.072 S 
ATOM     27  O   UNL     1      -7.648  -3.630  -4.924  0.00  0.00    -0.150 OA
ATOM     28  O   UNL     1      -5.652  -3.588  -3.435  0.00  0.00    -0.150 OA
BRANCH  26  32
ATOM     29  C   UNL     1      -9.590  -4.196  -0.223  0.00  0.00    -0.047 A 
ATOM     30  C   UNL     1     -10.149  -4.058  -1.480  0.00  0.00    +0.005 A 
ATOM     31  C   UNL     1      -9.348  -3.743  -2.562  0.00  0.00    +0.029 A 
ATOM     32  C   UNL     1      -7.988  -3.566  -2.387  0.00  0.00    +0.109 A 
ATOM     33  C   UNL     1      -7.428  -3.709  -1.131  0.00  0.00    +0.029 A 
ATOM     34  C   UNL     1      -8.230  -4.019  -0.049  0.00  0.00    +0.005 A 
BRANCH  29  35
ATOM     35  C   UNL     1     -10.463  -4.537   0.956  0.00  0.00    +0.035 C 
BRANCH  35  37
ATOM     36  C   UNL     1     -11.432  -6.405   2.304  0.00  0.00    +0.004 C 
ATOM     37  C   UNL     1     -10.545  -6.058   1.107  0.00  0.00    +0.001 C 
ENDBRANCH  35  37
ENDBRANCH  29  35
ENDBRANCH  26  32
ENDBRANCH  24  26
ENDBRANCH   1  24
TORSDOF 7
