REMARK  Name = ZINC09459787
REMARK  15 active torsions:
REMARK  status: ('A' for Active; 'I' for Inactive)
REMARK    1  A    between atoms: C_1  and  C_2
REMARK    2  A    between atoms: C_2  and  N_69
REMARK    3  A    between atoms: C_3  and  C_4
REMARK    4  A    between atoms: C_3  and  N_69
REMARK    5  A    between atoms: C_5  and  C_6
REMARK    6  A    between atoms: C_5  and  N_69
REMARK    7  A    between atoms: C_6  and  C_7
REMARK    8  A    between atoms: C_7  and  N_8
REMARK    9  A    between atoms: C_9  and  C_29
REMARK   10  A    between atoms: C_11  and  C_16
REMARK   11  A    between atoms: C_12  and  O_15
REMARK   12  A    between atoms: C_16  and  C_18
REMARK   13  A    between atoms: C_25  and  C_28
REMARK   14  A    between atoms: C_33  and  O_35
REMARK   15  A    between atoms: O_35  and  C_36
REMARK                            x       y       z     vdW  Elec       q    Type
REMARK                         _______ _______ _______ _____ _____    ______ ____
ROOT
ATOM      1  N   UNL     1       1.842   0.963   0.298  0.00  0.00    -0.284 N 
ATOM      2  C   UNL     1       1.399  -0.394  -0.040  0.00  0.00    +0.145 C 
ATOM      3  C   UNL     1      -0.112  -0.353  -0.052  0.00  0.00    +0.071 C 
ATOM      4  C   UNL     1      -0.470   0.915   0.252  0.00  0.00    +0.188 C 
ATOM      5  C   UNL     1       0.747   1.726   0.468  0.00  0.00    +0.282 C 
ATOM      6  O   UNL     1       0.756   2.906   0.756  0.00  0.00    -0.267 OA
ENDROOT
BRANCH   2   7
ATOM      7  C   UNL     1       1.918  -0.785  -1.399  0.00  0.00    -0.019 A 
ATOM      8  C   UNL     1       2.453  -2.045  -1.598  0.00  0.00    +0.006 A 
ATOM      9  C   UNL     1       2.930  -2.407  -2.844  0.00  0.00    +0.004 A 
ATOM     10  C   UNL     1       2.873  -1.510  -3.894  0.00  0.00    +0.045 A 
ATOM     11  C   UNL     1       2.336  -0.247  -3.697  0.00  0.00    +0.120 A 
ATOM     12  C   UNL     1       1.853   0.112  -2.447  0.00  0.00    +0.051 A 
BRANCH  11  13
ATOM     13  O   UNL     1       2.279   0.637  -4.728  0.00  0.00    -0.495 OA
ATOM     14  C   UNL     1       2.791   0.197  -5.988  0.00  0.00    +0.277 C 
ENDBRANCH  11  13
ENDBRANCH   2   7
BRANCH   4  15
ATOM     15  O   UNL     1      -1.741   1.371   0.339  0.00  0.00    -0.502 OA
ATOM     16  H   UNL     1      -1.732   2.342   0.578  0.00  0.00    +0.292 HD
ENDBRANCH   4  15
BRANCH   3  17
ATOM     17  C   UNL     1      -1.015  -1.473  -0.338  0.00  0.00    +0.195 C 
ATOM     18  O   UNL     1      -1.731  -1.441  -1.321  0.00  0.00    -0.287 OA
BRANCH  17  19
ATOM     19  C   UNL     1      -1.054  -2.639   0.566  0.00  0.00    +0.023 A 
ATOM     20  C   UNL     1      -0.316  -2.635   1.754  0.00  0.00    +0.015 A 
ATOM     21  C   UNL     1      -0.355  -3.720   2.596  0.00  0.00    +0.046 A 
ATOM     22  C   UNL     1      -1.122  -4.841   2.270  0.00  0.00    +0.124 A 
ATOM     23  C   UNL     1      -1.856  -4.838   1.086  0.00  0.00    -0.002 A 
ATOM     24  C   UNL     1      -1.827  -3.758   0.240  0.00  0.00    +0.019 A 
ATOM     25  C   UNL     1      -2.590  -6.164   1.017  0.00  0.00    +0.083 C 
ATOM     26  C   UNL     1      -2.470  -6.672   2.474  0.00  0.00    +0.175 C 
ATOM     27  O   UNL     1      -1.284  -6.010   2.945  0.00  0.00    -0.488 OA
ATOM     28  C   UNL     1      -2.291  -8.191   2.505  0.00  0.00    +0.052 C 
ENDBRANCH  17  19
ENDBRANCH   3  17
BRANCH   1  29
ATOM     29  C   UNL     1       3.231   1.409   0.428  0.00  0.00    +0.107 C 
BRANCH  29  30
ATOM     30  C   UNL     1       3.692   2.033  -0.891  0.00  0.00    +0.000 C 
BRANCH  30  31
ATOM     31  C   UNL     1       5.095   2.617  -0.716  0.00  0.00    -0.077 C 
BRANCH  31  32
ATOM     32  N   UNL     1       5.487   3.291  -1.972  0.00  0.00    +0.379 N 
ATOM     33  H   UNL     1       5.200   2.708  -2.767  0.00  0.00    -0.082 HD
BRANCH  32  35
ATOM     34  C   UNL     1       5.059   5.177  -3.469  0.00  0.00    -0.017 C 
ATOM     35  C   UNL     1       4.816   4.604  -2.071  0.00  0.00    -0.082 C 
ENDBRANCH  32  35
BRANCH  32  36
ATOM     36  C   UNL     1       6.954   3.469  -2.013  0.00  0.00    -0.082 C 
ATOM     37  C   UNL     1       7.601   2.131  -2.376  0.00  0.00    -0.017 C 
ENDBRANCH  32  36
ENDBRANCH  31  32
ENDBRANCH  30  31
ENDBRANCH  29  30
ENDBRANCH   1  29
TORSDOF 11
