REMARK  Name = ZINC57992685
REMARK  9 active torsions:
REMARK  status: ('A' for Active; 'I' for Inactive)
REMARK    1  A    between atoms: C_1  and  C_2
REMARK    2  A    between atoms: C_2  and  N_3
REMARK    3  A    between atoms: N_3  and  C_4
REMARK    4  A    between atoms: N_3  and  C_6
REMARK    5  A    between atoms: C_4  and  C_5
REMARK    6  A    between atoms: C_9  and  N_13
REMARK    7  A    between atoms: C_10  and  C_12
REMARK    8  A    between atoms: C_14  and  C_16
REMARK    9  A    between atoms: N_32  and  C_35
REMARK                            x       y       z     vdW  Elec       q    Type
REMARK                         _______ _______ _______ _____ _____    ______ ____
ROOT
ATOM      1  C   UNL     1       0.908  -8.292  -0.360  0.00  0.00    +0.111 C 
ATOM      2  C   UNL     1      -0.554  -8.814  -0.348  0.00  0.00    +0.034 C 
ATOM      3  C   UNL     1      -0.394 -10.184   0.352  0.00  0.00    +0.059 C 
ATOM      4  C   UNL     1      -1.706 -10.544   1.068  0.00  0.00    +0.020 C 
ATOM      5  C   UNL     1      -1.361 -10.535   2.574  0.00  0.00    +0.017 C 
ATOM      6  C   UNL     1      -0.114  -9.619   2.638  0.00  0.00    +0.086 C 
ATOM      7  N   UNL     1       0.647  -9.962   1.389  0.00  0.00    -0.282 NA
ATOM      8  C   UNL     1       1.476  -8.823   0.965  0.00  0.00    +0.138 C 
ATOM      9  C   UNL     1       2.920  -9.220   0.808  0.00  0.00    +0.004 A 
ATOM     10  C   UNL     1       3.564 -10.145   0.018  0.00  0.00    +0.008 A 
ATOM     11  C   UNL     1       4.938 -10.286   0.098  0.00  0.00    +0.000 A 
ATOM     12  C   UNL     1       5.661  -9.496   0.974  0.00  0.00    +0.002 A 
ATOM     13  C   UNL     1       5.019  -8.569   1.768  0.00  0.00    +0.024 A 
ATOM     14  C   UNL     1       3.636  -8.420   1.693  0.00  0.00    +0.041 A 
ATOM     15  N   UNL     1       2.771  -7.566   2.380  0.00  0.00    -0.272 N 
ATOM     16  C   UNL     1       1.488  -7.739   2.012  0.00  0.00    +0.245 C 
ATOM     17  O   UNL     1       0.525  -7.138   2.441  0.00  0.00    -0.273 OA
ATOM     18  C   UNL     1       3.209  -6.596   3.386  0.00  0.00    +0.138 C 
ENDROOT
BRANCH   1  20
ATOM     19  N   UNL     1       1.982  -6.142  -0.946  0.00  0.00    -0.285 N 
ATOM     20  C   UNL     1       0.938  -6.786  -0.388  0.00  0.00    +0.223 C 
ATOM     21  O   UNL     1       0.021  -6.152   0.092  0.00  0.00    -0.275 OA
ATOM     22  H   UNL     1       2.686  -6.647  -1.383  0.00  0.00    +0.155 HD
BRANCH  19  26
ATOM     23  C   UNL     1       2.189  -1.984  -0.792  0.00  0.00    +0.014 A 
ATOM     24  C   UNL     1       0.962  -2.610  -0.913  0.00  0.00    +0.023 A 
ATOM     25  C   UNL     1       0.890  -3.988  -0.964  0.00  0.00    +0.025 A 
ATOM     26  C   UNL     1       2.052  -4.746  -0.895  0.00  0.00    +0.036 A 
ATOM     27  C   UNL     1       3.283  -4.114  -0.774  0.00  0.00    -0.028 A 
ATOM     28  C   UNL     1       3.348  -2.736  -0.728  0.00  0.00    +0.026 A 
ATOM     29  C   UNL     1       4.546  -4.933  -0.699  0.00  0.00    +0.046 C 
BRANCH  23  30
ATOM     30  N   UNL     1       2.259  -0.589  -0.741  0.00  0.00    -0.394 NA
ATOM     31  H   UNL     1       3.223  -0.303  -0.657  0.00  0.00    +0.126 HD
BRANCH  30  33
ATOM     32  C   UNL     1       1.874   1.494  -1.969  0.00  0.00    +0.022 C 
ATOM     33  C   UNL     1       1.685  -0.024  -1.969  0.00  0.00    +0.081 C 
ENDBRANCH  30  33
BRANCH  30  34
ATOM     34  C   UNL     1       1.502  -0.103   0.421  0.00  0.00    +0.081 C 
ATOM     35  C   UNL     1       2.174  -0.590   1.707  0.00  0.00    +0.022 C 
ENDBRANCH  30  34
ENDBRANCH  23  30
ENDBRANCH  19  26
ENDBRANCH   1  20
TORSDOF 5
