REMARK  Name = ZINC05391604
REMARK  10 active torsions:
REMARK  status: ('A' for Active; 'I' for Inactive)
REMARK    1  A    between atoms: C_1  and  C_2
REMARK    2  A    between atoms: C_6  and  C_28
REMARK    3  A    between atoms: C_7  and  N_8
REMARK    4  A    between atoms: C_9  and  S_13
REMARK    5  A    between atoms: S_13  and  C_14
REMARK    6  A    between atoms: C_14  and  C_16
REMARK    7  A    between atoms: C_14  and  C_17
REMARK    8  A    between atoms: N_19  and  C_20
REMARK    9  A    between atoms: C_20  and  C_21
REMARK   10  A    between atoms: C_21  and  C_22
REMARK                            x       y       z     vdW  Elec       q    Type
REMARK                         _______ _______ _______ _____ _____    ______ ____
ROOT
ATOM      1  S   UNL     1      -3.338   5.017  -0.065  0.00  0.00    -0.072 S 
ENDROOT
BRANCH   1   3
ATOM      2  N   UNL     1      -0.548   5.192  -0.129  0.00  0.00    -0.187 N 
ATOM      3  C   UNL     1      -1.765   5.806  -0.140  0.00  0.00    +0.215 A 
ATOM      4  N   UNL     1      -1.540   7.100  -0.214  0.00  0.00    -0.101 NA
ATOM      5  N   UNL     1      -0.279   7.337  -0.259  0.00  0.00    -0.022 NA
ATOM      6  N   UNL     1       0.389   6.236  -0.212  0.00  0.00    -0.038 NA
BRANCH   2  13
ATOM      7  C   UNL     1       0.881   3.978  -2.270  0.00  0.00    +0.046 C 
ATOM      8  C   UNL     1       0.406   3.185  -1.080  0.00  0.00    -0.025 A 
ATOM      9  C   UNL     1       0.661   1.830  -1.006  0.00  0.00    +0.005 A 
ATOM     10  C   UNL     1       0.226   1.101   0.086  0.00  0.00    +0.001 A 
ATOM     11  C   UNL     1      -0.471   1.726   1.104  0.00  0.00    +0.005 A 
ATOM     12  C   UNL     1      -0.725   3.083   1.038  0.00  0.00    -0.025 A 
ATOM     13  C   UNL     1      -0.288   3.816  -0.057  0.00  0.00    +0.076 A 
ATOM     14  C   UNL     1      -1.479   3.764   2.150  0.00  0.00    +0.046 C 
ENDBRANCH   2  13
ENDBRANCH   1   3
BRANCH   1  15
ATOM     15  C   UNL     1      -4.420   6.467  -0.125  0.00  0.00    +0.137 C 
ATOM     16  C   UNL     1      -4.211   7.312   1.133  0.00  0.00    +0.029 C 
BRANCH  15  17
ATOM     17  C   UNL     1      -5.857   6.019  -0.196  0.00  0.00    +0.226 C 
ATOM     18  O   UNL     1      -6.175   4.931   0.237  0.00  0.00    -0.275 OA
ATOM     19  N   UNL     1      -6.789   6.826  -0.740  0.00  0.00    -0.314 N 
ATOM     20  H   UNL     1      -6.535   7.696  -1.086  0.00  0.00    +0.149 HD
BRANCH  19  21
ATOM     21  C   UNL     1      -8.186   6.390  -0.809  0.00  0.00    +0.108 C 
BRANCH  21  22
ATOM     22  C   UNL     1      -9.030   7.484  -1.466  0.00  0.00    +0.049 C 
BRANCH  22  23
ATOM     23  C   UNL     1     -10.467   7.036  -1.537  0.00  0.00    -0.072 C 
ATOM     24  C   UNL     1     -11.265   7.405  -0.587  0.00  0.00    -0.028 C 
ATOM     25  C   UNL     1     -12.716   7.031  -0.516  0.00  0.00    +0.027 C 
ATOM     26  C   UNL     1     -13.203   6.542  -1.882  0.00  0.00    +0.004 C 
ATOM     27  C   UNL     1     -12.212   5.493  -2.402  0.00  0.00    +0.005 C 
ATOM     28  C   UNL     1     -10.885   6.195  -2.707  0.00  0.00    +0.030 C 
ENDBRANCH  22  23
ENDBRANCH  21  22
ENDBRANCH  19  21
ENDBRANCH  15  17
ENDBRANCH   1  15
TORSDOF 7
