REMARK  Name = ZINC09117174
REMARK  4 active torsions:
REMARK  status: ('A' for Active; 'I' for Inactive)
REMARK    1  A    between atoms: C_1  and  C_2
REMARK    2  A    between atoms: C_5  and  C_29
REMARK    3  A    between atoms: C_10  and  C_12
REMARK    4  A    between atoms: C_15  and  C_17
REMARK                            x       y       z     vdW  Elec       q    Type
REMARK                         _______ _______ _______ _____ _____    ______ ____
ROOT
ATOM      1  C   UNL     1      -1.755   1.212  -3.437  0.00  0.00    +0.147 A 
ATOM      2  C   UNL     1      -2.680   0.444  -4.077  0.00  0.00    +0.051 A 
ATOM      3  N   UNL     1      -3.455   1.276  -4.810  0.00  0.00    -0.327 N 
ATOM      4  C   UNL     1      -3.000   2.547  -4.604  0.00  0.00    +0.142 A 
ATOM      5  N   UNL     1      -1.978   2.498  -3.782  0.00  0.00    -0.223 NA
ATOM      6  C   UNL     1      -4.566   0.875  -5.678  0.00  0.00    +0.123 C 
ATOM      7  C   UNL     1      -5.479  -0.092  -4.921  0.00  0.00    +0.022 C 
ATOM      8  C   UNL     1      -5.003  -1.528  -5.138  0.00  0.00    +0.002 C 
ATOM      9  C   UNL     1      -3.483  -1.572  -5.265  0.00  0.00    +0.006 C 
ATOM     10  C   UNL     1      -2.846  -1.050  -3.974  0.00  0.00    +0.056 C 
ENDROOT
BRANCH   1  18
ATOM     11  C   UNL     1       0.434   5.353  -1.807  0.00  0.00    +0.009 C 
ATOM     12  C   UNL     1       0.244   3.910  -1.335  0.00  0.00    +0.004 C 
ATOM     13  C   UNL     1       1.368   3.538  -0.365  0.00  0.00    +0.009 C 
ATOM     14  C   UNL     1       1.164   2.105   0.134  0.00  0.00    +0.004 C 
ATOM     15  C   UNL     1       1.211   1.143  -1.058  0.00  0.00    +0.111 C 
ATOM     16  N   UNL     1       0.232   1.581  -2.062  0.00  0.00    -0.296 N 
ATOM     17  C   UNL     1       0.285   2.968  -2.543  0.00  0.00    +0.111 C 
ATOM     18  C   UNL     1      -0.697   0.726  -2.534  0.00  0.00    +0.267 C 
ATOM     19  O   UNL     1      -0.662  -0.447  -2.214  0.00  0.00    -0.268 OA
ATOM     20  C   UNL     1      -0.197   1.996   0.824  0.00  0.00    +0.009 C 
ENDBRANCH   1  18
BRANCH   4  21
ATOM     21  C   UNL     1      -3.565   3.775  -5.207  0.00  0.00    +0.020 A 
ATOM     22  C   UNL     1      -4.142   3.730  -6.476  0.00  0.00    +0.012 A 
ATOM     23  C   UNL     1      -4.667   4.877  -7.034  0.00  0.00    +0.003 A 
ATOM     24  C   UNL     1      -4.623   6.072  -6.338  0.00  0.00    +0.038 A 
ATOM     25  C   UNL     1      -4.051   6.124  -5.078  0.00  0.00    +0.124 A 
ATOM     26  C   UNL     1      -3.527   4.980  -4.506  0.00  0.00    +0.050 A 
ATOM     27  F   UNL     1      -4.011   7.294  -4.403  0.00  0.00    -0.205 F 
ENDBRANCH   4  21
TORSDOF 2
