REMARK  Name = ZINC05270145
REMARK  7 active torsions:
REMARK  status: ('A' for Active; 'I' for Inactive)
REMARK    1  A    between atoms: C_1  and  C_2
REMARK    2  A    between atoms: C_5  and  C_28
REMARK    3  A    between atoms: C_6  and  C_8
REMARK    4  A    between atoms: C_8  and  N_9
REMARK    5  A    between atoms: C_13  and  C_16
REMARK    6  A    between atoms: N_18  and  C_19
REMARK    7  A    between atoms: C_24  and  C_25
REMARK                            x       y       z     vdW  Elec       q    Type
REMARK                         _______ _______ _______ _____ _____    ______ ____
ROOT
ATOM      1  N   UNL     1      -3.153   0.797  -1.187  0.00  0.00    -0.310 N 
ATOM      2  C   UNL     1      -2.886  -0.348  -1.859  0.00  0.00    +0.089 A 
ATOM      3  C   UNL     1      -3.358  -0.553  -3.115  0.00  0.00    +0.019 A 
ATOM      4  C   UNL     1      -4.135   0.423  -3.740  0.00  0.00    +0.020 A 
ATOM      5  C   UNL     1      -4.415   1.603  -3.054  0.00  0.00    +0.101 A 
ATOM      6  C   UNL     1      -3.903   1.769  -1.740  0.00  0.00    +0.264 A 
ATOM      7  O   UNL     1      -4.138   2.790  -1.117  0.00  0.00    -0.267 OA
ENDROOT
BRANCH   5   8
ATOM      8  C   UNL     1      -5.231   2.656  -3.677  0.00  0.00    +0.254 C 
ATOM      9  O   UNL     1      -5.587   2.544  -4.835  0.00  0.00    -0.270 OA
ATOM     10  N   UNL     1      -5.584   3.745  -2.966  0.00  0.00    -0.281 N 
ATOM     11  H   UNL     1      -5.234   3.873  -2.070  0.00  0.00    +0.155 HD
BRANCH  10  12
ATOM     12  C   UNL     1      -6.449   4.685  -3.517  0.00  0.00    +0.046 A 
ATOM     13  C   UNL     1      -7.475   4.280  -4.361  0.00  0.00    +0.024 A 
ATOM     14  C   UNL     1      -8.334   5.213  -4.903  0.00  0.00    +0.002 A 
ATOM     15  C   UNL     1      -8.177   6.560  -4.619  0.00  0.00    +0.001 A 
ATOM     16  C   UNL     1      -7.162   6.982  -3.787  0.00  0.00    +0.015 A 
ATOM     17  C   UNL     1      -6.287   6.048  -3.227  0.00  0.00    +0.058 A 
BRANCH  17  18
ATOM     18  C   UNL     1      -5.198   6.493  -2.337  0.00  0.00    +0.243 C 
ATOM     19  O   UNL     1      -4.380   5.691  -1.930  0.00  0.00    -0.270 OA
ATOM     20  N   UNL     1      -5.110   7.788  -1.975  0.00  0.00    -0.325 N 
ATOM     21  H   UNL     1      -5.762   8.428  -2.300  0.00  0.00    +0.145 HD
ATOM     22  H   UNL     1      -4.394   8.080  -1.389  0.00  0.00    +0.145 HD
ENDBRANCH  17  18
ENDBRANCH  10  12
ENDBRANCH   5   8
BRANCH   1  23
ATOM     23  C   UNL     1      -2.623   0.978   0.167  0.00  0.00    +0.160 C 
BRANCH  23  29
ATOM     24  C   UNL     1       0.810   3.467  -2.490  0.00  0.00    +0.044 C 
ATOM     25  C   UNL     1       0.320   2.927  -1.172  0.00  0.00    -0.050 A 
ATOM     26  C   UNL     1       1.061   3.132  -0.022  0.00  0.00    +0.003 A 
ATOM     27  C   UNL     1       0.612   2.636   1.187  0.00  0.00    +0.004 A 
ATOM     28  C   UNL     1      -0.579   1.936   1.248  0.00  0.00    -0.046 A 
ATOM     29  C   UNL     1      -1.323   1.736   0.100  0.00  0.00    -0.025 A 
ATOM     30  C   UNL     1      -0.870   2.227  -1.111  0.00  0.00    +0.009 A 
ATOM     31  C   UNL     1      -1.069   1.396   2.566  0.00  0.00    +0.044 C 
ENDBRANCH  23  29
ENDBRANCH   1  23
TORSDOF 5
