REMARK  Name = ZINC21214452
REMARK  2 active torsions:
REMARK  status: ('A' for Active; 'I' for Inactive)
REMARK    1  A    between atoms: C_6  and  C_7
REMARK    2  A    between atoms: C_10  and  C_12
REMARK                            x       y       z     vdW  Elec       q    Type
REMARK                         _______ _______ _______ _____ _____    ______ ____
ROOT
ATOM      1  C   UNL     1      -1.265  -0.763   0.011  0.00  0.00    +0.136 A 
ATOM      2  C   UNL     1      -1.378  -2.124   0.010  0.00  0.00    +0.050 A 
ATOM      3  C   UNL     1      -2.744  -2.423   0.020  0.00  0.00    +0.055 A 
ATOM      4  C   UNL     1      -3.414  -1.219   0.027  0.00  0.00    +0.190 A 
ATOM      5  O   UNL     1      -2.498  -0.229   0.026  0.00  0.00    -0.450 OA
ENDROOT
BRANCH   4   6
ATOM      6  C   UNL     1      -4.868  -1.045   0.039  0.00  0.00    +0.285 C 
ATOM      7  O   UNL     1      -5.598  -2.020   0.044  0.00  0.00    -0.266 OA
ATOM      8  N   UNL     1      -5.399   0.194   0.045  0.00  0.00    -0.257 N 
ATOM      9  C   UNL     1      -6.778   0.359   0.056  0.00  0.00    +0.188 A 
ATOM     10  N   UNL     1      -7.746  -0.548   0.069  0.00  0.00    -0.126 NA
ATOM     11  N   UNL     1      -8.964  -0.220   0.078  0.00  0.00    -0.148 NA
ATOM     12  C   UNL     1      -9.352   1.040   0.076  0.00  0.00    +0.183 A 
ATOM     13  S   UNL     1      -7.759   1.857   0.066  0.00  0.00    -0.039 S 
ATOM     14  H   UNL     1      -4.817   0.970   0.041  0.00  0.00    +0.157 HD
ENDBRANCH   4   6
BRANCH   1  20
ATOM     15  C   UNL     1      -0.017   1.392   0.010  0.00  0.00    +0.013 A 
ATOM     16  C   UNL     1       1.170   2.095   0.002  0.00  0.00    +0.021 A 
ATOM     17  C   UNL     1       2.378   1.419  -0.013  0.00  0.00    +0.041 A 
ATOM     18  C   UNL     1       2.404   0.034  -0.021  0.00  0.00    +0.021 A 
ATOM     19  C   UNL     1       1.224  -0.680  -0.014  0.00  0.00    +0.013 A 
ATOM     20  C   UNL     1       0.002  -0.004   0.002  0.00  0.00    +0.017 A 
ATOM     21 CL   UNL     1       3.868   2.311  -0.022  0.00  0.00    -0.084 Cl
ENDBRANCH   1  20
TORSDOF 2
