REMARK  Name = ZINC40838674
REMARK  12 active torsions:
REMARK  status: ('A' for Active; 'I' for Inactive)
REMARK    1  A    between atoms: C_1  and  C_2
REMARK    2  A    between atoms: C_2  and  C_3
REMARK    3  A    between atoms: C_3  and  N_4
REMARK    4  A    between atoms: N_4  and  C_5
REMARK    5  A    between atoms: N_4  and  S_8
REMARK    6  A    between atoms: C_5  and  C_6
REMARK    7  A    between atoms: C_6  and  C_7
REMARK    8  A    between atoms: S_8  and  C_11
REMARK    9  A    between atoms: C_14  and  C_17
REMARK   10  A    between atoms: C_26  and  S_28
REMARK   11  A    between atoms: S_28  and  N_31
REMARK   12  A    between atoms: N_31  and  C_32
REMARK                            x       y       z     vdW  Elec       q    Type
REMARK                         _______ _______ _______ _____ _____    ______ ____
ROOT
ATOM      1  C   UNL     1       4.036  -3.622  -3.518  0.00  0.00    +0.251 C 
ATOM      2  O   UNL     1       4.502  -2.839  -4.323  0.00  0.00    -0.270 OA
ATOM      3  N   UNL     1       4.767  -4.675  -3.102  0.00  0.00    -0.267 N 
ATOM      4  C   UNL     1       4.275  -5.748  -2.233  0.00  0.00    +0.118 C 
ATOM      5  C   UNL     1       5.469  -6.698  -2.051  0.00  0.00    +0.056 C 
ATOM      6  C   UNL     1       6.583  -6.070  -2.859  0.00  0.00    -0.023 A 
ATOM      7  C   UNL     1       6.102  -4.907  -3.442  0.00  0.00    +0.040 A 
ATOM      8  C   UNL     1       6.955  -4.150  -4.247  0.00  0.00    +0.026 A 
ATOM      9  C   UNL     1       8.255  -4.559  -4.459  0.00  0.00    +0.030 A 
ATOM     10  C   UNL     1       8.723  -5.721  -3.876  0.00  0.00    +0.106 A 
ATOM     11  C   UNL     1       7.887  -6.473  -3.071  0.00  0.00    +0.034 A 
ENDROOT
BRANCH   1  15
ATOM     12  C   UNL     1       0.105  -3.039  -2.018  0.00  0.00    +0.106 A 
ATOM     13  C   UNL     1       0.695  -2.063  -2.802  0.00  0.00    +0.029 A 
ATOM     14  C   UNL     1       1.971  -2.246  -3.292  0.00  0.00    +0.015 A 
ATOM     15  C   UNL     1       2.668  -3.419  -2.996  0.00  0.00    +0.037 A 
ATOM     16  C   UNL     1       2.067  -4.399  -2.204  0.00  0.00    +0.015 A 
ATOM     17  C   UNL     1       0.792  -4.201  -1.716  0.00  0.00    +0.029 A 
BRANCH  12  18
ATOM     18  S   UNL     1      -1.525  -2.797  -1.395  0.00  0.00    +0.061 S 
ATOM     19  O   UNL     1      -2.057  -4.089  -1.137  0.00  0.00    -0.153 OA
ATOM     20  O   UNL     1      -2.160  -1.873  -2.268  0.00  0.00    -0.153 OA
BRANCH  18  21
ATOM     21  N   UNL     1      -1.383  -2.042   0.071  0.00  0.00    -0.177 NA
BRANCH  21  22
ATOM     22  C   UNL     1      -1.372  -0.578   0.143  0.00  0.00    +0.109 C 
BRANCH  22  24
ATOM     23  C   UNL     1       0.085   1.449   0.232  0.00  0.00    +0.005 C 
ATOM     24  C   UNL     1       0.074  -0.079   0.156  0.00  0.00    +0.014 C 
ENDBRANCH  22  24
ENDBRANCH  21  22
BRANCH  21  25
ATOM     25  C   UNL     1      -1.267  -2.836   1.296  0.00  0.00    +0.109 C 
BRANCH  25  26
ATOM     26  C   UNL     1      -2.650  -3.004   1.928  0.00  0.00    +0.014 C 
ATOM     27  C   UNL     1      -2.529  -3.834   3.208  0.00  0.00    +0.005 C 
ENDBRANCH  25  26
ENDBRANCH  21  25
ENDBRANCH  18  21
ENDBRANCH  12  18
ENDBRANCH   1  15
BRANCH  10  28
ATOM     28  S   UNL     1      10.385  -6.240  -4.150  0.00  0.00    +0.059 S 
ATOM     29  O   UNL     1      10.413  -7.644  -3.936  0.00  0.00    -0.153 OA
ATOM     30  O   UNL     1      10.798  -5.648  -5.374  0.00  0.00    -0.153 OA
BRANCH  28  31
ATOM     31  N   UNL     1      11.313  -5.561  -2.958  0.00  0.00    -0.187 NA
ATOM     32  H   UNL     1      11.991  -4.906  -3.186  0.00  0.00    +0.148 HD
BRANCH  31  33
ATOM     33  C   UNL     1      11.109  -5.949  -1.561  0.00  0.00    +0.077 C 
ATOM     34  C   UNL     1      10.214  -4.913  -0.850  0.00  0.00    +0.020 C 
ATOM     35  C   UNL     1      10.805  -4.817   0.579  0.00  0.00    +0.002 C 
ATOM     36  C   UNL     1      12.329  -4.922   0.326  0.00  0.00    +0.002 C 
ATOM     37  C   UNL     1      12.454  -5.955  -0.813  0.00  0.00    +0.020 C 
ENDBRANCH  31  33
ENDBRANCH  28  31
ENDBRANCH  10  28
TORSDOF 10
