REMARK  Name = ZINC54967670
REMARK  7 active torsions:
REMARK  status: ('A' for Active; 'I' for Inactive)
REMARK    1  A    between atoms: C_1  and  C_2
REMARK    2  A    between atoms: C_2  and  C_3
REMARK    3  A    between atoms: C_3  and  C_4
REMARK    4  A    between atoms: C_5  and  C_19
REMARK    5  A    between atoms: N_9  and  C_10
REMARK    6  A    between atoms: N_9  and  C_16
REMARK    7  A    between atoms: C_10  and  C_11
REMARK                            x       y       z     vdW  Elec       q    Type
REMARK                         _______ _______ _______ _____ _____    ______ ____
ROOT
ATOM      1  C   UNL     1      -1.307  -2.046  -0.003  0.00  0.00    +0.061 A 
ATOM      2  C   UNL     1      -1.550  -2.762  -1.173  0.00  0.00    +0.076 A 
ATOM      3  S   UNL     1      -1.663  -4.422  -0.525  0.00  0.00    -0.049 S 
ATOM      4  C   UNL     1      -1.401  -4.058   1.097  0.00  0.00    +0.162 A 
ATOM      5  N   UNL     1      -1.238  -2.745   1.099  0.00  0.00    -0.229 NA
ATOM      6  N   UNL     1      -1.362  -4.922   2.168  0.00  0.00    -0.302 N 
ENDROOT
BRANCH   6   7
ATOM      7  C   UNL     1      -1.454  -6.367   1.946  0.00  0.00    +0.076 C 
ATOM      8  C   UNL     1      -1.344  -7.278   3.171  0.00  0.00    +0.024 C 
ATOM      9  C   UNL     1      -2.695  -7.086   2.479  0.00  0.00    +0.024 C 
ENDBRANCH   6   7
BRANCH   2  10
ATOM     10  C   UNL     1      -1.673  -2.304  -2.499  0.00  0.00    +0.267 C 
ATOM     11  O   UNL     1      -1.889  -3.094  -3.397  0.00  0.00    -0.295 OA
ENDBRANCH   2  10
BRANCH   1  12
ATOM     12  C   UNL     1      -1.127  -0.550  -0.008  0.00  0.00    +0.056 C 
BRANCH  12  14
ATOM     13  C   UNL     1       0.535   1.304  -0.212  0.00  0.00    +0.004 C 
ATOM     14  C   UNL     1       0.353  -0.215  -0.207  0.00  0.00    +0.003 C 
ENDBRANCH  12  14
ENDBRANCH   1  12
BRANCH   6  15
ATOM     15  C   UNL     1      -1.229  -4.396   3.529  0.00  0.00    +0.143 C 
BRANCH  15  16
ATOM     16  C   UNL     1      -2.598  -4.144   4.106  0.00  0.00    -0.023 A 
ATOM     17  C   UNL     1      -3.214  -2.917   3.939  0.00  0.00    +0.013 A 
ATOM     18  C   UNL     1      -4.445  -2.723   4.471  0.00  0.00    +0.045 A 
ATOM     19  S   UNL     1      -4.771  -4.302   5.237  0.00  0.00    -0.105 S 
ATOM     20  C   UNL     1      -3.246  -5.117   4.792  0.00  0.00    +0.050 A 
ENDBRANCH  15  16
ENDBRANCH   6  15
TORSDOF 6
