REMARK  Name = ZINC12893469
REMARK  9 active torsions:
REMARK  status: ('A' for Active; 'I' for Inactive)
REMARK    1  A    between atoms: C_1  and  C_2
REMARK    2  A    between atoms: C_3  and  C_13
REMARK    3  A    between atoms: C_4  and  C_12
REMARK    4  A    between atoms: C_9  and  C_10
REMARK    5  A    between atoms: C_13  and  C_14
REMARK    6  A    between atoms: C_14  and  C_15
REMARK    7  A    between atoms: N_17  and  C_18
REMARK    8  A    between atoms: N_17  and  C_28
REMARK    9  A    between atoms: C_18  and  C_19
REMARK                            x       y       z     vdW  Elec       q    Type
REMARK                         _______ _______ _______ _____ _____    ______ ____
ROOT
ATOM      1  C   UNL     1      -0.102  -2.032   1.429  0.00  0.00    +0.216 C 
ATOM      2  O   UNL     1      -0.113  -2.634   0.376  0.00  0.00    -0.276 OA
ATOM      3  N   UNL     1      -0.062  -2.710   2.592  0.00  0.00    -0.294 N 
ENDROOT
BRANCH   3   4
ATOM      4  C   UNL     1      -0.171  -1.990   3.864  0.00  0.00    +0.076 C 
ATOM      5  C   UNL     1      -1.526  -1.258   3.943  0.00  0.00    +0.022 C 
ATOM      6  C   UNL     1      -1.198   0.073   4.663  0.00  0.00    +0.002 C 
ATOM      7  C   UNL     1       0.188   0.444   4.080  0.00  0.00    +0.002 C 
ATOM      8  C   UNL     1       0.919  -0.908   3.951  0.00  0.00    +0.022 C 
ENDBRANCH   3   4
BRANCH   1   9
ATOM      9  C   UNL     1      -0.132  -0.525   1.435  0.00  0.00    +0.101 C 
BRANCH   9  10
ATOM     10  C   UNL     1      -0.343  -0.013   0.009  0.00  0.00    +0.046 C 
BRANCH  10  13
ATOM     11  C   UNL     1      -2.830   1.394   0.569  0.00  0.00    +0.045 C 
ATOM     12  C   UNL     1      -1.567   2.164   0.283  0.00  0.00    -0.023 A 
ATOM     13  C   UNL     1      -0.373   1.493   0.015  0.00  0.00    -0.024 A 
ATOM     14  C   UNL     1       0.759   2.195  -0.246  0.00  0.00    +0.019 A 
ATOM     15  N   UNL     1       0.761   3.550  -0.247  0.00  0.00    -0.325 N 
ATOM     16  H   UNL     1       1.585   4.026  -0.436  0.00  0.00    +0.169 HD
ATOM     17  C   UNL     1      -0.362   4.246   0.011  0.00  0.00    +0.267 A 
ATOM     18  O   UNL     1      -0.341   5.465   0.006  0.00  0.00    -0.266 OA
ATOM     19  C   UNL     1      -1.571   3.557   0.289  0.00  0.00    +0.119 A 
ATOM     20  C   UNL     1       2.037   1.453  -0.539  0.00  0.00    +0.063 C 
BRANCH  19  21
ATOM     21  C   UNL     1      -2.776   4.280   0.565  0.00  0.00    +0.105 C 
ATOM     22  N   UNL     1      -3.731   4.855   0.784  0.00  0.00    -0.191 NA
ENDBRANCH  19  21
ENDBRANCH  10  13
ENDBRANCH   9  10
ENDBRANCH   1   9
BRANCH   3  23
ATOM     23  C   UNL     1       0.089  -4.168   2.586  0.00  0.00    +0.143 C 
BRANCH  23  24
ATOM     24  C   UNL     1       1.554  -4.521   2.622  0.00  0.00    -0.026 A 
ATOM     25  C   UNL     1       2.193  -4.690   3.836  0.00  0.00    +0.009 A 
ATOM     26  C   UNL     1       3.536  -5.015   3.873  0.00  0.00    +0.050 A 
ATOM     27  C   UNL     1       4.245  -5.170   2.693  0.00  0.00    +0.166 A 
ATOM     28  C   UNL     1       3.601  -4.999   1.470  0.00  0.00    +0.167 A 
ATOM     29  C   UNL     1       2.253  -4.680   1.440  0.00  0.00    +0.054 A 
ATOM     30  O   UNL     1       4.505  -5.204   0.469  0.00  0.00    -0.453 OA
ATOM     31  C   UNL     1       5.606  -5.902   1.081  0.00  0.00    +0.466 C 
ATOM     32  O   UNL     1       5.553  -5.482   2.458  0.00  0.00    -0.453 OA
ENDBRANCH  23  24
ENDBRANCH   3  23
TORSDOF 7
