REMARK  Name = ZINC06716363
REMARK  11 active torsions:
REMARK  status: ('A' for Active; 'I' for Inactive)
REMARK    1  A    between atoms: C_1  and  O_2
REMARK    2  A    between atoms: O_2  and  C_3
REMARK    3  A    between atoms: N_5  and  C_6
REMARK    4  A    between atoms: C_6  and  C_8
REMARK    5  A    between atoms: C_6  and  C_12
REMARK    6  A    between atoms: C_8  and  C_9
REMARK    7  A    between atoms: C_9  and  S_10
REMARK    8  A    between atoms: S_10  and  C_11
REMARK    9  A    between atoms: C_12  and  O_14
REMARK   10  A    between atoms: O_14  and  C_15
REMARK   11  A    between atoms: C_18  and  N_21
REMARK                            x       y       z     vdW  Elec       q    Type
REMARK                         _______ _______ _______ _____ _____    ______ ____
ROOT
ATOM      1  C   UNL     1      -0.339   3.455   5.619  0.00  0.00    +0.132 A 
ATOM      2  C   UNL     1      -1.298   2.545   6.037  0.00  0.00    +0.048 A 
ATOM      3  C   UNL     1      -2.131   2.855   7.093  0.00  0.00    +0.027 A 
ATOM      4  C   UNL     1      -2.015   4.084   7.730  0.00  0.00    +0.033 A 
ATOM      5  C   UNL     1      -1.058   4.997   7.308  0.00  0.00    +0.027 A 
ATOM      6  C   UNL     1      -0.222   4.683   6.255  0.00  0.00    +0.048 A 
ENDROOT
BRANCH   4   7
ATOM      7  N   UNL     1      -2.863   4.402   8.797  0.00  0.00    -0.294 N 
ATOM      8  C   UNL     1      -3.326   5.693   8.949  0.00  0.00    +0.164 A 
ATOM      9  N   UNL     1      -4.027   6.204   9.941  0.00  0.00    -0.221 NA
ATOM     10  C   UNL     1      -4.414   7.480   9.964  0.00  0.00    +0.131 A 
ATOM     11  C   UNL     1      -4.020   8.236   8.857  0.00  0.00    +0.092 A 
ATOM     12  S   UNL     1      -3.123   7.050   7.885  0.00  0.00    -0.048 S 
ATOM     13  C   UNL     1      -4.345   9.640   8.699  0.00  0.00    +0.203 C 
ATOM     14  O   UNL     1      -3.975  10.247   7.712  0.00  0.00    -0.286 OA
ATOM     15  C   UNL     1      -5.131  10.331   9.749  0.00  0.00    +0.034 A 
ATOM     16  C   UNL     1      -5.455  11.675   9.624  0.00  0.00    +0.012 A 
ATOM     17  C   UNL     1      -6.191  12.301  10.618  0.00  0.00    +0.001 A 
ATOM     18  C   UNL     1      -6.602  11.593  11.731  0.00  0.00    +0.001 A 
ATOM     19  C   UNL     1      -6.285  10.252  11.869  0.00  0.00    +0.012 A 
ATOM     20  C   UNL     1      -5.547   9.608  10.880  0.00  0.00    +0.035 A 
ATOM     21  C   UNL     1      -5.205   8.179  11.019  0.00  0.00    +0.213 C 
ATOM     22  O   UNL     1      -5.571   7.565  12.001  0.00  0.00    -0.285 OA
ATOM     23  H   UNL     1      -3.126   3.715   9.430  0.00  0.00    +0.154 HD
ENDBRANCH   4   7
BRANCH   1  24
ATOM     24  O   UNL     1       0.484   3.147   4.581  0.00  0.00    -0.425 OA
BRANCH  24  25
ATOM     25  C   UNL     1       1.746   2.802   4.885  0.00  0.00    +0.333 C 
ATOM     26  O   UNL     1       2.129   2.861   6.030  0.00  0.00    -0.248 OA
BRANCH  25  27
ATOM     27  C   UNL     1       2.684   2.343   3.799  0.00  0.00    +0.186 C 
BRANCH  27  30
ATOM     28  C   UNL     1       4.487   1.819   5.353  0.00  0.00    +0.401 C 
ATOM     29  O   UNL     1       3.716   1.102   5.960  0.00  0.00    -0.226 OA
ATOM     30  N   UNL     1       4.068   2.485   4.258  0.00  0.00    -0.268 N 
ATOM     31  H   UNL     1       4.684   3.057   3.774  0.00  0.00    +0.153 HD
BRANCH  28  33
ATOM     32  C   UNL     1       6.140   1.203   6.961  0.00  0.00    +0.282 C 
ATOM     33  O   UNL     1       5.759   1.949   5.775  0.00  0.00    -0.454 OA
ENDBRANCH  28  33
ENDBRANCH  27  30
BRANCH  27  34
ATOM     34  C   UNL     1       2.404   0.876   3.470  0.00  0.00    +0.044 C 
BRANCH  34  35
ATOM     35  C   UNL     1       3.269   0.445   2.284  0.00  0.00    +0.071 C 
BRANCH  35  36
ATOM     36  S   UNL     1       2.936  -1.295   1.893  0.00  0.00    -0.164 S 
ATOM     37  C   UNL     1       4.026  -1.645   0.485  0.00  0.00    +0.084 C 
ENDBRANCH  35  36
ENDBRANCH  34  35
ENDBRANCH  27  34
ENDBRANCH  25  27
ENDBRANCH  24  25
ENDBRANCH   1  24
TORSDOF 9
