REMARK  Name = ZINC02624841
REMARK  3 active torsions:
REMARK  status: ('A' for Active; 'I' for Inactive)
REMARK    1  A    between atoms: C_13  and  O_14
REMARK    2  A    between atoms: O_14  and  C_15
REMARK    3  A    between atoms: C_15  and  C_17
REMARK                            x       y       z     vdW  Elec       q    Type
REMARK                         _______ _______ _______ _____ _____    ______ ____
ROOT
ATOM      1  C   UNL     1      10.336   0.411   3.497  0.00  0.00    +0.001 A 
ATOM      2  C   UNL     1       9.031  -0.010   3.681  0.00  0.00    +0.000 A 
ATOM      3  C   UNL     1       8.300  -0.495   2.611  0.00  0.00    +0.008 A 
ATOM      4  C   UNL     1       8.872  -0.559   1.358  0.00  0.00    +0.005 A 
ATOM      5  C   UNL     1      10.184  -0.138   1.162  0.00  0.00    -0.010 A 
ATOM      6  C   UNL     1      10.915   0.350   2.247  0.00  0.00    +0.009 A 
ATOM      7  C   UNL     1      10.551  -0.312  -0.265  0.00  0.00    -0.010 A 
ATOM      8  C   UNL     1      11.737  -0.040  -0.950  0.00  0.00    +0.009 A 
ATOM      9  C   UNL     1      11.827  -0.295  -2.302  0.00  0.00    +0.001 A 
ATOM     10  C   UNL     1      10.745  -0.822  -2.985  0.00  0.00    +0.000 A 
ATOM     11  C   UNL     1       9.566  -1.093  -2.313  0.00  0.00    +0.008 A 
ATOM     12  C   UNL     1       9.468  -0.841  -0.961  0.00  0.00    +0.005 A 
ATOM     13  C   UNL     1       8.341  -1.028   0.025  0.00  0.00    +0.238 C 
ENDROOT
BRANCH  13  14
ATOM     14  O   UNL     1       7.195  -0.228  -0.367  0.00  0.00    -0.449 OA
BRANCH  14  15
ATOM     15  C   UNL     1       5.982  -0.696  -0.032  0.00  0.00    +0.353 C 
ATOM     16  O   UNL     1       5.882  -1.739   0.568  0.00  0.00    -0.246 OA
BRANCH  15  17
ATOM     17  C   UNL     1       4.746   0.081  -0.406  0.00  0.00    +0.318 C 
ATOM     18  C   UNL     1       4.733   1.423   0.339  0.00  0.00    +0.285 C 
ATOM     19  O   UNL     1       3.541   2.127  -0.027  0.00  0.00    -0.484 OA
ATOM     20  C   UNL     1       2.382   1.415  -0.013  0.00  0.00    +0.162 A 
ATOM     21  C   UNL     1       1.169   2.088   0.002  0.00  0.00    +0.049 A 
ATOM     22  C   UNL     1      -0.017   1.378   0.010  0.00  0.00    +0.004 A 
ATOM     23  C   UNL     1       0.002  -0.004   0.002  0.00  0.00    +0.004 A 
ATOM     24  C   UNL     1       1.207  -0.681  -0.011  0.00  0.00    +0.049 A 
ATOM     25  C   UNL     1       2.401   0.025  -0.018  0.00  0.00    +0.163 A 
ATOM     26  O   UNL     1       3.579  -0.656  -0.023  0.00  0.00    -0.471 OA
ENDBRANCH  15  17
ENDBRANCH  14  15
ENDBRANCH  13  14
TORSDOF 3
