REMARK  Name = ZINC15105879
REMARK  16 active torsions:
REMARK  status: ('A' for Active; 'I' for Inactive)
REMARK    1  A    between atoms: C_1  and  C_2
REMARK    2  A    between atoms: C_2  and  O_3
REMARK    3  A    between atoms: O_3  and  C_4
REMARK    4  A    between atoms: C_4  and  C_6
REMARK    5  A    between atoms: C_8  and  C_34
REMARK    6  A    between atoms: C_10  and  C_29
REMARK    7  A    between atoms: C_12  and  C_27
REMARK    8  A    between atoms: C_12  and  O_28
REMARK    9  A    between atoms: N_15  and  N_16
REMARK   10  A    between atoms: N_16  and  S_17
REMARK   11  A    between atoms: S_17  and  C_20
REMARK   12  A    between atoms: C_23  and  C_26
REMARK   13  A    between atoms: C_29  and  O_31
REMARK   14  A    between atoms: O_31  and  C_32
REMARK   15  A    between atoms: C_32  and  C_33
REMARK   16  A    between atoms: C_37  and  C_40
REMARK                            x       y       z     vdW  Elec       q    Type
REMARK                         _______ _______ _______ _____ _____    ______ ____
ROOT
ATOM      1  C   UNL     1      -3.439   3.326   1.258  0.00  0.00    +0.152 C 
ATOM      2  C   UNL     1      -2.567   3.840   0.107  0.00  0.00    +0.055 C 
ATOM      3  C   UNL     1      -3.289   3.607  -1.221  0.00  0.00    +0.138 C 
ATOM      4  C   UNL     1      -4.581   4.426  -1.259  0.00  0.00    +0.082 C 
ATOM      5  C   UNL     1      -5.528   3.935  -0.160  0.00  0.00    +0.088 C 
ATOM      6  C   UNL     1      -4.797   3.985   1.163  0.00  0.00    +0.055 C 
ATOM      7  N   UNL     1      -5.314   4.571   2.177  0.00  0.00    -0.174 NA
ATOM      8  C   UNL     1      -4.255   5.903  -1.029  0.00  0.00    +0.042 C 
ENDROOT
BRANCH   2   9
ATOM      9  C   UNL     1      -1.254   3.099   0.102  0.00  0.00    -0.042 A 
ATOM     10  C   UNL     1      -0.143   3.667  -0.493  0.00  0.00    +0.004 A 
ATOM     11  C   UNL     1       1.060   2.985  -0.502  0.00  0.00    +0.003 A 
ATOM     12  C   UNL     1       1.153   1.741   0.093  0.00  0.00    -0.050 A 
ATOM     13  C   UNL     1       0.043   1.175   0.692  0.00  0.00    +0.003 A 
ATOM     14  C   UNL     1      -1.161   1.855   0.696  0.00  0.00    +0.004 A 
ATOM     15  C   UNL     1       2.466   1.000   0.088  0.00  0.00    +0.044 C 
ENDBRANCH   2   9
BRANCH   1  16
ATOM     16  C   UNL     1      -2.796   3.677   2.575  0.00  0.00    +0.316 C 
ATOM     17  O   UNL     1      -1.748   4.277   2.595  0.00  0.00    -0.250 OA
BRANCH  16  18
ATOM     18  O   UNL     1      -3.389   3.323   3.726  0.00  0.00    -0.464 OA
BRANCH  18  20
ATOM     19  C   UNL     1      -3.533   3.210   6.155  0.00  0.00    +0.048 C 
ATOM     20  C   UNL     1      -2.714   3.694   4.957  0.00  0.00    +0.229 C 
ENDBRANCH  18  20
ENDBRANCH  16  18
ENDBRANCH   1  16
BRANCH   7  21
ATOM     21  N   UNL     1      -6.626   5.058   2.111  0.00  0.00    -0.137 N 
ATOM     22  H   UNL     1      -7.119   5.012   1.277  0.00  0.00    +0.197 HD
BRANCH  21  23
ATOM     23  S   UNL     1      -7.336   5.712   3.457  0.00  0.00    +0.086 S 
ATOM     24  O   UNL     1      -8.588   6.239   3.040  0.00  0.00    -0.149 OA
ATOM     25  O   UNL     1      -7.222   4.742   4.488  0.00  0.00    -0.149 OA
BRANCH  23  26
ATOM     26  C   UNL     1      -6.350   7.088   3.949  0.00  0.00    +0.110 A 
ATOM     27  C   UNL     1      -5.310   6.909   4.842  0.00  0.00    +0.029 A 
ATOM     28  C   UNL     1      -4.534   7.987   5.224  0.00  0.00    +0.005 A 
ATOM     29  C   UNL     1      -4.804   9.246   4.721  0.00  0.00    -0.050 A 
ATOM     30  C   UNL     1      -5.847   9.426   3.832  0.00  0.00    +0.005 A 
ATOM     31  C   UNL     1      -6.620   8.347   3.446  0.00  0.00    +0.029 A 
ATOM     32  C   UNL     1      -3.962  10.422   5.142  0.00  0.00    +0.044 C 
ENDBRANCH  23  26
ENDBRANCH  21  23
ENDBRANCH   7  21
BRANCH   4  33
ATOM     33  O   UNL     1      -5.207   4.269  -2.534  0.00  0.00    -0.388 OA
ATOM     34  H   UNL     1      -6.034   4.762  -2.630  0.00  0.00    +0.210 HD
ENDBRANCH   4  33
BRANCH   3  35
ATOM     35  C   UNL     1      -3.620   2.143  -1.361  0.00  0.00    +0.314 C 
ATOM     36  O   UNL     1      -3.385   1.381  -0.454  0.00  0.00    -0.250 OA
BRANCH  35  37
ATOM     37  O   UNL     1      -4.177   1.687  -2.494  0.00  0.00    -0.465 OA
BRANCH  37  38
ATOM     38  C   UNL     1      -4.469   0.266  -2.559  0.00  0.00    +0.229 C 
ATOM     39  C   UNL     1      -5.095  -0.065  -3.916  0.00  0.00    +0.048 C 
ENDBRANCH  37  38
ENDBRANCH  35  37
ENDBRANCH   3  35
TORSDOF 11
