REMARK  Name = ZINC41394113
REMARK  5 active torsions:
REMARK  status: ('A' for Active; 'I' for Inactive)
REMARK    1  A    between atoms: C_1  and  C_2
REMARK    2  A    between atoms: C_2  and  N_3
REMARK    3  A    between atoms: N_13  and  C_14
REMARK    4  A    between atoms: C_15  and  C_20
REMARK    5  A    between atoms: C_18  and  C_19
REMARK                            x       y       z     vdW  Elec       q    Type
REMARK                         _______ _______ _______ _____ _____    ______ ____
ROOT
ATOM      1  N   UNL     1       0.752   0.336  -0.777  0.00  0.00    -0.280 N 
ATOM      2  C   UNL     1       0.140   1.113  -1.690  0.00  0.00    +0.264 A 
ATOM      3  O   UNL     1      -1.058   1.325  -1.617  0.00  0.00    -0.267 OA
ATOM      4  C   UNL     1       0.916   1.687  -2.746  0.00  0.00    +0.076 A 
ATOM      5  C   UNL     1       0.464   2.553  -3.837  0.00  0.00    -0.023 A 
ATOM      6  C   UNL     1       1.398   2.968  -4.716  0.00  0.00    -0.004 A 
ATOM      7  S   UNL     1       2.914   2.242  -4.154  0.00  0.00    -0.073 S 
ATOM      8  C   UNL     1       2.287   1.380  -2.735  0.00  0.00    +0.117 A 
ATOM      9  N   UNL     1       2.829   0.604  -1.804  0.00  0.00    -0.208 NA
ATOM     10  C   UNL     1       2.093   0.092  -0.839  0.00  0.00    +0.204 A 
ATOM     11  N   UNL     1       2.681  -0.702   0.114  0.00  0.00    -0.283 N 
ATOM     12  C   UNL     1       1.193   3.850  -5.909  0.00  0.00    +0.043 C 
ATOM     13  C   UNL     1      -0.311   3.920  -6.208  0.00  0.00    +0.005 C 
ATOM     14  C   UNL     1      -1.058   4.204  -4.901  0.00  0.00    +0.005 C 
ATOM     15  C   UNL     1      -0.994   2.978  -3.989  0.00  0.00    +0.037 C 
ATOM     16  H   UNL     1       2.134  -1.149   0.778  0.00  0.00    +0.155 HD
ENDROOT
BRANCH  11  17
ATOM     17  C   UNL     1       4.079  -0.869   0.126  0.00  0.00    +0.066 A 
ATOM     18  C   UNL     1       4.869  -0.414   1.167  0.00  0.00    +0.069 A 
ATOM     19  N   UNL     1       6.159  -0.622   1.075  0.00  0.00    -0.213 NA
ATOM     20  S   UNL     1       6.346  -1.418  -0.383  0.00  0.00    +0.009 S 
ATOM     21  C   UNL     1       4.747  -1.493  -0.884  0.00  0.00    +0.028 A 
ATOM     22  C   UNL     1       4.186  -2.100  -2.144  0.00  0.00    +0.055 C 
ATOM     23  C   UNL     1       4.270   0.291   2.356  0.00  0.00    +0.068 C 
ENDBRANCH  11  17
BRANCH   1  25
ATOM     24  C   UNL     1      -0.062   0.703   1.500  0.00  0.00    +0.027 C 
ATOM     25  C   UNL     1      -0.036  -0.255   0.307  0.00  0.00    +0.125 C 
ENDBRANCH   1  25
TORSDOF 2
