REMARK  Name = ZINC34812217
REMARK  3 active torsions:
REMARK  status: ('A' for Active; 'I' for Inactive)
REMARK    1  A    between atoms: C_3  and  C_10
REMARK    2  A    between atoms: C_5  and  N_7
REMARK    3  A    between atoms: C_10  and  N_11
REMARK                            x       y       z     vdW  Elec       q    Type
REMARK                         _______ _______ _______ _____ _____    ______ ____
ROOT
ATOM      1  N   UNL     1       4.106   2.426   1.360  0.00  0.00    +0.383 N 
ATOM      2  C   UNL     1       3.132   3.295   2.031  0.00  0.00    -0.075 C 
ATOM      3  C   UNL     1       3.537   3.486   3.494  0.00  0.00    +0.027 C 
ATOM      4  C   UNL     1       4.925   4.131   3.555  0.00  0.00    +0.095 C 
ATOM      5  C   UNL     1       5.918   3.254   2.787  0.00  0.00    +0.027 C 
ATOM      6  C   UNL     1       5.425   3.071   1.350  0.00  0.00    -0.075 C 
ATOM      7  N   UNL     1       5.352   4.230   4.955  0.00  0.00    -0.323 N 
ATOM      8  C   UNL     1       4.816   5.237   5.751  0.00  0.00    +0.041 A 
ATOM      9  C   UNL     1       4.678   5.087   7.121  0.00  0.00    +0.025 A 
ATOM     10  C   UNL     1       4.150   6.119   7.872  0.00  0.00    +0.017 A 
ATOM     11  C   UNL     1       3.759   7.303   7.266  0.00  0.00    +0.019 A 
ATOM     12  C   UNL     1       3.885   7.467   5.901  0.00  0.00    +0.030 A 
ATOM     13  C   UNL     1       4.411   6.432   5.131  0.00  0.00    +0.059 A 
ATOM     14  C   UNL     1       4.544   6.548   3.668  0.00  0.00    +0.247 C 
ATOM     15  O   UNL     1       4.359   7.617   3.119  0.00  0.00    -0.270 OA
ATOM     16  N   UNL     1       4.872   5.460   2.944  0.00  0.00    -0.291 N 
ATOM     17 BR   UNL     1       3.046   8.705   8.317  0.00  0.00    -0.050 Br
ATOM     18  H   UNL     1       5.997   3.604   5.320  0.00  0.00    +0.148 HD
ATOM     19  H   UNL     1       5.078   5.559   2.002  0.00  0.00    +0.151 HD
ATOM     20  H   UNL     1       4.166   1.548   1.853  0.00  0.00    -0.081 HD
ENDROOT
BRANCH   1  21
ATOM     21  C   UNL     1       3.672   2.182  -0.022  0.00  0.00    -0.043 C 
BRANCH  21  24
ATOM     22  C   UNL     1      -0.017   1.378   0.010  0.00  0.00    +0.002 A 
ATOM     23  C   UNL     1       1.171   2.085   0.002  0.00  0.00    +0.002 A 
ATOM     24  C   UNL     1       2.377   1.411  -0.013  0.00  0.00    -0.062 A 
ATOM     25  C   UNL     1       2.396   0.028  -0.020  0.00  0.00    +0.034 A 
ATOM     26  C   UNL     1       1.209  -0.679  -0.012  0.00  0.00    +0.126 A 
ATOM     27  C   UNL     1       0.002  -0.004   0.002  0.00  0.00    +0.033 A 
BRANCH  26  28
ATOM     28  N   UNL     1       1.229  -2.159  -0.020  0.00  0.00    +0.056 N 
ATOM     29  O   UNL     1       2.284  -2.749  -0.035  0.00  0.00    -0.126 OA
ATOM     30  O   UNL     1       0.190  -2.778  -0.013  0.00  0.00    -0.126 OA
ENDBRANCH  26  28
ENDBRANCH  21  24
ENDBRANCH   1  21
TORSDOF 3
