REMARK  Name = ZINC22413162
REMARK  6 active torsions:
REMARK  status: ('A' for Active; 'I' for Inactive)
REMARK    1  A    between atoms: C_1  and  C_2
REMARK    2  A    between atoms: C_7  and  N_8
REMARK    3  A    between atoms: C_9  and  C_11
REMARK    4  A    between atoms: C_11  and  N_12
REMARK    5  A    between atoms: N_24  and  C_27
REMARK    6  A    between atoms: C_32  and  C_33
REMARK                            x       y       z     vdW  Elec       q    Type
REMARK                         _______ _______ _______ _____ _____    ______ ____
ROOT
ATOM      1  N   UNL     1      -0.001   1.461   0.009  0.00  0.00    -0.280 N 
ATOM      2  C   UNL     1       1.186   2.164   0.011  0.00  0.00    +0.105 A 
ATOM      3  C   UNL     1       2.600   1.783   0.007  0.00  0.00    +0.045 A 
ATOM      4  C   UNL     1       3.280   0.564  -0.001  0.00  0.00    +0.014 A 
ATOM      5  C   UNL     1       4.646   0.549  -0.004  0.00  0.00    +0.001 A 
ATOM      6  C   UNL     1       5.362   1.738   0.000  0.00  0.00    +0.004 A 
ATOM      7  C   UNL     1       4.710   2.951   0.008  0.00  0.00    +0.047 A 
ATOM      8  C   UNL     1       3.319   2.991   0.011  0.00  0.00    +0.138 A 
ATOM      9  O   UNL     1       2.433   4.007   0.018  0.00  0.00    -0.448 OA
ATOM     10  C   UNL     1       1.162   3.546   0.018  0.00  0.00    +0.217 A 
ATOM     11  C   UNL     1      -0.096   4.198   0.024  0.00  0.00    +0.304 A 
ATOM     12  O   UNL     1      -0.157   5.415   0.030  0.00  0.00    -0.263 OA
ATOM     13  N   UNL     1      -1.224   3.462   0.022  0.00  0.00    -0.226 N 
ATOM     14  C   UNL     1      -1.177   2.118   0.009  0.00  0.00    +0.338 A 
ATOM     15  O   UNL     1      -2.215   1.484   0.002  0.00  0.00    -0.246 OA
ENDROOT
BRANCH  13  16
ATOM     16  C   UNL     1      -2.468   4.107   0.028  0.00  0.00    +0.057 A 
ATOM     17  C   UNL     1      -3.085   4.439  -1.171  0.00  0.00    +0.027 A 
ATOM     18  C   UNL     1      -4.314   5.069  -1.163  0.00  0.00    +0.002 A 
ATOM     19  C   UNL     1      -4.924   5.381   0.038  0.00  0.00    +0.000 A 
ATOM     20  C   UNL     1      -4.309   5.058   1.234  0.00  0.00    +0.005 A 
ATOM     21  C   UNL     1      -3.083   4.421   1.232  0.00  0.00    -0.026 A 
ATOM     22  C   UNL     1      -2.414   4.069   2.535  0.00  0.00    +0.046 C 
ENDBRANCH  13  16
BRANCH   1  23
ATOM     23  C   UNL     1       0.017  -0.004   0.002  0.00  0.00    +0.223 C 
BRANCH  23  25
ATOM     24  N   UNL     1       0.043  -1.840   1.659  0.00  0.00    -0.284 N 
ATOM     25  C   UNL     1       0.026  -0.514   1.420  0.00  0.00    +0.237 C 
ATOM     26  O   UNL     1       0.017   0.269   2.346  0.00  0.00    -0.274 OA
ATOM     27  H   UNL     1      -0.041  -2.551   0.824  0.00  0.00    +0.155 HD
BRANCH  24  34
ATOM     28  C   UNL     1      -0.959  -4.437   2.252  0.00  0.00    +0.045 C 
ATOM     29  C   UNL     1      -0.308  -3.575   3.303  0.00  0.00    -0.029 A 
ATOM     30  C   UNL     1      -0.184  -4.038   4.598  0.00  0.00    +0.005 A 
ATOM     31  C   UNL     1       0.414  -3.248   5.562  0.00  0.00    +0.000 A 
ATOM     32  C   UNL     1       0.888  -1.991   5.234  0.00  0.00    +0.002 A 
ATOM     33  C   UNL     1       0.772  -1.524   3.940  0.00  0.00    +0.023 A 
ATOM     34  C   UNL     1       0.167  -2.313   2.970  0.00  0.00    +0.036 A 
ENDBRANCH  24  34
ENDBRANCH  23  25
ENDBRANCH   1  23
TORSDOF 4
