REMARK  Name = ZINC40369654
REMARK  6 active torsions:
REMARK  status: ('A' for Active; 'I' for Inactive)
REMARK    1  A    between atoms: C_1  and  C_2
REMARK    2  A    between atoms: C_5  and  C_7
REMARK    3  A    between atoms: N_9  and  C_10
REMARK    4  A    between atoms: C_10  and  C_12
REMARK    5  A    between atoms: C_10  and  C_18
REMARK    6  A    between atoms: N_19  and  O_20
REMARK                            x       y       z     vdW  Elec       q    Type
REMARK                         _______ _______ _______ _____ _____    ______ ____
ROOT
ATOM      1  C   UNL     1       0.127  -3.941   3.133  0.00  0.00    +0.142 C 
ENDROOT
BRANCH   1   2
ATOM      2  C   UNL     1       1.220  -4.774   3.805  0.00  0.00    +0.017 C 
ATOM      3  C   UNL     1       2.337  -5.056   2.799  0.00  0.00    +0.006 C 
ATOM      4  C   UNL     1       3.431  -5.889   3.471  0.00  0.00    +0.000 C 
ATOM      5  C   UNL     1       2.837  -7.212   3.957  0.00  0.00    +0.000 C 
ATOM      6  C   UNL     1       1.719  -6.930   4.963  0.00  0.00    +0.000 C 
ATOM      7  C   UNL     1       0.626  -6.097   4.292  0.00  0.00    +0.006 C 
ENDBRANCH   1   2
BRANCH   1   8
ATOM      8  C   UNL     1      -0.974  -3.663   4.124  0.00  0.00    +0.152 C 
ATOM      9  N   UNL     1      -2.193  -3.984   3.842  0.00  0.00    -0.075 NA
ATOM     10  N   UNL     1      -0.680  -3.067   5.331  0.00  0.00    -0.342 N 
ATOM     11  H   UNL     1       0.235  -2.826   5.543  0.00  0.00    +0.144 HD
ATOM     12  H   UNL     1      -1.389  -2.889   5.969  0.00  0.00    +0.144 HD
BRANCH   9  13
ATOM     13  O   UNL     1      -3.227  -3.723   4.774  0.00  0.00    -0.408 OA
ATOM     14  H   UNL     1      -4.105  -3.998   4.474  0.00  0.00    +0.328 HD
ENDBRANCH   9  13
ENDBRANCH   1   8
BRANCH   1  17
ATOM     15  C   UNL     1       0.118  -2.011   1.645  0.00  0.00    +0.217 C 
ATOM     16  O   UNL     1      -0.872  -2.464   1.111  0.00  0.00    -0.275 OA
ATOM     17  N   UNL     1       0.695  -2.673   2.667  0.00  0.00    -0.305 N 
ATOM     18  H   UNL     1       1.487  -2.311   3.094  0.00  0.00    +0.149 HD
BRANCH  15  22
ATOM     19  C   UNL     1      -0.019   1.526   0.010  0.00  0.00    +0.008 C 
ATOM     20  C   UNL     1       0.002  -0.004   0.002  0.00  0.00    -0.002 C 
ATOM     21  C   UNL     1       1.351  -0.691  -0.221  0.00  0.00    +0.017 C 
ATOM     22  C   UNL     1       0.703  -0.708   1.166  0.00  0.00    +0.078 C 
ENDBRANCH  15  22
ENDBRANCH   1  17
TORSDOF 5
