REMARK  Name = ZINC52778615
REMARK  11 active torsions:
REMARK  status: ('A' for Active; 'I' for Inactive)
REMARK    1  A    between atoms: C_1  and  C_2
REMARK    2  A    between atoms: C_2  and  C_3
REMARK    3  A    between atoms: C_3  and  O_4
REMARK    4  A    between atoms: O_4  and  C_5
REMARK    5  A    between atoms: C_8  and  O_11
REMARK    6  A    between atoms: O_11  and  C_12
REMARK    7  A    between atoms: C_12  and  C_13
REMARK    8  A    between atoms: C_13  and  N_15
REMARK    9  A    between atoms: C_19  and  C_22
REMARK   10  A    between atoms: C_27  and  O_28
REMARK   11  A    between atoms: O_28  and  C_29
REMARK                            x       y       z     vdW  Elec       q    Type
REMARK                         _______ _______ _______ _____ _____    ______ ____
ROOT
ATOM      1  N   UNL     1       4.028  -7.578  -7.007  0.00  0.00    -0.143 NA
ATOM      2  C   UNL     1       4.652  -8.009  -8.105  0.00  0.00    +0.216 A 
ATOM      3  N   UNL     1       5.203  -7.231  -9.075  0.00  0.00    -0.309 N 
ATOM      4  H   UNL     1       5.211  -6.261  -9.090  0.00  0.00    +0.170 HD
ATOM      5  C   UNL     1       5.748  -8.059 -10.032  0.00  0.00    +0.164 A 
ATOM      6  N   UNL     1       5.546  -9.298  -9.675  0.00  0.00    -0.153 NA
ATOM      7  N   UNL     1       4.858  -9.297  -8.454  0.00  0.00    -0.246 N 
ATOM      8  H   UNL     1       4.579 -10.079  -7.953  0.00  0.00    +0.192 HD
ENDROOT
BRANCH   5   9
ATOM      9  C   UNL     1       6.445  -7.618 -11.259  0.00  0.00    +0.061 A 
ATOM     10  C   UNL     1       6.602  -6.258 -11.525  0.00  0.00    +0.015 A 
ATOM     11  C   UNL     1       7.254  -5.852 -12.671  0.00  0.00    +0.001 A 
ATOM     12  C   UNL     1       7.754  -6.789 -13.559  0.00  0.00    +0.004 A 
ATOM     13  C   UNL     1       7.604  -8.139 -13.306  0.00  0.00    +0.046 A 
ATOM     14  C   UNL     1       6.957  -8.563 -12.156  0.00  0.00    +0.131 A 
BRANCH  14  15
ATOM     15  O   UNL     1       6.814  -9.890 -11.903  0.00  0.00    -0.494 OA
ATOM     16  C   UNL     1       7.361 -10.795 -12.864  0.00  0.00    +0.277 C 
ENDBRANCH  14  15
ENDBRANCH   5   9
BRANCH   1  17
ATOM     17  C   UNL     1       3.895  -6.276  -6.787  0.00  0.00    +0.277 C 
ATOM     18  O   UNL     1       4.342  -5.475  -7.585  0.00  0.00    -0.270 OA
BRANCH  17  19
ATOM     19  C   UNL     1       3.190  -5.790  -5.547  0.00  0.00    +0.326 C 
BRANCH  19  20
ATOM     20  O   UNL     1       3.175  -4.362  -5.536  0.00  0.00    -0.483 OA
BRANCH  20  24
ATOM     21  C   UNL     1       1.342  -2.530  -2.323  0.00  0.00    +0.121 A 
ATOM     22  C   UNL     1       1.908  -1.761  -3.329  0.00  0.00    +0.049 A 
ATOM     23  C   UNL     1       2.522  -2.374  -4.404  0.00  0.00    +0.049 A 
ATOM     24  C   UNL     1       2.572  -3.758  -4.477  0.00  0.00    +0.121 A 
ATOM     25  C   UNL     1       2.006  -4.527  -3.471  0.00  0.00    +0.049 A 
ATOM     26  C   UNL     1       1.396  -3.914  -2.394  0.00  0.00    +0.049 A 
BRANCH  21  27
ATOM     27  O   UNL     1       0.738  -1.926  -1.265  0.00  0.00    -0.492 OA
BRANCH  27  28
ATOM     28  C   UNL     1       0.718  -0.497  -1.257  0.00  0.00    +0.229 C 
BRANCH  28  30
ATOM     29  C   UNL     1      -0.019   1.526   0.010  0.00  0.00    +0.007 C 
ATOM     30  C   UNL     1       0.002  -0.004   0.002  0.00  0.00    +0.038 C 
ENDBRANCH  28  30
ENDBRANCH  27  28
ENDBRANCH  21  27
ENDBRANCH  20  24
ENDBRANCH  19  20
ENDBRANCH  17  19
ENDBRANCH   1  17
TORSDOF 9
