REMARK  Name = ZINC39210879
REMARK  5 active torsions:
REMARK  status: ('A' for Active; 'I' for Inactive)
REMARK    1  A    between atoms: C_1  and  C_2
REMARK    2  A    between atoms: C_9  and  C_12
REMARK    3  A    between atoms: C_12  and  C_27
REMARK    4  A    between atoms: C_13  and  C_14
REMARK    5  A    between atoms: C_19  and  C_20
REMARK                            x       y       z     vdW  Elec       q    Type
REMARK                         _______ _______ _______ _____ _____    ______ ____
ROOT
ATOM      1  C   UNL     1       0.090  -5.483   2.399  0.00  0.00    +0.091 C 
ATOM      2  C   UNL     1       0.096  -5.458   3.744  0.00  0.00    +0.011 C 
ENDROOT
BRANCH   1  11
ATOM      3  C   UNL     1      -0.018   1.503   0.010  0.00  0.00    +0.044 C 
ATOM      4  C   UNL     1       0.002  -0.004   0.002  0.00  0.00    -0.048 A 
ATOM      5  C   UNL     1       0.006  -0.684  -1.208  0.00  0.00    +0.005 A 
ATOM      6  C   UNL     1       0.024  -2.063  -1.235  0.00  0.00    +0.028 A 
ATOM      7  C   UNL     1       0.040  -2.774  -0.043  0.00  0.00    +0.066 A 
ATOM      8  C   UNL     1       0.037  -2.085   1.183  0.00  0.00    +0.090 A 
ATOM      9  C   UNL     1       0.023  -0.686   1.185  0.00  0.00    +0.033 A 
ATOM     10  N   UNL     1       0.054  -3.018   2.166  0.00  0.00    -0.227 NA
ATOM     11  C   UNL     1       0.068  -4.216   1.636  0.00  0.00    +0.149 A 
ATOM     12  N   UNL     1       0.060  -4.119   0.271  0.00  0.00    -0.337 N 
ATOM     13  H   UNL     1       0.066  -4.857  -0.359  0.00  0.00    +0.167 HD
ENDBRANCH   1  11
BRANCH   2  14
ATOM     14  C   UNL     1       0.118  -6.750   4.521  0.00  0.00    +0.107 C 
ATOM     15  C   UNL     1       1.304  -6.786   5.463  0.00  0.00    +0.121 C 
ATOM     16  N   UNL     1       0.813  -6.871   6.657  0.00  0.00    -0.161 NA
ATOM     17  N   UNL     1      -0.578  -6.898   6.659  0.00  0.00    -0.153 NA
ATOM     18  C   UNL     1      -1.077  -6.834   5.450  0.00  0.00    +0.083 C 
BRANCH  18  19
ATOM     19  C   UNL     1      -2.498  -6.840   5.071  0.00  0.00    -0.001 A 
ATOM     20  C   UNL     1      -2.865  -6.768   3.723  0.00  0.00    +0.012 A 
ATOM     21  C   UNL     1      -4.198  -6.774   3.375  0.00  0.00    +0.039 A 
ATOM     22  C   UNL     1      -5.175  -6.851   4.357  0.00  0.00    +0.123 A 
ATOM     23  C   UNL     1      -4.817  -6.923   5.694  0.00  0.00    +0.039 A 
ATOM     24  C   UNL     1      -3.487  -6.923   6.056  0.00  0.00    +0.012 A 
ATOM     25  F   UNL     1      -6.480  -6.856   4.008  0.00  0.00    -0.205 F 
ENDBRANCH  18  19
ENDBRANCH   2  14
BRANCH   1  26
ATOM     26  C   UNL     1       0.104  -6.736   1.705  0.00  0.00    +0.103 C 
ATOM     27  N   UNL     1       0.115  -7.730   1.155  0.00  0.00    -0.191 NA
ENDBRANCH   1  26
TORSDOF 4
