REMARK  Name = ZINC21875386
REMARK  8 active torsions:
REMARK  status: ('A' for Active; 'I' for Inactive)
REMARK    1  A    between atoms: C_1  and  C_2
REMARK    2  A    between atoms: C_4  and  C_33
REMARK    3  A    between atoms: C_6  and  N_8
REMARK    4  A    between atoms: C_9  and  C_11
REMARK    5  A    between atoms: C_17  and  C_22
REMARK    6  A    between atoms: C_17  and  C_23
REMARK    7  A    between atoms: N_18  and  C_21
REMARK    8  A    between atoms: N_25  and  C_26
REMARK                            x       y       z     vdW  Elec       q    Type
REMARK                         _______ _______ _______ _____ _____    ______ ____
ROOT
ATOM      1  C   UNL     1       3.241   2.877  -0.265  0.00  0.00    +0.148 A 
ATOM      2  C   UNL     1       2.490   1.720  -0.571  0.00  0.00    +0.067 A 
ATOM      3  C   UNL     1       1.214   2.031  -0.248  0.00  0.00    +0.124 A 
ATOM      4  N   UNL     1       1.212   3.325   0.231  0.00  0.00    -0.256 N 
ATOM      5  N   UNL     1       2.402   3.785   0.208  0.00  0.00    -0.166 NA
ATOM      6  C   UNL     1      -0.033   3.967   0.669  0.00  0.00    +0.179 C 
ATOM      7  C   UNL     1      -1.202   3.401  -0.135  0.00  0.00    +0.130 C 
ATOM      8  N   UNL     1      -1.188   1.945  -0.205  0.00  0.00    -0.284 N 
ATOM      9  C   UNL     1      -0.032   1.249  -0.334  0.00  0.00    +0.265 C 
ATOM     10  O   UNL     1      -0.023   0.047  -0.516  0.00  0.00    -0.268 OA
ATOM     11  C   UNL     1      -2.455   1.215  -0.130  0.00  0.00    +0.133 C 
ATOM     12  C   UNL     1      -2.512   3.853   0.513  0.00  0.00    +0.044 C 
ENDROOT
BRANCH   1  14
ATOM     13  N   UNL     1       5.289   4.208  -0.106  0.00  0.00    -0.280 N 
ATOM     14  C   UNL     1       4.699   3.044  -0.440  0.00  0.00    +0.268 C 
ATOM     15  O   UNL     1       5.365   2.130  -0.886  0.00  0.00    -0.268 OA
ATOM     16  H   UNL     1       4.676   5.063   0.216  0.00  0.00    +0.155 HD
BRANCH  13  22
ATOM     17  C   UNL     1       9.739   2.170   0.356  0.00  0.00    +0.044 C 
ATOM     18  C   UNL     1       8.862   3.357   0.051  0.00  0.00    -0.048 A 
ATOM     19  C   UNL     1       9.435   4.569  -0.289  0.00  0.00    +0.006 A 
ATOM     20  C   UNL     1       8.634   5.661  -0.569  0.00  0.00    -0.048 A 
ATOM     21  C   UNL     1       7.259   5.545  -0.509  0.00  0.00    +0.026 A 
ATOM     22  C   UNL     1       6.681   4.329  -0.168  0.00  0.00    +0.034 A 
ATOM     23  C   UNL     1       7.488   3.236   0.118  0.00  0.00    +0.026 A 
ATOM     24  C   UNL     1       9.262   6.980  -0.940  0.00  0.00    +0.044 C 
ENDBRANCH  13  22
ENDBRANCH   1  14
BRANCH   7  25
ATOM     25  C   UNL     1      -1.139   3.950  -1.537  0.00  0.00    +0.238 C 
ATOM     26  O   UNL     1      -0.582   5.006  -1.750  0.00  0.00    -0.273 OA
ATOM     27  N   UNL     1      -1.702   3.268  -2.554  0.00  0.00    -0.311 N 
ATOM     28  H   UNL     1      -2.207   2.310  -2.360  0.00  0.00    +0.149 HD
BRANCH  27  29
ATOM     29  C   UNL     1      -1.640   3.801  -3.917  0.00  0.00    +0.073 C 
ATOM     30  C   UNL     1      -2.786   4.816  -4.108  0.00  0.00    +0.022 C 
ATOM     31  C   UNL     1      -2.439   5.717  -5.263  0.00  0.00    +0.002 C 
ATOM     32  C   UNL     1      -3.039   5.224  -6.594  0.00  0.00    +0.000 C 
ATOM     33  C   UNL     1      -2.927   3.698  -6.770  0.00  0.00    +0.000 C 
ATOM     34  C   UNL     1      -1.593   3.162  -6.324  0.00  0.00    +0.002 C 
ATOM     35  C   UNL     1      -1.718   2.696  -4.860  0.00  0.00    +0.022 C 
ENDBRANCH  27  29
ENDBRANCH   7  25
TORSDOF 4
