REMARK  Name = ZINC67133269
REMARK  5 active torsions:
REMARK  status: ('A' for Active; 'I' for Inactive)
REMARK    1  A    between atoms: C_1  and  C_2
REMARK    2  A    between atoms: C_8  and  N_10
REMARK    3  A    between atoms: C_11  and  C_13
REMARK    4  A    between atoms: N_15  and  C_18
REMARK    5  A    between atoms: C_22  and  N_24
REMARK                            x       y       z     vdW  Elec       q    Type
REMARK                         _______ _______ _______ _____ _____    ______ ____
ROOT
ATOM      1  C   UNL     1       4.179   0.638   2.378  0.00  0.00    +0.167 A 
ATOM      2  C   UNL     1       4.974   0.813   3.475  0.00  0.00    +0.149 A 
ATOM      3  N   UNL     1       6.154   1.295   3.029  0.00  0.00    -0.219 N 
ATOM      4  N   UNL     1       6.046   1.405   1.635  0.00  0.00    -0.060 NA
ATOM      5  N   UNL     1       4.873   1.005   1.286  0.00  0.00    -0.124 NA
ENDROOT
BRANCH   3   6
ATOM      6  C   UNL     1       7.272   1.623   3.809  0.00  0.00    +0.069 A 
ATOM      7  C   UNL     1       7.232   1.455   5.187  0.00  0.00    +0.028 A 
ATOM      8  C   UNL     1       8.335   1.780   5.953  0.00  0.00    +0.004 A 
ATOM      9  C   UNL     1       9.478   2.271   5.349  0.00  0.00    +0.033 A 
ATOM     10  C   UNL     1       9.520   2.439   3.977  0.00  0.00    +0.128 A 
ATOM     11  C   UNL     1       8.423   2.111   3.205  0.00  0.00    +0.060 A 
BRANCH  10  12
ATOM     12  N   UNL     1      10.745   2.966   3.335  0.00  0.00    +0.056 N 
ATOM     13  O   UNL     1      11.708   3.249   4.009  0.00  0.00    -0.126 OA
ATOM     14  O   UNL     1      10.783   3.114   2.135  0.00  0.00    -0.126 OA
ENDBRANCH  10  12
ENDBRANCH   3   6
BRANCH   1  16
ATOM     15  N   UNL     1       2.116  -0.004   1.231  0.00  0.00    -0.307 N 
ATOM     16  C   UNL     1       2.795   0.128   2.388  0.00  0.00    +0.266 C 
ATOM     17  O   UNL     1       2.266  -0.174   3.441  0.00  0.00    -0.268 OA
ATOM     18  H   UNL     1       2.538   0.237   0.392  0.00  0.00    +0.149 HD
BRANCH  15  25
ATOM     19  C   UNL     1      -0.019   1.526   0.010  0.00  0.00    +0.009 C 
ATOM     20  C   UNL     1       0.002  -0.004   0.002  0.00  0.00    +0.006 C 
ATOM     21  C   UNL     1       0.718  -0.497  -1.257  0.00  0.00    +0.005 C 
ATOM     22  C   UNL     1       0.739  -2.027  -1.265  0.00  0.00    +0.000 C 
ATOM     23  C   UNL     1       1.479  -2.534  -0.026  0.00  0.00    +0.002 C 
ATOM     24  C   UNL     1       0.763  -2.041   1.233  0.00  0.00    +0.022 C 
ATOM     25  C   UNL     1       0.742  -0.511   1.242  0.00  0.00    +0.076 C 
ENDBRANCH  15  25
ENDBRANCH   1  16
TORSDOF 4
