REMARK  Name = ZINC01945456
REMARK  11 active torsions:
REMARK  status: ('A' for Active; 'I' for Inactive)
REMARK    1  A    between atoms: C_1  and  C_2
REMARK    2  A    between atoms: C_9  and  N_14
REMARK    3  A    between atoms: C_10  and  C_11
REMARK    4  A    between atoms: C_15  and  C_17
REMARK    5  A    between atoms: C_18  and  C_19
REMARK    6  A    between atoms: C_22  and  O_27
REMARK    7  A    between atoms: C_23  and  O_25
REMARK    8  A    between atoms: O_25  and  C_26
REMARK    9  A    between atoms: O_27  and  C_28
REMARK   10  A    between atoms: C_28  and  C_29
REMARK   11  A    between atoms: C_28  and  C_30
REMARK                            x       y       z     vdW  Elec       q    Type
REMARK                         _______ _______ _______ _____ _____    ______ ____
ROOT
ATOM      1  N   UNL     1       1.526  -5.899   1.821  0.00  0.00    -0.276 N 
ATOM      2  C   UNL     1       2.038  -6.122   3.047  0.00  0.00    +0.241 C 
ATOM      3  O   UNL     1       2.199  -5.194   3.818  0.00  0.00    -0.270 OA
ATOM      4  H   UNL     1       1.397  -6.639   1.207  0.00  0.00    +0.156 HD
ENDROOT
BRANCH   1  12
ATOM      5  C   UNL     1      -0.357   1.471   0.128  0.00  0.00    +0.008 C 
ATOM      6  C   UNL     1      -0.408  -0.057   0.191  0.00  0.00    -0.009 C 
ATOM      7  C   UNL     1       0.066  -0.642  -1.143  0.00  0.00    +0.008 C 
ATOM      8  C   UNL     1      -0.211  -2.146  -1.180  0.00  0.00    +0.037 C 
ATOM      9  C   UNL     1       0.374  -2.781   0.073  0.00  0.00    -0.023 A 
ATOM     10  C   UNL     1       0.685  -2.037   1.157  0.00  0.00    -0.004 A 
ATOM     11  S   UNL     1       1.319  -3.198   2.331  0.00  0.00    -0.077 S 
ATOM     12  C   UNL     1       1.183  -4.613   1.437  0.00  0.00    +0.085 A 
ATOM     13  C   UNL     1       0.647  -4.199   0.227  0.00  0.00    +0.068 A 
ATOM     14  C   UNL     1       0.517  -0.557   1.312  0.00  0.00    +0.046 C 
BRANCH  13  15
ATOM     15  C   UNL     1       0.369  -5.152  -0.851  0.00  0.00    +0.244 C 
ATOM     16  O   UNL     1       1.225  -5.402  -1.679  0.00  0.00    -0.270 OA
ATOM     17  N   UNL     1      -0.836  -5.752  -0.926  0.00  0.00    -0.325 N 
ATOM     18  H   UNL     1      -1.518  -5.553  -0.266  0.00  0.00    +0.145 HD
ATOM     19  H   UNL     1      -1.020  -6.383  -1.639  0.00  0.00    +0.145 HD
ENDBRANCH  13  15
ENDBRANCH   1  12
BRANCH   2  20
ATOM     20  C   UNL     1       2.401  -7.479   3.452  0.00  0.00    +0.068 C 
ATOM     21  C   UNL     1       2.914  -7.703   4.681  0.00  0.00    +0.013 C 
BRANCH  21  22
ATOM     22  C   UNL     1       3.278  -9.067   5.088  0.00  0.00    -0.021 A 
ATOM     23  C   UNL     1       3.099 -10.136   4.202  0.00  0.00    +0.012 A 
ATOM     24  C   UNL     1       3.442 -11.413   4.585  0.00  0.00    +0.050 A 
ATOM     25  C   UNL     1       3.965 -11.645   5.851  0.00  0.00    +0.162 A 
ATOM     26  C   UNL     1       4.146 -10.586   6.740  0.00  0.00    +0.162 A 
ATOM     27  C   UNL     1       3.811  -9.302   6.361  0.00  0.00    +0.057 A 
BRANCH  26  28
ATOM     28  O   UNL     1       4.657 -10.819   7.978  0.00  0.00    -0.491 OA
ATOM     29  C   UNL     1       4.816  -9.688   8.837  0.00  0.00    +0.277 C 
ENDBRANCH  26  28
BRANCH  25  30
ATOM     30  O   UNL     1       4.300 -12.908   6.224  0.00  0.00    -0.486 OA
BRANCH  30  31
ATOM     31  C   UNL     1       4.203 -13.926   5.227  0.00  0.00    +0.167 C 
ATOM     32  C   UNL     1       5.152 -15.074   5.575  0.00  0.00    +0.051 C 
ATOM     33  C   UNL     1       2.767 -14.451   5.173  0.00  0.00    +0.051 C 
ENDBRANCH  30  31
ENDBRANCH  25  30
ENDBRANCH  21  22
ENDBRANCH   2  20
TORSDOF 7
