REMARK  Name = ZINC04598642
REMARK  8 active torsions:
REMARK  status: ('A' for Active; 'I' for Inactive)
REMARK    1  A    between atoms: C_1  and  C_2
REMARK    2  A    between atoms: C_3  and  C_26
REMARK    3  A    between atoms: C_11  and  O_14
REMARK    4  A    between atoms: O_14  and  C_15
REMARK    5  A    between atoms: N_19  and  C_20
REMARK    6  A    between atoms: C_26  and  O_28
REMARK    7  A    between atoms: O_28  and  C_29
REMARK    8  A    between atoms: C_29  and  C_30
REMARK                            x       y       z     vdW  Elec       q    Type
REMARK                         _______ _______ _______ _____ _____    ______ ____
ROOT
ATOM      1  C   UNL     1      -3.707   2.679   6.202  0.00  0.00    +0.080 C 
ATOM      2  C   UNL     1      -3.102   3.277   4.930  0.00  0.00    +0.196 C 
ATOM      3  C   UNL     1      -2.441   4.622   5.263  0.00  0.00    +0.185 C 
ATOM      4  C   UNL     1      -1.972   5.230   3.931  0.00  0.00    +0.125 C 
ATOM      5  C   UNL     1      -1.103   4.213   3.225  0.00  0.00    +0.019 A 
ATOM      6  C   UNL     1      -0.182   4.653   2.290  0.00  0.00    +0.009 A 
ATOM      7  C   UNL     1       0.619   3.747   1.622  0.00  0.00    +0.004 A 
ATOM      8  C   UNL     1       0.506   2.395   1.891  0.00  0.00    +0.049 A 
ATOM      9  C   UNL     1      -0.414   1.950   2.824  0.00  0.00    +0.162 A 
ATOM     10  C   UNL     1      -1.224   2.865   3.500  0.00  0.00    +0.170 A 
ATOM     11  O   UNL     1      -2.107   2.393   4.419  0.00  0.00    -0.463 OA
ATOM     12  N   UNL     1      -3.166   5.442   3.095  0.00  0.00    -0.318 N 
ATOM     13  C   UNL     1      -4.169   4.550   3.127  0.00  0.00    +0.141 C 
ATOM     14  S   UNL     1      -5.506   4.773   2.080  0.00  0.00    -0.018 S 
ATOM     15  N   UNL     1      -4.162   3.489   3.949  0.00  0.00    -0.243 N 
ATOM     16  H   UNL     1      -3.228   6.224   2.524  0.00  0.00    +0.148 HD
ENDROOT
BRANCH  15  17
ATOM     17  C   UNL     1      -5.204   2.559   3.864  0.00  0.00    +0.039 A 
ATOM     18  C   UNL     1      -5.051   1.413   3.094  0.00  0.00    +0.023 A 
ATOM     19  C   UNL     1      -6.079   0.493   3.016  0.00  0.00    +0.002 A 
ATOM     20  C   UNL     1      -7.263   0.718   3.695  0.00  0.00    +0.000 A 
ATOM     21  C   UNL     1      -7.420   1.861   4.458  0.00  0.00    +0.002 A 
ATOM     22  C   UNL     1      -6.394   2.781   4.544  0.00  0.00    +0.023 A 
ENDBRANCH  15  17
BRANCH   9  23
ATOM     23  O   UNL     1      -0.527   0.620   3.085  0.00  0.00    -0.491 OA
ATOM     24  C   UNL     1       0.333  -0.259   2.357  0.00  0.00    +0.277 C 
ENDBRANCH   9  23
BRANCH   3  25
ATOM     25  C   UNL     1      -1.260   4.404   6.173  0.00  0.00    +0.318 C 
ATOM     26  O   UNL     1      -0.967   3.286   6.526  0.00  0.00    -0.250 OA
BRANCH  25  27
ATOM     27  O   UNL     1      -0.532   5.452   6.591  0.00  0.00    -0.460 OA
BRANCH  27  28
ATOM     28  C   UNL     1       0.591   5.167   7.466  0.00  0.00    +0.259 C 
BRANCH  28  29
ATOM     29  C   UNL     1       1.284   6.455   7.830  0.00  0.00    +0.006 C 
ATOM     30  C   UNL     1       1.634   6.683   9.071  0.00  0.00    +0.007 C 
ENDBRANCH  28  29
ENDBRANCH  27  28
ENDBRANCH  25  27
ENDBRANCH   3  25
TORSDOF 6
