REMARK  Name = ZINC06149257
REMARK  10 active torsions:
REMARK  status: ('A' for Active; 'I' for Inactive)
REMARK    1  A    between atoms: C_1  and  C_2
REMARK    2  A    between atoms: C_2  and  C_3
REMARK    3  A    between atoms: C_3  and  C_4
REMARK    4  A    between atoms: C_3  and  C_5
REMARK    5  A    between atoms: C_3  and  N_6
REMARK    6  A    between atoms: C_7  and  C_11
REMARK    7  A    between atoms: C_11  and  C_13
REMARK    8  A    between atoms: C_11  and  N_66
REMARK    9  A    between atoms: C_18  and  C_26
REMARK   10  A    between atoms: C_19  and  C_25
REMARK                            x       y       z     vdW  Elec       q    Type
REMARK                         _______ _______ _______ _____ _____    ______ ____
ROOT
ATOM      1  C   UNL     1       5.022   1.130  -0.081  0.00  0.00    +0.039 C 
ENDROOT
BRANCH   1   2
ATOM      2  C   UNL     1       3.794   1.990  -0.241  0.00  0.00    +0.011 A 
ATOM      3  C   UNL     1       2.565   1.418  -0.249  0.00  0.00    +0.017 A 
ATOM      4  C   UNL     1       1.393   2.280  -0.407  0.00  0.00    -0.001 A 
ATOM      5  C   UNL     1       0.099   1.748  -0.422  0.00  0.00    +0.010 A 
ATOM      6  C   UNL     1      -0.973   2.580  -0.576  0.00  0.00    +0.004 A 
ATOM      7  C   UNL     1      -0.792   3.950  -0.706  0.00  0.00    -0.046 A 
ATOM      8  C   UNL     1       0.473   4.497  -0.694  0.00  0.00    -0.024 A 
ATOM      9  C   UNL     1       1.581   3.669  -0.544  0.00  0.00    +0.052 A 
ATOM     10  N   UNL     1       2.858   4.188  -0.528  0.00  0.00    -0.322 N 
ATOM     11  H   UNL     1       2.990   5.175  -0.627  0.00  0.00    +0.169 HD
ATOM     12  C   UNL     1       3.929   3.388  -0.383  0.00  0.00    +0.251 A 
ATOM     13  O   UNL     1       5.043   3.882  -0.373  0.00  0.00    -0.268 OA
ATOM     14  C   UNL     1       0.656   5.985  -0.842  0.00  0.00    +0.046 C 
ATOM     15  C   UNL     1      -1.990   4.849  -0.869  0.00  0.00    +0.044 C 
ENDBRANCH   1   2
BRANCH   1  25
ATOM     16  C   UNL     1       5.351   0.946  -2.475  0.00  0.00    -0.072 C 
ATOM     17  C   UNL     1       6.168   1.549  -3.618  0.00  0.00    +0.017 C 
ATOM     18  C   UNL     1       7.634   1.273  -3.404  0.00  0.00    -0.048 A 
ATOM     19  C   UNL     1       8.498   1.419  -4.478  0.00  0.00    +0.004 A 
ATOM     20  C   UNL     1       9.849   1.181  -4.324  0.00  0.00    +0.000 A 
ATOM     21  C   UNL     1      10.343   0.792  -3.092  0.00  0.00    +0.000 A 
ATOM     22  C   UNL     1       9.483   0.644  -2.023  0.00  0.00    +0.002 A 
ATOM     23  C   UNL     1       8.125   0.883  -2.176  0.00  0.00    -0.061 A 
ATOM     24  C   UNL     1       7.226   0.704  -0.981  0.00  0.00    -0.041 C 
ATOM     25  N   UNL     1       5.949   1.401  -1.203  0.00  0.00    +0.392 N 
ATOM     26  H   UNL     1       6.122   2.411  -1.257  0.00  0.00    -0.080 HD
ENDBRANCH   1  25
BRANCH   1  28
ATOM     27  N   UNL     1       5.782   0.691   2.314  0.00  0.00    -0.225 N 
ATOM     28  C   UNL     1       5.706   1.470   1.218  0.00  0.00    +0.143 A 
ATOM     29  N   UNL     1       6.338   2.582   1.503  0.00  0.00    -0.115 NA
ATOM     30  N   UNL     1       6.783   2.490   2.708  0.00  0.00    -0.023 NA
ATOM     31  N   UNL     1       6.452   1.347   3.200  0.00  0.00    -0.043 NA
BRANCH  27  32
ATOM     32  C   UNL     1       5.214  -0.650   2.469  0.00  0.00    +0.061 C 
ATOM     33  C   UNL     1       3.706  -0.598   2.214  0.00  0.00    +0.036 C 
ATOM     34  C   UNL     1       5.869  -1.601   1.464  0.00  0.00    +0.036 C 
BRANCH  32  36
ATOM     35  C   UNL     1       4.881  -2.554   4.053  0.00  0.00    +0.006 C 
ATOM     36  C   UNL     1       5.474  -1.153   3.890  0.00  0.00    +0.026 C 
ENDBRANCH  32  36
ENDBRANCH  27  32
ENDBRANCH   1  28
TORSDOF 5
