REMARK  Name = ZINC12498210
REMARK  14 active torsions:
REMARK  status: ('A' for Active; 'I' for Inactive)
REMARK    1  A    between atoms: C_1  and  C_2
REMARK    2  A    between atoms: C_2  and  C_3
REMARK    3  A    between atoms: C_3  and  C_4
REMARK    4  A    between atoms: C_4  and  C_35
REMARK    5  A    between atoms: C_9  and  C_11
REMARK    6  A    between atoms: C_14  and  O_19
REMARK    7  A    between atoms: C_15  and  O_17
REMARK    8  A    between atoms: O_17  and  C_18
REMARK    9  A    between atoms: O_19  and  C_20
REMARK   10  A    between atoms: N_23  and  C_26
REMARK   11  A    between atoms: C_30  and  C_32
REMARK   12  A    between atoms: C_32  and  C_34
REMARK   13  A    between atoms: C_35  and  O_37
REMARK   14  A    between atoms: O_37  and  C_38
REMARK                            x       y       z     vdW  Elec       q    Type
REMARK                         _______ _______ _______ _____ _____    ______ ____
ROOT
ATOM      1  C   UNL     1      -7.538   3.990   5.758  0.00  0.00    +0.044 C 
ATOM      2  C   UNL     1      -6.516   3.246   4.977  0.00  0.00    +0.086 C 
ATOM      3  C   UNL     1      -5.199   3.966   5.473  0.00  0.00    +0.077 C 
ATOM      4  C   UNL     1      -5.457   3.870   6.957  0.00  0.00    -0.027 C 
ATOM      5  C   UNL     1      -4.234   3.163   4.687  0.00  0.00    +0.229 C 
ATOM      6  O   UNL     1      -3.126   2.806   5.024  0.00  0.00    -0.275 OA
ATOM      7  N   UNL     1      -4.862   2.911   3.495  0.00  0.00    -0.210 N 
ATOM      8  C   UNL     1      -6.213   3.144   3.552  0.00  0.00    +0.229 C 
ATOM      9  O   UNL     1      -6.986   3.244   2.623  0.00  0.00    -0.275 OA
ATOM     10  N   UNL     1      -6.890   4.280   7.050  0.00  0.00    +0.395 N 
ATOM     11  H   UNL     1      -7.355   3.752   7.798  0.00  0.00    -0.083 HD
ATOM     12  H   UNL     1      -6.951   5.285   7.252  0.00  0.00    -0.083 HD
ENDROOT
BRANCH   4  13
ATOM     13  C   UNL     1      -4.568   4.819   7.718  0.00  0.00    -0.057 A 
ATOM     14  C   UNL     1      -4.899   6.159   7.799  0.00  0.00    +0.006 A 
ATOM     15  C   UNL     1      -4.086   7.034   8.495  0.00  0.00    +0.049 A 
ATOM     16  C   UNL     1      -2.937   6.568   9.115  0.00  0.00    +0.161 A 
ATOM     17  C   UNL     1      -2.605   5.220   9.034  0.00  0.00    +0.162 A 
ATOM     18  C   UNL     1      -3.426   4.347   8.338  0.00  0.00    +0.051 A 
BRANCH  17  19
ATOM     19  O   UNL     1      -1.478   4.758   9.640  0.00  0.00    -0.491 OA
ATOM     20  C   UNL     1      -1.200   3.362   9.515  0.00  0.00    +0.277 C 
ENDBRANCH  17  19
BRANCH  16  21
ATOM     21  O   UNL     1      -2.137   7.428   9.801  0.00  0.00    -0.491 OA
ATOM     22  C   UNL     1      -2.541   8.798   9.842  0.00  0.00    +0.277 C 
ENDBRANCH  16  21
ENDBRANCH   4  13
BRANCH   7  23
ATOM     23  C   UNL     1      -4.198   2.458   2.346  0.00  0.00    +0.045 A 
ATOM     24  C   UNL     1      -4.913   2.222   1.178  0.00  0.00    +0.024 A 
ATOM     25  C   UNL     1      -4.265   1.776   0.041  0.00  0.00    +0.003 A 
ATOM     26  C   UNL     1      -2.901   1.567   0.056  0.00  0.00    +0.011 A 
ATOM     27  C   UNL     1      -2.172   1.798   1.226  0.00  0.00    +0.019 A 
ATOM     28  C   UNL     1      -2.830   2.248   2.375  0.00  0.00    +0.035 A 
BRANCH  27  29
ATOM     29  C   UNL     1      -0.718   1.572   1.248  0.00  0.00    +0.160 C 
ATOM     30  O   UNL     1      -0.088   1.777   2.263  0.00  0.00    -0.292 OA
ATOM     31  C   UNL     1      -0.013   1.086   0.008  0.00  0.00    +0.091 C 
ENDBRANCH  27  29
ENDBRANCH   7  23
BRANCH   1  32
ATOM     32  C   UNL     1      -7.894   5.279   5.063  0.00  0.00    +0.297 C 
ATOM     33  O   UNL     1      -7.745   5.383   3.868  0.00  0.00    -0.252 OA
BRANCH  32  34
ATOM     34  O   UNL     1      -8.376   6.313   5.771  0.00  0.00    -0.469 OA
ATOM     35  C   UNL     1      -8.697   7.523   5.035  0.00  0.00    +0.280 C 
ENDBRANCH  32  34
ENDBRANCH   1  32
BRANCH   1  36
ATOM     36  C   UNL     1      -8.786   3.130   5.960  0.00  0.00    -0.001 C 
BRANCH  36  38
ATOM     37  C   UNL     1     -11.071   3.055   6.968  0.00  0.00    +0.004 C 
ATOM     38  C   UNL     1      -9.823   3.916   6.765  0.00  0.00    -0.004 C 
ENDBRANCH  36  38
ENDBRANCH   1  36
TORSDOF 9
