REMARK  Name = ZINC03850729
REMARK  14 active torsions:
REMARK  status: ('A' for Active; 'I' for Inactive)
REMARK    1  A    between atoms: C_1  and  C_2
REMARK    2  A    between atoms: C_3  and  O_35
REMARK    3  A    between atoms: C_9  and  O_13
REMARK    4  A    between atoms: C_11  and  O_12
REMARK    5  A    between atoms: C_16  and  O_34
REMARK    6  A    between atoms: C_18  and  C_21
REMARK    7  A    between atoms: C_21  and  C_23
REMARK    8  A    between atoms: C_21  and  O_32
REMARK    9  A    between atoms: C_23  and  C_25
REMARK   10  A    between atoms: C_25  and  C_27
REMARK   11  A    between atoms: C_25  and  O_31
REMARK   12  A    between atoms: C_27  and  C_29
REMARK   13  A    between atoms: C_27  and  O_30
REMARK   14  A    between atoms: O_32  and  C_33
REMARK                            x       y       z     vdW  Elec       q    Type
REMARK                         _______ _______ _______ _____ _____    ______ ____
ROOT
ATOM      1  C   UNL     1      -1.558   1.629   1.715  0.00  0.00    +0.051 C 
ATOM      2  C   UNL     1      -1.288   0.168   1.462  0.00  0.00    +0.033 A 
ATOM      3  C   UNL     1      -1.102  -0.284   0.154  0.00  0.00    +0.124 A 
ATOM      4  C   UNL     1      -0.855  -1.616  -0.103  0.00  0.00    +0.054 A 
ATOM      5  C   UNL     1      -0.788  -2.532   0.956  0.00  0.00    -0.007 A 
ATOM      6  C   UNL     1      -0.540  -3.898   0.714  0.00  0.00    +0.013 A 
ATOM      7  C   UNL     1      -0.476  -4.784   1.743  0.00  0.00    -0.032 A 
ATOM      8  C   UNL     1      -0.652  -4.341   3.070  0.00  0.00    +0.065 A 
ATOM      9  C   UNL     1      -0.904  -2.993   3.345  0.00  0.00    +0.139 A 
ATOM     10  C   UNL     1      -0.975  -2.074   2.284  0.00  0.00    +0.066 A 
ATOM     11  C   UNL     1      -1.222  -0.707   2.522  0.00  0.00    +0.134 A 
ATOM     12  C   UNL     1      -0.568  -5.297   4.181  0.00  0.00    +0.195 C 
ATOM     13  O   UNL     1      -0.505  -4.917   5.332  0.00  0.00    -0.289 OA
ATOM     14  C   UNL     1      -0.563  -6.773   3.843  0.00  0.00    +0.192 C 
ATOM     15  C   UNL     1       0.365  -6.965   2.636  0.00  0.00    +0.066 C 
ATOM     16  C   UNL     1      -0.217  -6.234   1.429  0.00  0.00    +0.045 C 
ENDROOT
BRANCH  11  17
ATOM     17  O   UNL     1      -1.400  -0.256   3.790  0.00  0.00    -0.506 OA
ATOM     18  H   UNL     1      -2.319  -0.274   4.089  0.00  0.00    +0.292 HD
ENDBRANCH  11  17
BRANCH   9  19
ATOM     19  O   UNL     1      -1.078  -2.578   4.622  0.00  0.00    -0.505 OA
ATOM     20  H   UNL     1      -0.261  -2.310   5.063  0.00  0.00    +0.292 HD
ENDBRANCH   9  19
BRANCH  14  21
ATOM     21  O   UNL     1      -1.886  -7.200   3.512  0.00  0.00    -0.384 OA
ATOM     22  H   UNL     1      -2.529  -7.076   4.224  0.00  0.00    +0.210 HD
ENDBRANCH  14  21
BRANCH   3  23
ATOM     23  O   UNL     1      -1.166   0.598  -0.876  0.00  0.00    -0.506 OA
ATOM     24  H   UNL     1      -0.316   1.001  -1.102  0.00  0.00    +0.292 HD
ENDBRANCH   3  23
BRANCH  15  25
ATOM     25  C   UNL     1       0.489  -8.456   2.319  0.00  0.00    +0.193 C 
BRANCH  25  26
ATOM     26  C   UNL     1       1.166  -9.159   3.467  0.00  0.00    +0.193 C 
ATOM     27  O   UNL     1       0.506  -9.754   4.285  0.00  0.00    -0.292 OA
BRANCH  26  28
ATOM     28  C   UNL     1       2.667  -9.119   3.595  0.00  0.00    +0.211 C 
BRANCH  28  29
ATOM     29  C   UNL     1       3.281 -10.234   2.746  0.00  0.00    +0.147 C 
ATOM     30  C   UNL     1       4.807 -10.122   2.782  0.00  0.00    +0.041 C 
BRANCH  29  31
ATOM     31  O   UNL     1       2.885 -11.504   3.268  0.00  0.00    -0.389 OA
ATOM     32  H   UNL     1       3.093 -11.627   4.204  0.00  0.00    +0.210 HD
ENDBRANCH  29  31
ENDBRANCH  28  29
BRANCH  28  33
ATOM     33  O   UNL     1       3.151  -7.854   3.140  0.00  0.00    -0.382 OA
ATOM     34  H   UNL     1       2.938  -7.660   2.217  0.00  0.00    +0.210 HD
ENDBRANCH  28  33
ENDBRANCH  26  28
ENDBRANCH  25  26
BRANCH  25  35
ATOM     35  O   UNL     1      -0.813  -9.011   2.123  0.00  0.00    -0.372 OA
ATOM     36  C   UNL     1      -0.844 -10.113   1.213  0.00  0.00    +0.194 C 
ENDBRANCH  25  35
ENDBRANCH  15  25
TORSDOF 11
