REMARK  Name = ZINC63141413
REMARK  4 active torsions:
REMARK  status: ('A' for Active; 'I' for Inactive)
REMARK    1  A    between atoms: C_4  and  C_7
REMARK    2  A    between atoms: C_7  and  C_8
REMARK    3  A    between atoms: C_8  and  N_9
REMARK    4  A    between atoms: C_29  and  C_31
REMARK                            x       y       z     vdW  Elec       q    Type
REMARK                         _______ _______ _______ _____ _____    ______ ____
ROOT
ATOM      1  N   UNL     1       5.638  -1.379   1.164  0.00  0.00    -0.291 N 
ATOM      2  C   UNL     1       5.491  -2.823   1.228  0.00  0.00    +0.203 C 
ATOM      3  C   UNL     1       6.808  -3.522   1.296  0.00  0.00    +0.234 C 
ATOM      4  O   UNL     1       6.800  -4.734   1.354  0.00  0.00    -0.274 OA
ATOM      5  N   UNL     1       7.997  -2.908   1.296  0.00  0.00    -0.279 N 
ATOM      6  C   UNL     1       8.134  -1.458   1.210  0.00  0.00    +0.167 C 
ATOM      7  C   UNL     1       6.817  -0.758   1.149  0.00  0.00    +0.237 C 
ATOM      8  O   UNL     1       6.820   0.453   1.087  0.00  0.00    -0.274 OA
ATOM      9  C   UNL     1       8.973  -1.082  -0.025  0.00  0.00    +0.065 C 
ATOM     10  C   UNL     1      10.173  -1.997  -0.024  0.00  0.00    -0.034 C 
ATOM     11  C   UNL     1      11.473  -1.744  -0.119  0.00  0.00    -0.001 A 
ATOM     12  C   UNL     1      12.213  -0.497  -0.371  0.00  0.00    +0.010 A 
ATOM     13  C   UNL     1      13.569  -0.597  -0.382  0.00  0.00    +0.001 A 
ATOM     14  C   UNL     1      14.254  -1.797  -0.170  0.00  0.00    +0.002 A 
ATOM     15  C   UNL     1      13.654  -2.993   0.059  0.00  0.00    +0.026 A 
ATOM     16  C   UNL     1      12.229  -3.017   0.086  0.00  0.00    +0.043 A 
ATOM     17  N   UNL     1      11.408  -4.011   0.258  0.00  0.00    -0.375 N 
ATOM     18  C   UNL     1      10.040  -3.508   0.124  0.00  0.00    +0.131 C 
ATOM     19  C   UNL     1       9.210  -3.751   1.387  0.00  0.00    +0.133 C 
ATOM     20  H   UNL     1      11.660  -4.929   0.443  0.00  0.00    +0.160 HD
ENDROOT
BRANCH  19  21
ATOM     21  C   UNL     1      10.009  -3.366   2.606  0.00  0.00    -0.024 A 
ATOM     22  C   UNL     1      10.472  -2.072   2.748  0.00  0.00    +0.005 A 
ATOM     23  C   UNL     1      11.205  -1.718   3.866  0.00  0.00    +0.001 A 
ATOM     24  C   UNL     1      11.475  -2.659   4.842  0.00  0.00    +0.015 A 
ATOM     25  C   UNL     1      11.011  -3.955   4.700  0.00  0.00    +0.018 A 
ATOM     26  C   UNL     1      10.273  -4.306   3.584  0.00  0.00    +0.020 A 
ATOM     27 BR   UNL     1      11.380  -5.243   6.035  0.00  0.00    -0.050 Br
ENDBRANCH  19  21
BRANCH   1  28
ATOM     28  C   UNL     1       4.425  -0.560   1.106  0.00  0.00    +0.113 C 
BRANCH  28  29
ATOM     29  C   UNL     1       4.022  -0.347  -0.355  0.00  0.00    +0.054 C 
BRANCH  29  33
ATOM     30  C   UNL     1       0.483   2.038  -0.526  0.00  0.00    +0.000 A 
ATOM     31  C   UNL     1       1.725   2.643  -0.537  0.00  0.00    +0.000 A 
ATOM     32  C   UNL     1       2.871   1.871  -0.482  0.00  0.00    +0.004 A 
ATOM     33  C   UNL     1       2.773   0.494  -0.414  0.00  0.00    -0.046 A 
ATOM     34  C   UNL     1       1.531  -0.111  -0.402  0.00  0.00    +0.004 A 
ATOM     35  C   UNL     1       0.385   0.660  -0.459  0.00  0.00    +0.000 A 
ENDBRANCH  29  33
ENDBRANCH  28  29
ENDBRANCH   1  28
TORSDOF 4
