REMARK  Name = ZINC12470558
REMARK  16 active torsions:
REMARK  status: ('A' for Active; 'I' for Inactive)
REMARK    1  A    between atoms: C_1  and  C_2
REMARK    2  A    between atoms: C_5  and  C_8
REMARK    3  A    between atoms: C_8  and  C_10
REMARK    4  A    between atoms: C_8  and  N_17
REMARK    5  A    between atoms: N_12  and  C_13
REMARK    6  A    between atoms: C_13  and  C_14
REMARK    7  A    between atoms: C_13  and  C_15
REMARK    8  A    between atoms: C_13  and  C_16
REMARK    9  A    between atoms: N_17  and  C_18
REMARK   10  A    between atoms: C_18  and  C_19
REMARK   11  A    between atoms: C_24  and  O_25
REMARK   12  A    between atoms: O_25  and  C_26
REMARK   13  A    between atoms: C_27  and  C_29
REMARK   14  A    between atoms: C_29  and  N_30
REMARK   15  A    between atoms: C_32  and  C_35
REMARK   16  A    between atoms: C_38  and  C_40
REMARK                            x       y       z     vdW  Elec       q    Type
REMARK                         _______ _______ _______ _____ _____    ______ ____
ROOT
ATOM      1  N   UNL     1      -2.992   0.876  -1.541  0.00  0.00    -0.280 N 
ATOM      2  C   UNL     1      -2.676   1.907  -2.350  0.00  0.00    +0.240 C 
ATOM      3  O   UNL     1      -2.626   1.742  -3.551  0.00  0.00    -0.273 OA
ENDROOT
BRANCH   1   4
ATOM      4  C   UNL     1      -3.151  -0.469  -2.097  0.00  0.00    +0.193 C 
BRANCH   4   9
ATOM      5  C   UNL     1      -2.607  -4.377   2.126  0.00  0.00    +0.044 C 
ATOM      6  C   UNL     1      -2.749  -3.357   1.025  0.00  0.00    -0.050 A 
ATOM      7  C   UNL     1      -3.841  -3.402   0.178  0.00  0.00    +0.004 A 
ATOM      8  C   UNL     1      -3.971  -2.468  -0.832  0.00  0.00    +0.006 A 
ATOM      9  C   UNL     1      -3.009  -1.488  -0.996  0.00  0.00    -0.018 A 
ATOM     10  C   UNL     1      -1.915  -1.446  -0.152  0.00  0.00    +0.006 A 
ATOM     11  C   UNL     1      -1.787  -2.378   0.861  0.00  0.00    +0.004 A 
ENDBRANCH   4   9
BRANCH   4  12
ATOM     12  C   UNL     1      -2.093  -0.710  -3.143  0.00  0.00    +0.238 C 
ATOM     13  O   UNL     1      -0.994  -0.211  -3.019  0.00  0.00    -0.273 OA
ATOM     14  N   UNL     1      -2.367  -1.478  -4.215  0.00  0.00    -0.309 N 
ATOM     15  H   UNL     1      -3.246  -1.877  -4.314  0.00  0.00    +0.149 HD
BRANCH  14  16
ATOM     16  C   UNL     1      -1.338  -1.712  -5.231  0.00  0.00    +0.026 C 
ATOM     17  C   UNL     1      -0.130  -2.394  -4.587  0.00  0.00    +0.031 C 
ATOM     18  C   UNL     1      -1.904  -2.611  -6.333  0.00  0.00    +0.031 C 
ATOM     19  C   UNL     1      -0.906  -0.374  -5.836  0.00  0.00    +0.031 C 
ENDBRANCH  14  16
ENDBRANCH   4  12
ENDBRANCH   1   4
BRANCH   1  20
ATOM     20  C   UNL     1      -3.176   1.102  -0.105  0.00  0.00    +0.147 C 
BRANCH  20  21
ATOM     21  C   UNL     1      -4.580   1.585   0.151  0.00  0.00    +0.012 A 
ATOM     22  C   UNL     1      -4.805   2.905   0.494  0.00  0.00    +0.009 A 
ATOM     23  C   UNL     1      -6.093   3.349   0.729  0.00  0.00    +0.001 A 
ATOM     24  C   UNL     1      -7.159   2.474   0.622  0.00  0.00    +0.004 A 
ATOM     25  C   UNL     1      -6.939   1.155   0.275  0.00  0.00    +0.046 A 
ATOM     26  C   UNL     1      -5.647   0.706   0.044  0.00  0.00    +0.125 A 
BRANCH  26  27
ATOM     27  O   UNL     1      -5.428  -0.592  -0.293  0.00  0.00    -0.495 OA
ATOM     28  C   UNL     1      -6.562  -1.461  -0.299  0.00  0.00    +0.277 C 
ENDBRANCH  26  27
ENDBRANCH  20  21
ENDBRANCH   1  20
BRANCH   2  29
ATOM     29  C   UNL     1      -2.386   3.264  -1.763  0.00  0.00    +0.264 C 
BRANCH  29  30
ATOM     30  N   UNL     1      -1.905   4.160  -2.819  0.00  0.00    -0.154 N 
ATOM     31  N   UNL     1      -0.671   4.322  -3.153  0.00  0.00    -0.127 NA
ATOM     32  C   UNL     1      -0.632   5.200  -4.138  0.00  0.00    +0.239 A 
ATOM     33  N   UNL     1      -1.901   5.566  -4.375  0.00  0.00    -0.105 NA
ATOM     34  N   UNL     1      -2.648   4.912  -3.552  0.00  0.00    -0.045 NA
BRANCH  32  35
ATOM     35  C   UNL     1       0.575   5.689  -4.839  0.00  0.00    +0.175 A 
ATOM     36  C   UNL     1       0.597   6.595  -5.852  0.00  0.00    +0.053 A 
ATOM     37  C   UNL     1       1.948   6.766  -6.214  0.00  0.00    +0.045 A 
ATOM     38  C   UNL     1       2.675   5.959  -5.418  0.00  0.00    +0.103 A 
ATOM     39  O   UNL     1       1.843   5.310  -4.588  0.00  0.00    -0.457 OA
ATOM     40  C   UNL     1       4.175   5.809  -5.453  0.00  0.00    +0.086 C 
ENDBRANCH  32  35
ENDBRANCH  29  30
ENDBRANCH   2  29
TORSDOF 10
