REMARK  Name = ZINC05256178
REMARK  4 active torsions:
REMARK  status: ('A' for Active; 'I' for Inactive)
REMARK    1  A    between atoms: C_1  and  O_2
REMARK    2  A    between atoms: O_2  and  C_3
REMARK    3  A    between atoms: C_6  and  C_9
REMARK    4  A    between atoms: N_21  and  C_22
REMARK                            x       y       z     vdW  Elec       q    Type
REMARK                         _______ _______ _______ _____ _____    ______ ____
ROOT
ATOM      1  C   UNL     1       2.448   3.933   0.001  0.00  0.00    +0.155 C 
ATOM      2  C   UNL     1       2.813   4.308  -1.417  0.00  0.00    +0.044 A 
ATOM      3  C   UNL     1       3.240   3.494  -2.395  0.00  0.00    +0.025 A 
ATOM      4  C   UNL     1       3.447   4.290  -3.542  0.00  0.00    +0.019 A 
ATOM      5  C   UNL     1       3.139   5.562  -3.213  0.00  0.00    +0.086 A 
ATOM      6  N   UNL     1       2.753   5.584  -1.908  0.00  0.00    -0.347 N 
ATOM      7  C   UNL     1       2.343   6.758  -1.130  0.00  0.00    +0.140 C 
ATOM      8  C   UNL     1       1.567   6.298   0.108  0.00  0.00    +0.132 C 
ATOM      9  N   UNL     1       2.293   5.192   0.753  0.00  0.00    -0.271 N 
ATOM     10  C   UNL     1       2.802   5.326   1.994  0.00  0.00    +0.308 C 
ATOM     11  O   UNL     1       2.587   6.338   2.633  0.00  0.00    -0.252 OA
ATOM     12  N   UNL     1       3.550   4.339   2.526  0.00  0.00    -0.264 N 
ATOM     13  H   UNL     1       3.784   3.565   1.990  0.00  0.00    +0.157 HD
ENDROOT
BRANCH   1  17
ATOM     14  C   UNL     1      -1.227   1.753   0.027  0.00  0.00    +0.120 A 
ATOM     15  C   UNL     1      -0.098   1.218   0.630  0.00  0.00    +0.046 A 
ATOM     16  C   UNL     1       1.089   1.925   0.619  0.00  0.00    +0.009 A 
ATOM     17  C   UNL     1       1.151   3.165   0.012  0.00  0.00    -0.021 A 
ATOM     18  C   UNL     1       0.026   3.703  -0.585  0.00  0.00    +0.009 A 
ATOM     19  C   UNL     1      -1.164   3.000  -0.577  0.00  0.00    +0.046 A 
BRANCH  14  21
ATOM     20  C   UNL     1      -3.517   1.670  -0.608  0.00  0.00    +0.277 C 
ATOM     21  O   UNL     1      -2.395   1.058   0.032  0.00  0.00    -0.495 OA
ENDBRANCH  14  21
ENDBRANCH   1  17
BRANCH  12  22
ATOM     22  C   UNL     1       3.988   4.430   3.850  0.00  0.00    +0.073 A 
ATOM     23  C   UNL     1       4.743   3.552   4.566  0.00  0.00    +0.031 A 
ATOM     24  C   UNL     1       5.057   3.858   5.878  0.00  0.00    +0.009 A 
ATOM     25  C   UNL     1       4.606   5.019   6.409  0.00  0.00    +0.047 A 
ATOM     26  S   UNL     1       3.711   5.733   5.039  0.00  0.00    -0.082 S 
ENDBRANCH  12  22
TORSDOF 3
