REMARK  Name = ZINC63165330
REMARK  5 active torsions:
REMARK  status: ('A' for Active; 'I' for Inactive)
REMARK    1  A    between atoms: C_6  and  C_10
REMARK    2  A    between atoms: C_10  and  S_11
REMARK    3  A    between atoms: S_11  and  C_12
REMARK    4  A    between atoms: C_16  and  C_26
REMARK    5  A    between atoms: N_18  and  C_19
REMARK                            x       y       z     vdW  Elec       q    Type
REMARK                         _______ _______ _______ _____ _____    ______ ____
ROOT
ATOM      1  C   UNL     1       3.527  -2.972  -4.396  0.00  0.00    +0.217 C 
ATOM      2  N   UNL     1       5.004  -2.967  -4.294  0.00  0.00    -0.226 NA
ATOM      3  N   UNL     1       5.309  -4.060  -3.356  0.00  0.00    -0.230 NA
ATOM      4  C   UNL     1       4.306  -5.097  -3.714  0.00  0.00    +0.188 C 
ATOM      5  N   UNL     1       3.083  -4.328  -4.028  0.00  0.00    -0.284 N 
ATOM      6  H   UNL     1       5.339  -2.084  -3.941  0.00  0.00    +0.143 HD
ATOM      7  H   UNL     1       5.193  -3.759  -2.400  0.00  0.00    +0.143 HD
ENDROOT
BRANCH   5   8
ATOM      8  C   UNL     1       1.767  -4.794  -3.984  0.00  0.00    +0.033 A 
ATOM      9  C   UNL     1       1.512  -6.138  -3.741  0.00  0.00    +0.024 A 
ATOM     10  C   UNL     1       0.210  -6.596  -3.698  0.00  0.00    +0.022 A 
ATOM     11  C   UNL     1      -0.841  -5.718  -3.896  0.00  0.00    +0.041 A 
ATOM     12  C   UNL     1      -0.590  -4.378  -4.138  0.00  0.00    +0.022 A 
ATOM     13  C   UNL     1       0.710  -3.914  -4.177  0.00  0.00    +0.024 A 
ATOM     14 CL   UNL     1      -2.476  -6.297  -3.842  0.00  0.00    -0.084 Cl
ENDBRANCH   5   8
BRANCH   4  15
ATOM     15  C   UNL     1       4.066  -6.022  -2.549  0.00  0.00    -0.010 A 
ATOM     16  C   UNL     1       4.769  -7.209  -2.453  0.00  0.00    +0.007 A 
ATOM     17  C   UNL     1       4.549  -8.059  -1.385  0.00  0.00    +0.002 A 
ATOM     18  C   UNL     1       3.627  -7.722  -0.412  0.00  0.00    +0.020 A 
ATOM     19  C   UNL     1       2.923  -6.535  -0.508  0.00  0.00    +0.041 A 
ATOM     20  C   UNL     1       3.148  -5.682  -1.574  0.00  0.00    +0.026 A 
ATOM     21 CL   UNL     1       1.764  -6.111   0.713  0.00  0.00    -0.084 Cl
ENDBRANCH   4  15
BRANCH   1  22
ATOM     22  S   UNL     1       2.821  -1.755  -3.252  0.00  0.00    -0.118 S 
BRANCH  22  23
ATOM     23  C   UNL     1       3.440  -2.270  -1.626  0.00  0.00    +0.119 C 
BRANCH  23  29
ATOM     24  C   UNL     1      -0.281   1.910  -1.284  0.00  0.00    +0.002 A 
ATOM     25  C   UNL     1       0.868   2.708  -1.429  0.00  0.00    +0.002 A 
ATOM     26  C   UNL     1       2.116   2.215  -1.304  0.00  0.00    +0.027 A 
ATOM     27  C   UNL     1       2.305   0.789  -1.003  0.00  0.00    +0.060 A 
ATOM     28  N   UNL     1       3.365   0.054  -0.831  0.00  0.00    -0.363 N 
ATOM     29  C   UNL     1       2.912  -1.315  -0.554  0.00  0.00    +0.184 C 
ATOM     30  N   UNL     1       1.445  -1.280  -0.588  0.00  0.00    -0.363 N 
ATOM     31  C   UNL     1       1.089  -0.056  -0.849  0.00  0.00    +0.060 A 
ATOM     32  C   UNL     1      -0.220   0.592  -1.009  0.00  0.00    +0.027 A 
ATOM     33  H   UNL     1       4.286   0.355  -0.877  0.00  0.00    +0.162 HD
ATOM     34  H   UNL     1       0.849  -2.032  -0.443  0.00  0.00    +0.162 HD
ENDBRANCH  23  29
ENDBRANCH  22  23
ENDBRANCH   1  22
TORSDOF 5
