REMARK  Name = ZINC01047660
REMARK  4 active torsions:
REMARK  status: ('A' for Active; 'I' for Inactive)
REMARK    1  A    between atoms: C_3  and  S_11
REMARK    2  A    between atoms: C_6  and  C_7
REMARK    3  A    between atoms: S_11  and  C_12
REMARK    4  A    between atoms: C_15  and  N_17
REMARK                            x       y       z     vdW  Elec       q    Type
REMARK                         _______ _______ _______ _____ _____    ______ ____
ROOT
ATOM      1  C   UNL     1      -0.007   2.118   2.416  0.00  0.00    +0.016 A 
ATOM      2  C   UNL     1      -0.693   2.564   3.532  0.00  0.00    +0.036 A 
ATOM      3  C   UNL     1      -2.067   2.759   3.448  0.00  0.00    +0.103 A 
ATOM      4  N   UNL     1      -2.714   2.521   2.316  0.00  0.00    -0.248 NA
ATOM      5  C   UNL     1      -2.086   2.100   1.236  0.00  0.00    +0.124 A 
ATOM      6  C   UNL     1      -0.722   1.881   1.250  0.00  0.00    +0.073 A 
ENDROOT
BRANCH   6   7
ATOM      7  C   UNL     1      -0.017   1.395   0.010  0.00  0.00    +0.419 C 
ATOM      8  F   UNL     1       0.002  -0.004   0.002  0.00  0.00    -0.166 F 
ATOM      9  F   UNL     1       1.296   1.879  -0.000  0.00  0.00    -0.166 F 
ATOM     10  F   UNL     1      -0.694   1.858  -1.124  0.00  0.00    -0.166 F 
ENDBRANCH   6   7
BRANCH   3  11
ATOM     11  S   UNL     1      -2.957   3.326   4.859  0.00  0.00    -0.043 S 
BRANCH  11  12
ATOM     12  C   UNL     1      -4.625   3.425   4.301  0.00  0.00    +0.143 A 
ATOM     13  N   UNL     1      -5.118   3.144   3.109  0.00  0.00    -0.238 NA
ATOM     14  C   UNL     1      -6.407   3.274   2.856  0.00  0.00    +0.152 A 
ATOM     15  C   UNL     1      -7.220   3.704   3.851  0.00  0.00    +0.184 A 
ATOM     16  S   UNL     1      -6.043   3.908   5.179  0.00  0.00    -0.037 S 
BRANCH  15  17
ATOM     17  N   UNL     1      -8.684   3.935   3.841  0.00  0.00    +0.065 N 
ATOM     18  O   UNL     1      -9.326   3.732   2.827  0.00  0.00    -0.126 OA
ATOM     19  O   UNL     1      -9.245   4.329   4.848  0.00  0.00    -0.126 OA
ENDBRANCH  15  17
ENDBRANCH  11  12
ENDBRANCH   3  11
TORSDOF 4
