REMARK  Name = ZINC14661695
REMARK  19 active torsions:
REMARK  status: ('A' for Active; 'I' for Inactive)
REMARK    1  A    between atoms: C_1  and  C_2
REMARK    2  A    between atoms: C_2  and  C_3
REMARK    3  A    between atoms: C_2  and  C_4
REMARK    4  A    between atoms: C_2  and  C_5
REMARK    5  A    between atoms: C_8  and  O_15
REMARK    6  A    between atoms: C_9  and  C_11
REMARK    7  A    between atoms: C_11  and  C_12
REMARK    8  A    between atoms: C_11  and  C_13
REMARK    9  A    between atoms: C_11  and  C_14
REMARK   10  A    between atoms: O_15  and  C_16
REMARK   11  A    between atoms: C_16  and  C_17
REMARK   12  A    between atoms: N_19  and  N_20
REMARK   13  A    between atoms: C_21  and  C_23
REMARK   14  A    between atoms: C_25  and  O_33
REMARK   15  A    between atoms: C_26  and  O_31
REMARK   16  A    between atoms: C_27  and  O_29
REMARK   17  A    between atoms: O_29  and  C_30
REMARK   18  A    between atoms: O_31  and  C_32
REMARK   19  A    between atoms: O_33  and  C_34
REMARK                            x       y       z     vdW  Elec       q    Type
REMARK                         _______ _______ _______ _____ _____    ______ ____
ROOT
ATOM      1  C   UNL     1       0.516   9.579  -1.086  0.00  0.00    +0.267 C 
ATOM      2  O   UNL     1      -0.043  10.028  -0.107  0.00  0.00    -0.271 OA
ATOM      3  N   UNL     1       0.622   8.245  -1.248  0.00  0.00    -0.231 N 
ATOM      4  H   UNL     1       1.069   7.886  -2.031  0.00  0.00    +0.173 HD
ENDROOT
BRANCH   3   5
ATOM      5  N   UNL     1       0.088   7.377  -0.287  0.00  0.00    -0.230 N 
ATOM      6  C   UNL     1       0.194   6.044  -0.450  0.00  0.00    +0.260 C 
ATOM      7  O   UNL     1       0.754   5.593  -1.431  0.00  0.00    -0.269 OA
ATOM      8  H   UNL     1      -0.359   7.736   0.496  0.00  0.00    +0.173 HD
BRANCH   6   9
ATOM      9  C   UNL     1      -0.369   5.129   0.563  0.00  0.00    +0.045 A 
ATOM     10  C   UNL     1      -1.012   5.645   1.691  0.00  0.00    +0.062 A 
ATOM     11  C   UNL     1      -1.538   4.787   2.639  0.00  0.00    +0.166 A 
ATOM     12  C   UNL     1      -1.432   3.409   2.467  0.00  0.00    +0.204 A 
ATOM     13  C   UNL     1      -0.787   2.893   1.346  0.00  0.00    +0.166 A 
ATOM     14  C   UNL     1      -0.260   3.747   0.396  0.00  0.00    +0.062 A 
BRANCH  13  15
ATOM     15  O   UNL     1      -0.682   1.547   1.184  0.00  0.00    -0.491 OA
ATOM     16  C   UNL     1      -0.013   1.086   0.008  0.00  0.00    +0.277 C 
ENDBRANCH  13  15
BRANCH  12  17
ATOM     17  O   UNL     1      -1.955   2.568   3.397  0.00  0.00    -0.488 OA
ATOM     18  C   UNL     1      -1.099   2.177   4.472  0.00  0.00    +0.277 C 
ENDBRANCH  12  17
BRANCH  11  19
ATOM     19  O   UNL     1      -2.164   5.289   3.737  0.00  0.00    -0.491 OA
ATOM     20  C   UNL     1      -2.242   6.711   3.846  0.00  0.00    +0.277 C 
ENDBRANCH  11  19
ENDBRANCH   6   9
ENDBRANCH   3   5
BRANCH   1  21
ATOM     21  C   UNL     1       1.091  10.512  -2.120  0.00  0.00    +0.326 C 
BRANCH  21  22
ATOM     22  O   UNL     1       0.853  11.865  -1.725  0.00  0.00    -0.482 OA
BRANCH  22  26
ATOM     23  C   UNL     1       2.244  14.822  -4.242  0.00  0.00    -0.041 A 
ATOM     24  C   UNL     1       2.442  13.492  -4.565  0.00  0.00    +0.008 A 
ATOM     25  C   UNL     1       1.977  12.500  -3.724  0.00  0.00    +0.046 A 
ATOM     26  C   UNL     1       1.312  12.839  -2.554  0.00  0.00    +0.125 A 
ATOM     27  C   UNL     1       1.110  14.174  -2.236  0.00  0.00    -0.000 A 
ATOM     28  C   UNL     1       1.582  15.163  -3.078  0.00  0.00    +0.012 A 
BRANCH  23  30
ATOM     29  C   UNL     1       3.442  15.262  -6.369  0.00  0.00    +0.015 C 
ATOM     30  C   UNL     1       2.753  15.902  -5.162  0.00  0.00    -0.013 C 
ATOM     31  C   UNL     1       1.578  16.759  -5.641  0.00  0.00    +0.015 C 
ATOM     32  C   UNL     1       3.753  16.783  -4.411  0.00  0.00    +0.015 C 
ENDBRANCH  23  30
BRANCH  27  33
ATOM     33  C   UNL     1       0.383  14.546  -0.969  0.00  0.00    -0.009 C 
ATOM     34  C   UNL     1       0.297  16.069  -0.859  0.00  0.00    +0.015 C 
ATOM     35  C   UNL     1      -1.029  13.957  -1.001  0.00  0.00    +0.015 C 
ATOM     36  C   UNL     1       1.141  13.988   0.237  0.00  0.00    +0.015 C 
ENDBRANCH  27  33
ENDBRANCH  22  26
ENDBRANCH  21  22
ENDBRANCH   1  21
TORSDOF 10
