REMARK  Name = ZINC22282548
REMARK  13 active torsions:
REMARK  status: ('A' for Active; 'I' for Inactive)
REMARK    1  A    between atoms: C_1  and  C_2
REMARK    2  A    between atoms: C_2  and  O_3
REMARK    3  A    between atoms: O_3  and  C_4
REMARK    4  A    between atoms: C_4  and  C_6
REMARK    5  A    between atoms: C_6  and  C_7
REMARK    6  A    between atoms: C_13  and  C_15
REMARK    7  A    between atoms: C_15  and  C_17
REMARK    8  A    between atoms: C_15  and  N_21
REMARK    9  A    between atoms: C_17  and  C_18
REMARK   10  A    between atoms: C_18  and  S_19
REMARK   11  A    between atoms: S_19  and  C_20
REMARK   12  A    between atoms: N_21  and  S_22
REMARK   13  A    between atoms: S_22  and  C_25
REMARK                            x       y       z     vdW  Elec       q    Type
REMARK                         _______ _______ _______ _____ _____    ______ ____
ROOT
ATOM      1  C   UNL     1      -0.911   1.203   0.859  0.00  0.00    +0.163 C 
ENDROOT
BRANCH   1   8
ATOM      2  C   UNL     1       4.288   1.473   3.945  0.00  0.00    +0.061 A 
ATOM      3  C   UNL     1       3.712   0.894   5.026  0.00  0.00    +0.072 A 
ATOM      4  S   UNL     1       2.045   0.657   4.427  0.00  0.00    -0.060 S 
ATOM      5  C   UNL     1       2.276   1.332   2.844  0.00  0.00    +0.165 A 
ATOM      6  N   UNL     1       3.549   1.673   2.871  0.00  0.00    -0.229 NA
ATOM      7  N   UNL     1       1.356   1.472   1.812  0.00  0.00    -0.263 N 
ATOM      8  C   UNL     1       0.086   1.051   1.979  0.00  0.00    +0.237 C 
ATOM      9  O   UNL     1      -0.254   0.551   3.030  0.00  0.00    -0.274 OA
ATOM     10  H   UNL     1       1.664   1.925   0.858  0.00  0.00    +0.157 HD
BRANCH   2  11
ATOM     11  C   UNL     1       5.741   1.872   3.967  0.00  0.00    +0.176 C 
BRANCH  11  12
ATOM     12  C   UNL     1       6.456   1.232   2.805  0.00  0.00    +0.313 C 
ATOM     13  O   UNL     1       5.848   0.523   2.038  0.00  0.00    -0.250 OA
BRANCH  12  14
ATOM     14  O   UNL     1       7.768   1.448   2.622  0.00  0.00    -0.465 OA
BRANCH  14  16
ATOM     15  C   UNL     1       9.877   1.160   1.439  0.00  0.00    +0.048 C 
ATOM     16  C   UNL     1       8.390   0.798   1.483  0.00  0.00    +0.229 C 
ENDBRANCH  14  16
ENDBRANCH  12  14
ENDBRANCH  11  12
ENDBRANCH   2  11
ENDBRANCH   1   8
BRANCH   1  17
ATOM     17  N   UNL     1      -2.209   0.674   1.287  0.00  0.00    -0.178 NA
ATOM     18  H   UNL     1      -2.482  -0.366   1.056  0.00  0.00    +0.149 HD
BRANCH  17  19
ATOM     19  S   UNL     1      -3.361   1.698   1.893  0.00  0.00    +0.059 S 
ATOM     20  O   UNL     1      -4.505   0.903   2.171  0.00  0.00    -0.153 OA
ATOM     21  O   UNL     1      -2.721   2.486   2.888  0.00  0.00    -0.153 OA
BRANCH  19  22
ATOM     22  C   UNL     1      -3.816   2.798   0.595  0.00  0.00    +0.105 A 
ATOM     23  C   UNL     1      -3.219   4.042   0.502  0.00  0.00    +0.030 A 
ATOM     24  C   UNL     1      -3.572   4.903  -0.520  0.00  0.00    +0.022 A 
ATOM     25  C   UNL     1      -4.530   4.525  -1.443  0.00  0.00    +0.041 A 
ATOM     26  C   UNL     1      -5.131   3.283  -1.347  0.00  0.00    +0.022 A 
ATOM     27  C   UNL     1      -4.774   2.420  -0.328  0.00  0.00    +0.030 A 
ATOM     28 CL   UNL     1      -4.978   5.609  -2.723  0.00  0.00    -0.084 Cl
ENDBRANCH  19  22
ENDBRANCH  17  19
ENDBRANCH   1  17
BRANCH   1  29
ATOM     29  C   UNL     1      -0.424   0.428  -0.367  0.00  0.00    +0.040 C 
BRANCH  29  30
ATOM     30  C   UNL     1      -1.390   0.656  -1.531  0.00  0.00    +0.071 C 
BRANCH  30  31
ATOM     31  S   UNL     1      -0.735  -0.139  -3.024  0.00  0.00    -0.164 S 
ATOM     32  C   UNL     1      -1.904   0.340  -4.326  0.00  0.00    +0.084 C 
ENDBRANCH  30  31
ENDBRANCH  29  30
ENDBRANCH   1  29
TORSDOF 11
