REMARK  Name = ZINC39912729
REMARK  18 active torsions:
REMARK  status: ('A' for Active; 'I' for Inactive)
REMARK    1  A    between atoms: C_1  and  C_2
REMARK    2  A    between atoms: C_2  and  O_3
REMARK    3  A    between atoms: O_3  and  C_4
REMARK    4  A    between atoms: C_6  and  C_14
REMARK    5  A    between atoms: C_9  and  O_10
REMARK    6  A    between atoms: O_10  and  C_11
REMARK    7  A    between atoms: C_11  and  C_12
REMARK    8  A    between atoms: C_17  and  C_32
REMARK    9  A    between atoms: N_24  and  C_25
REMARK   10  A    between atoms: C_25  and  C_26
REMARK   11  A    between atoms: C_26  and  C_27
REMARK   12  A    between atoms: C_27  and  O_28
REMARK   13  A    between atoms: O_28  and  C_29
REMARK   14  A    between atoms: C_29  and  C_30
REMARK   15  A    between atoms: C_29  and  C_31
REMARK   16  A    between atoms: C_34  and  C_40
REMARK   17  A    between atoms: C_36  and  C_39
REMARK   18  A    between atoms: C_37  and  O_38
REMARK                            x       y       z     vdW  Elec       q    Type
REMARK                         _______ _______ _______ _____ _____    ______ ____
ROOT
ATOM      1  C   UNL     1       0.617  -4.881   0.181  0.00  0.00    +0.141 C 
ATOM      2  C   UNL     1       0.755  -5.635   1.475  0.00  0.00    +0.035 A 
ATOM      3  C   UNL     1       0.925  -5.575   2.862  0.00  0.00    +0.102 A 
ATOM      4  N   UNL     1       0.948  -6.815   3.311  0.00  0.00    -0.173 NA
ATOM      5  N   UNL     1       0.809  -7.651   2.344  0.00  0.00    -0.272 N 
ATOM      6  H   UNL     1       0.796  -8.616   2.441  0.00  0.00    +0.189 HD
ATOM      7  C   UNL     1       0.683  -6.979   1.162  0.00  0.00    +0.126 A 
ATOM      8  C   UNL     1       0.503  -7.111  -0.288  0.00  0.00    +0.265 C 
ATOM      9  O   UNL     1       0.404  -8.168  -0.882  0.00  0.00    -0.268 OA
ATOM     10  N   UNL     1       0.464  -5.897  -0.869  0.00  0.00    -0.285 N 
ENDROOT
BRANCH   3  11
ATOM     11  C   UNL     1       1.056  -4.343   3.679  0.00  0.00    +0.044 A 
ATOM     12  C   UNL     1       1.138  -3.099   3.059  0.00  0.00    +0.017 A 
ATOM     13  C   UNL     1       1.260  -1.955   3.823  0.00  0.00    -0.049 A 
ATOM     14  C   UNL     1       1.301  -2.041   5.203  0.00  0.00    +0.010 A 
ATOM     15  C   UNL     1       1.221  -3.271   5.828  0.00  0.00    -0.008 A 
ATOM     16  C   UNL     1       1.092  -4.426   5.074  0.00  0.00    +0.129 A 
ATOM     17  C   UNL     1       1.267  -3.355   7.332  0.00  0.00    +0.047 C 
ATOM     18  C   UNL     1       1.349  -0.609   3.151  0.00  0.00    +0.044 C 
BRANCH  16  19
ATOM     19  O   UNL     1       1.007  -5.635   5.687  0.00  0.00    -0.506 OA
ATOM     20  H   UNL     1       1.862  -6.061   5.837  0.00  0.00    +0.292 HD
ENDBRANCH  16  19
ENDBRANCH   3  11
BRANCH   1  23
ATOM     21  C   UNL     1      -2.984  -3.741   0.262  0.00  0.00    +0.162 A 
ATOM     22  C   UNL     1      -1.864  -4.555   0.221  0.00  0.00    +0.055 A 
ATOM     23  C   UNL     1      -0.601  -3.994   0.225  0.00  0.00    -0.019 A 
ATOM     24  C   UNL     1      -0.451  -2.620   0.269  0.00  0.00    +0.009 A 
ATOM     25  C   UNL     1      -1.565  -1.802   0.309  0.00  0.00    +0.050 A 
ATOM     26  C   UNL     1      -2.834  -2.358   0.300  0.00  0.00    +0.162 A 
BRANCH  21  27
ATOM     27  O   UNL     1      -4.228  -4.292   0.258  0.00  0.00    -0.489 OA
BRANCH  27  29
ATOM     28  C   UNL     1      -5.773  -6.146   0.367  0.00  0.00    +0.048 C 
ATOM     29  C   UNL     1      -4.306  -5.718   0.304  0.00  0.00    +0.226 C 
ENDBRANCH  27  29
ENDBRANCH  21  27
BRANCH  26  30
ATOM     30  O   UNL     1      -3.930  -1.554   0.334  0.00  0.00    -0.484 OA
BRANCH  30  31
ATOM     31  C   UNL     1      -3.700  -0.144   0.373  0.00  0.00    +0.256 C 
BRANCH  31  32
ATOM     32  C   UNL     1      -5.022   0.580   0.407  0.00  0.00    +0.006 C 
ATOM     33  C   UNL     1      -5.203   1.574   1.240  0.00  0.00    +0.007 C 
ENDBRANCH  31  32
ENDBRANCH  30  31
ENDBRANCH  26  30
ENDBRANCH   1  23
BRANCH  10  34
ATOM     34  C   UNL     1       0.297  -5.634  -2.300  0.00  0.00    +0.111 C 
BRANCH  34  35
ATOM     35  C   UNL     1       1.671  -5.578  -2.972  0.00  0.00    +0.047 C 
BRANCH  35  36
ATOM     36  C   UNL     1       1.497  -5.303  -4.467  0.00  0.00    +0.161 C 
BRANCH  36  37
ATOM     37  O   UNL     1       2.780  -5.251  -5.095  0.00  0.00    -0.377 OA
BRANCH  37  38
ATOM     38  C   UNL     1       2.729  -4.998  -6.500  0.00  0.00    +0.112 C 
ATOM     39  C   UNL     1       3.992  -4.247  -6.928  0.00  0.00    +0.037 C 
ATOM     40  C   UNL     1       2.645  -6.326  -7.255  0.00  0.00    +0.037 C 
ENDBRANCH  37  38
ENDBRANCH  36  37
ENDBRANCH  35  36
ENDBRANCH  34  35
ENDBRANCH  10  34
TORSDOF 13
