REMARK  Name = ZINC49112173
REMARK  6 active torsions:
REMARK  status: ('A' for Active; 'I' for Inactive)
REMARK    1  A    between atoms: C_1  and  C_2
REMARK    2  A    between atoms: C_5  and  C_9
REMARK    3  A    between atoms: C_11  and  C_14
REMARK    4  A    between atoms: C_16  and  N_22
REMARK    5  A    between atoms: C_17  and  O_21
REMARK    6  A    between atoms: C_18  and  O_20
REMARK                            x       y       z     vdW  Elec       q    Type
REMARK                         _______ _______ _______ _____ _____    ______ ____
ROOT
ATOM      1  C   UNL     1       0.060  -4.212   0.072  0.00  0.00    +0.117 A 
ATOM      2  C   UNL     1       0.171  -4.998   1.239  0.00  0.00    +0.081 A 
ATOM      3  C   UNL     1       0.152  -6.305   0.866  0.00  0.00    +0.168 A 
ATOM      4  O   UNL     1       0.035  -6.352  -0.475  0.00  0.00    -0.354 OA
ATOM      5  N   UNL     1      -0.027  -5.022  -0.956  0.00  0.00    -0.078 NA
ENDROOT
BRANCH   1  10
ATOM      6  C   UNL     1      -0.017   1.492  -0.277  0.00  0.00    +0.065 C 
ATOM      7  C   UNL     1       0.004  -0.010  -0.160  0.00  0.00    +0.040 A 
ATOM      8  C   UNL     1       0.010  -0.595   1.093  0.00  0.00    +0.024 A 
ATOM      9  C   UNL     1       0.028  -1.976   1.196  0.00  0.00    +0.015 A 
ATOM     10  C   UNL     1       0.040  -2.728   0.019  0.00  0.00    +0.040 A 
ATOM     11  C   UNL     1       0.033  -2.063  -1.207  0.00  0.00    +0.139 A 
ATOM     12  N   UNL     1       0.010  -0.746  -1.255  0.00  0.00    -0.240 NA
ATOM     13 CL   UNL     1       0.047  -2.978  -2.682  0.00  0.00    -0.061 Cl
ENDBRANCH   1  10
BRANCH   3  14
ATOM     14  C   UNL     1       0.245  -7.469   1.771  0.00  0.00    +0.026 A 
ATOM     15  C   UNL     1       0.219  -8.764   1.250  0.00  0.00    +0.048 A 
ATOM     16  C   UNL     1       0.305  -9.850   2.097  0.00  0.00    +0.172 A 
ATOM     17  C   UNL     1       0.418  -9.658   3.466  0.00  0.00    +0.189 A 
ATOM     18  C   UNL     1       0.445  -8.369   3.992  0.00  0.00    +0.161 A 
ATOM     19  C   UNL     1       0.364  -7.276   3.149  0.00  0.00    +0.061 A 
BRANCH  16  20
ATOM     20  N   UNL     1       0.278 -11.222   1.543  0.00  0.00    +0.060 N 
ATOM     21  O   UNL     1       0.179 -11.390   0.349  0.00  0.00    -0.126 OA
ATOM     22  O   UNL     1       0.353 -12.175   2.283  0.00  0.00    -0.126 OA
ENDBRANCH  16  20
BRANCH  18  23
ATOM     23  O   UNL     1       0.555  -8.184   5.335  0.00  0.00    -0.503 OA
ATOM     24  H   UNL     1       1.467  -8.119   5.650  0.00  0.00    +0.292 HD
ENDBRANCH  18  23
BRANCH  17  25
ATOM     25  O   UNL     1       0.503 -10.731   4.296  0.00  0.00    -0.502 OA
ATOM     26  H   UNL     1       1.407 -11.030   4.462  0.00  0.00    +0.292 HD
ENDBRANCH  17  25
ENDBRANCH   3  14
TORSDOF 5
