REMARK  Name = ZINC24897426
REMARK  7 active torsions:
REMARK  status: ('A' for Active; 'I' for Inactive)
REMARK    1  A    between atoms: C_1  and  C_2
REMARK    2  A    between atoms: C_12  and  C_14
REMARK    3  A    between atoms: C_14  and  N_15
REMARK    4  A    between atoms: N_15  and  C_16
REMARK    5  A    between atoms: N_15  and  C_19
REMARK    6  A    between atoms: N_22  and  C_25
REMARK    7  A    between atoms: C_25  and  C_26
REMARK                            x       y       z     vdW  Elec       q    Type
REMARK                         _______ _______ _______ _____ _____    ______ ____
ROOT
ATOM      1  N   UNL     1      -0.861   3.079  -1.442  0.00  0.00    -0.290 NA
ENDROOT
BRANCH   1   2
ATOM      2  C   UNL     1      -2.108   3.431  -2.134  0.00  0.00    +0.054 C 
ATOM      3  C   UNL     1      -2.387   2.407  -3.237  0.00  0.00    +0.000 C 
ATOM      4  C   UNL     1      -3.655   2.812  -3.994  0.00  0.00    -0.077 C 
ATOM      5  N   UNL     1      -3.473   4.149  -4.575  0.00  0.00    +0.382 N 
ATOM      6  C   UNL     1      -3.251   5.156  -3.530  0.00  0.00    -0.077 C 
ATOM      7  C   UNL     1      -1.972   4.821  -2.760  0.00  0.00    +0.000 C 
ATOM      8  H   UNL     1      -2.575   4.119  -5.209  0.00  0.00    -0.081 HD
BRANCH   5   9
ATOM      9  C   UNL     1      -4.616   4.513  -5.423  0.00  0.00    -0.043 C 
BRANCH   9  10
ATOM     10  C   UNL     1      -4.664   3.599  -6.620  0.00  0.00    -0.064 A 
ATOM     11  C   UNL     1      -3.996   3.943  -7.781  0.00  0.00    +0.002 A 
ATOM     12  C   UNL     1      -4.036   3.102  -8.877  0.00  0.00    +0.000 A 
ATOM     13  C   UNL     1      -4.753   1.922  -8.817  0.00  0.00    +0.000 A 
ATOM     14  C   UNL     1      -5.426   1.581  -7.659  0.00  0.00    +0.000 A 
ATOM     15  C   UNL     1      -5.381   2.419  -6.561  0.00  0.00    +0.002 A 
ENDBRANCH   9  10
ENDBRANCH   5   9
ENDBRANCH   1   2
BRANCH   1  16
ATOM     16  C   UNL     1      -0.957   1.748  -0.827  0.00  0.00    +0.057 C 
ATOM     17  C   UNL     1       0.345   1.083  -0.377  0.00  0.00    +0.020 C 
ATOM     18  C   UNL     1      -0.631   1.633   0.664  0.00  0.00    +0.020 C 
ENDBRANCH   1  16
BRANCH   1  19
ATOM     19  C   UNL     1      -0.508   4.096  -0.442  0.00  0.00    +0.158 C 
BRANCH  19  31
ATOM     20  C   UNL     1      -5.902   7.311   4.414  0.00  0.00    +0.044 C 
ATOM     21  C   UNL     1      -4.740   6.758   3.631  0.00  0.00    -0.048 A 
ATOM     22  C   UNL     1      -3.571   7.489   3.518  0.00  0.00    +0.005 A 
ATOM     23  C   UNL     1      -2.501   6.989   2.803  0.00  0.00    +0.025 A 
ATOM     24  C   UNL     1      -2.598   5.745   2.192  0.00  0.00    +0.059 A 
ATOM     25  C   UNL     1      -3.778   5.018   2.308  0.00  0.00    +0.134 A 
ATOM     26  C   UNL     1      -4.842   5.519   3.023  0.00  0.00    +0.034 A 
ATOM     27  S   UNL     1      -3.877   3.445   1.515  0.00  0.00    +0.102 S 
ATOM     28  O   UNL     1      -3.639   2.465   2.515  0.00  0.00    -0.146 OA
ATOM     29  O   UNL     1      -5.055   3.459   0.720  0.00  0.00    -0.146 OA
ATOM     30  N   UNL     1      -2.594   3.388   0.466  0.00  0.00    -0.117 NA
ATOM     31  C   UNL     1      -1.628   4.227   0.558  0.00  0.00    +0.135 C 
ATOM     32  N   UNL     1      -1.527   5.225   1.470  0.00  0.00    -0.299 N 
ATOM     33  H   UNL     1      -0.514   5.626   1.623  0.00  0.00    +0.153 HD
ENDBRANCH  19  31
ENDBRANCH   1  19
TORSDOF 6
