REMARK  Name = ZINC35934294
REMARK  12 active torsions:
REMARK  status: ('A' for Active; 'I' for Inactive)
REMARK    1  A    between atoms: C_1  and  C_2
REMARK    2  A    between atoms: C_5  and  C_8
REMARK    3  A    between atoms: N_13  and  C_16
REMARK    4  A    between atoms: C_16  and  C_17
REMARK    5  A    between atoms: N_19  and  C_20
REMARK    6  A    between atoms: N_19  and  C_25
REMARK    7  A    between atoms: C_20  and  C_21
REMARK    8  A    between atoms: C_21  and  N_22
REMARK    9  A    between atoms: N_22  and  C_23
REMARK   10  A    between atoms: N_22  and  C_24
REMARK   11  A    between atoms: C_25  and  C_26
REMARK   12  A    between atoms: N_32  and  C_36
REMARK                            x       y       z     vdW  Elec       q    Type
REMARK                         _______ _______ _______ _____ _____    ______ ____
ROOT
ATOM      1  C   UNL     1       0.059  -4.275  -0.021  0.00  0.00    +0.142 C 
ATOM      2  C   UNL     1      -1.366  -4.762   0.144  0.00  0.00    +0.058 C 
ATOM      3  C   UNL     1      -1.637  -5.564   1.194  0.00  0.00    +0.042 C 
ATOM      4  C   UNL     1      -3.111  -5.890   1.111  0.00  0.00    +0.160 C 
ATOM      5  N   UNL     1      -3.589  -5.180  -0.084  0.00  0.00    -0.283 N 
ATOM      6  C   UNL     1      -2.533  -4.536  -0.614  0.00  0.00    +0.247 C 
ATOM      7  O   UNL     1      -2.579  -3.848  -1.617  0.00  0.00    -0.270 OA
ATOM      8  N   UNL     1      -0.660  -5.927   2.077  0.00  0.00    -0.260 N 
ATOM      9  C   UNL     1       0.614  -5.528   1.979  0.00  0.00    +0.307 C 
ATOM     10  O   UNL     1       1.414  -5.903   2.813  0.00  0.00    -0.252 OA
ATOM     11  N   UNL     1       1.037  -4.722   0.985  0.00  0.00    -0.288 N 
ATOM     12  C   UNL     1      -1.028  -6.802   3.194  0.00  0.00    +0.139 C 
ATOM     13  H   UNL     1       1.965  -4.445   0.933  0.00  0.00    +0.151 HD
ENDROOT
BRANCH   1  18
ATOM     14  C   UNL     1      -0.018   1.503   0.010  0.00  0.00    +0.044 C 
ATOM     15  C   UNL     1       0.002  -0.004   0.002  0.00  0.00    -0.050 A 
ATOM     16  C   UNL     1       0.006  -0.689  -1.199  0.00  0.00    +0.004 A 
ATOM     17  C   UNL     1       0.025  -2.071  -1.206  0.00  0.00    +0.006 A 
ATOM     18  C   UNL     1       0.040  -2.768  -0.013  0.00  0.00    -0.023 A 
ATOM     19  C   UNL     1       0.037  -2.084   1.188  0.00  0.00    +0.006 A 
ATOM     20  C   UNL     1       0.023  -0.702   1.195  0.00  0.00    +0.004 A 
ENDBRANCH   1  18
BRANCH   5  21
ATOM     21  C   UNL     1      -4.959  -5.175  -0.602  0.00  0.00    +0.204 C 
BRANCH  21  22
ATOM     22  C   UNL     1      -5.725  -4.033   0.015  0.00  0.00    +0.233 C 
ATOM     23  O   UNL     1      -5.180  -3.297   0.810  0.00  0.00    -0.274 OA
ATOM     24  N   UNL     1      -7.016  -3.831  -0.316  0.00  0.00    -0.298 N 
BRANCH  24  25
ATOM     25  C   UNL     1      -7.674  -4.721  -1.275  0.00  0.00    +0.089 C 
BRANCH  25  26
ATOM     26  C   UNL     1      -8.316  -5.892  -0.528  0.00  0.00    -0.060 C 
BRANCH  26  27
ATOM     27  N   UNL     1      -8.976  -6.784  -1.490  0.00  0.00    +0.377 N 
ATOM     28  C   UNL     1      -9.488  -7.969  -0.789  0.00  0.00    -0.097 C 
ATOM     29  C   UNL     1     -10.091  -6.074  -2.131  0.00  0.00    -0.097 C 
ATOM     30  H   UNL     1      -8.312  -7.071  -2.194  0.00  0.00    -0.083 HD
ENDBRANCH  26  27
ENDBRANCH  25  26
ENDBRANCH  24  25
BRANCH  24  31
ATOM     31  C   UNL     1      -7.761  -2.721   0.285  0.00  0.00    +0.142 C 
BRANCH  31  32
ATOM     32  C   UNL     1      -7.610  -1.492  -0.575  0.00  0.00    -0.030 A 
ATOM     33  C   UNL     1      -6.565  -0.616  -0.350  0.00  0.00    +0.005 A 
ATOM     34  C   UNL     1      -6.427   0.512  -1.138  0.00  0.00    +0.000 A 
ATOM     35  C   UNL     1      -7.334   0.762  -2.151  0.00  0.00    +0.000 A 
ATOM     36  C   UNL     1      -8.378  -0.115  -2.376  0.00  0.00    +0.000 A 
ATOM     37  C   UNL     1      -8.514  -1.245  -1.591  0.00  0.00    +0.005 A 
ENDBRANCH  31  32
ENDBRANCH  24  31
ENDBRANCH  21  22
ENDBRANCH   5  21
TORSDOF 8
