REMARK  Name = ZINC03297839
REMARK  5 active torsions:
REMARK  status: ('A' for Active; 'I' for Inactive)
REMARK    1  A    between atoms: C_1  and  C_2
REMARK    2  A    between atoms: C_15  and  C_17
REMARK    3  A    between atoms: C_17  and  O_18
REMARK    4  A    between atoms: O_18  and  C_19
REMARK    5  A    between atoms: C_19  and  C_21
REMARK                            x       y       z     vdW  Elec       q    Type
REMARK                         _______ _______ _______ _____ _____    ______ ____
ROOT
ATOM      1  C   UNL     1       5.363   7.003  -0.104  0.00  0.00    +0.008 C 
ATOM      2  C   UNL     1       4.303   5.937  -0.388  0.00  0.00    -0.009 C 
ATOM      3  C   UNL     1       4.600   4.684   0.440  0.00  0.00    +0.008 C 
ATOM      4  C   UNL     1       3.701   3.534  -0.016  0.00  0.00    +0.037 C 
ATOM      5  C   UNL     1       2.250   4.007   0.001  0.00  0.00    -0.023 A 
ATOM      6  C   UNL     1       1.954   5.324   0.011  0.00  0.00    -0.004 A 
ATOM      7  S   UNL     1       0.183   5.397   0.029  0.00  0.00    -0.073 S 
ATOM      8  C   UNL     1      -0.155   3.654   0.023  0.00  0.00    +0.116 A 
ATOM      9  C   UNL     1       1.123   3.074   0.007  0.00  0.00    +0.075 A 
ATOM     10  C   UNL     1       1.153   1.641  -0.000  0.00  0.00    +0.260 A 
ATOM     11  O   UNL     1       2.216   1.044  -0.013  0.00  0.00    -0.267 OA
ATOM     12  N   UNL     1      -0.011   0.966   0.007  0.00  0.00    -0.308 N 
ATOM     13  H   UNL     1       0.002  -0.004   0.002  0.00  0.00    +0.170 HD
ATOM     14  C   UNL     1      -1.204   1.615   0.017  0.00  0.00    +0.149 A 
ATOM     15  N   UNL     1      -1.264   2.919   0.029  0.00  0.00    -0.223 NA
ATOM     16  C   UNL     1       2.918   6.471   0.006  0.00  0.00    +0.046 C 
ENDROOT
BRANCH  14  17
ATOM     17  C   UNL     1      -2.481   0.815   0.019  0.00  0.00    +0.306 C 
BRANCH  17  18
ATOM     18  O   UNL     1      -3.618   1.719   0.029  0.00  0.00    -0.451 OA
BRANCH  18  19
ATOM     19  C   UNL     1      -4.843   1.160   0.032  0.00  0.00    +0.375 C 
ATOM     20  O   UNL     1      -4.960  -0.049   0.026  0.00  0.00    -0.241 OA
BRANCH  19  21
ATOM     21  C   UNL     1      -6.049   2.020   0.042  0.00  0.00    +0.216 A 
ATOM     22  C   UNL     1      -7.269   1.430   0.045  0.00  0.00    +0.105 A 
ATOM     23  C   UNL     1      -8.468   2.283   0.056  0.00  0.00    +0.193 A 
ATOM     24  O   UNL     1      -9.590   1.808   0.059  0.00  0.00    -0.287 OA
ATOM     25  C   UNL     1      -8.246   3.742   0.062  0.00  0.00    +0.064 A 
ATOM     26  C   UNL     1      -9.315   4.638   0.071  0.00  0.00    +0.015 A 
ATOM     27  C   UNL     1      -9.070   5.983   0.077  0.00  0.00    +0.001 A 
ATOM     28  C   UNL     1      -7.767   6.460   0.074  0.00  0.00    +0.004 A 
ATOM     29  C   UNL     1      -6.698   5.590   0.064  0.00  0.00    +0.047 A 
ATOM     30  C   UNL     1      -6.923   4.217   0.058  0.00  0.00    +0.140 A 
ATOM     31  O   UNL     1      -5.891   3.352   0.054  0.00  0.00    -0.448 OA
ENDBRANCH  19  21
ENDBRANCH  18  19
ENDBRANCH  17  18
ENDBRANCH  14  17
TORSDOF 4
