REMARK  Name = ZINC39533335
REMARK  11 active torsions:
REMARK  status: ('A' for Active; 'I' for Inactive)
REMARK    1  A    between atoms: C_1  and  C_2
REMARK    2  A    between atoms: C_2  and  C_3
REMARK    3  A    between atoms: C_2  and  C_4
REMARK    4  A    between atoms: C_4  and  C_5
REMARK    5  A    between atoms: C_8  and  C_11
REMARK    6  A    between atoms: C_11  and  C_13
REMARK    7  A    between atoms: C_11  and  N_16
REMARK    8  A    between atoms: C_13  and  N_14
REMARK    9  A    between atoms: N_14  and  O_15
REMARK   10  A    between atoms: C_20  and  C_23
REMARK   11  A    between atoms: C_28  and  O_29
REMARK                            x       y       z     vdW  Elec       q    Type
REMARK                         _______ _______ _______ _____ _____    ______ ____
ROOT
ATOM      1  C   UNL     1       6.273   1.087  -1.080  0.00  0.00    +0.103 C 
ENDROOT
BRANCH   1   2
ATOM      2  N   UNL     1       6.942   0.712   0.173  0.00  0.00    -0.297 NA
ATOM      3  C   UNL     1       6.144   1.119   1.338  0.00  0.00    +0.066 C 
ATOM      4  C   UNL     1       6.844   0.659   2.618  0.00  0.00    -0.066 C 
ATOM      5  N   UNL     1       8.183   1.259   2.687  0.00  0.00    +0.385 N 
ATOM      6  C   UNL     1       8.976   0.823   1.530  0.00  0.00    -0.023 C 
ATOM      7  C   UNL     1       8.294   1.285   0.240  0.00  0.00    +0.074 C 
ATOM      8  H   UNL     1       8.102   2.265   2.679  0.00  0.00    -0.085 HD
ATOM      9  H   UNL     1       8.640   0.965   3.537  0.00  0.00    -0.085 HD
BRANCH   6  10
ATOM     10  C   UNL     1      10.356   1.425   1.611  0.00  0.00    -0.019 A 
ATOM     11  C   UNL     1      10.580   2.536   2.402  0.00  0.00    +0.005 A 
ATOM     12  C   UNL     1      11.845   3.089   2.477  0.00  0.00    +0.000 A 
ATOM     13  C   UNL     1      12.889   2.532   1.761  0.00  0.00    +0.004 A 
ATOM     14  C   UNL     1      12.670   1.421   0.969  0.00  0.00    +0.045 A 
ATOM     15  C   UNL     1      11.402   0.862   0.897  0.00  0.00    +0.118 A 
BRANCH  15  16
ATOM     16  O   UNL     1      11.185  -0.234   0.123  0.00  0.00    -0.507 OA
ATOM     17  H   UNL     1      10.935  -0.029  -0.788  0.00  0.00    +0.292 HD
ENDBRANCH  15  16
ENDBRANCH   6  10
ENDBRANCH   1   2
BRANCH   1  21
ATOM     18  C   UNL     1       2.459  -0.825  -1.287  0.00  0.00    -0.047 A 
ATOM     19  C   UNL     1       2.601   0.482  -1.715  0.00  0.00    +0.004 A 
ATOM     20  C   UNL     1       3.836   1.101  -1.648  0.00  0.00    +0.005 A 
ATOM     21  C   UNL     1       4.928   0.412  -1.153  0.00  0.00    -0.029 A 
ATOM     22  C   UNL     1       4.785  -0.894  -0.724  0.00  0.00    +0.005 A 
ATOM     23  C   UNL     1       3.550  -1.511  -0.787  0.00  0.00    +0.004 A 
BRANCH  18  24
ATOM     24  C   UNL     1       1.113  -1.499  -1.360  0.00  0.00    +0.038 C 
BRANCH  24  26
ATOM     25  C   UNL     1       0.045   0.240   0.081  0.00  0.00    +0.007 C 
ATOM     26  C   UNL     1       0.348  -1.253  -0.059  0.00  0.00    -0.013 C 
ATOM     27  C   UNL     1      -0.965  -2.039  -0.082  0.00  0.00    +0.007 C 
ENDBRANCH  24  26
ENDBRANCH  18  24
ENDBRANCH   1  21
BRANCH   1  28
ATOM     28  C   UNL     1       7.130   0.643  -2.268  0.00  0.00    +0.134 C 
BRANCH  28  29
ATOM     29  N   UNL     1       6.503   1.091  -3.518  0.00  0.00    -0.202 NA
ATOM     30  H   UNL     1       6.437   2.097  -3.550  0.00  0.00    +0.154 HD
BRANCH  29  31
ATOM     31  O   UNL     1       7.226   0.576  -4.681  0.00  0.00    -0.315 OA
ATOM     32  H   UNL     1       6.849   0.845  -5.530  0.00  0.00    +0.236 HD
ENDBRANCH  29  31
ENDBRANCH  28  29
ENDBRANCH   1  28
TORSDOF 9
