REMARK  Name = ZINC47789070
REMARK  4 active torsions:
REMARK  status: ('A' for Active; 'I' for Inactive)
REMARK    1  A    between atoms: C_5  and  C_7
REMARK    2  A    between atoms: N_15  and  C_16
REMARK    3  A    between atoms: C_16  and  C_17
REMARK    4  A    between atoms: C_17  and  C_18
REMARK                            x       y       z     vdW  Elec       q    Type
REMARK                         _______ _______ _______ _____ _____    ______ ____
ROOT
ATOM      1  C   UNL     1       1.269  -2.142  -0.023  0.00  0.00    +0.152 A 
ATOM      2  N   UNL     1       0.273  -3.019  -0.024  0.00  0.00    -0.138 NA
ATOM      3  N   UNL     1       0.547  -4.253  -0.034  0.00  0.00    -0.125 NA
ATOM      4  C   UNL     1       1.792  -4.692  -0.042  0.00  0.00    +0.189 A 
ATOM      5  S   UNL     1       2.670  -3.252  -0.044  0.00  0.00    -0.029 S 
ATOM      6  N   UNL     1       2.259  -6.000  -0.053  0.00  0.00    -0.247 N 
ATOM      7  C   UNL     1       1.385  -7.026  -0.057  0.00  0.00    +0.305 C 
ATOM      8  O   UNL     1       0.189  -6.807  -0.050  0.00  0.00    -0.252 OA
ATOM      9  N   UNL     1       1.837  -8.296  -0.067  0.00  0.00    -0.299 N 
ATOM     10  H   UNL     1       3.213  -6.175  -0.058  0.00  0.00    +0.158 HD
ATOM     11  H   UNL     1       2.792  -8.471  -0.072  0.00  0.00    +0.150 HD
ENDROOT
BRANCH   1  16
ATOM     12  C   UNL     1      -0.017   1.379   0.010  0.00  0.00    +0.004 A 
ATOM     13  C   UNL     1       1.194   2.059   0.002  0.00  0.00    +0.020 A 
ATOM     14  C   UNL     1       2.376   1.341  -0.013  0.00  0.00    +0.111 A 
ATOM     15  N   UNL     1       2.367   0.024  -0.021  0.00  0.00    -0.253 NA
ATOM     16  C   UNL     1       1.231  -0.665  -0.014  0.00  0.00    +0.098 A 
ATOM     17  C   UNL     1       0.002  -0.004   0.002  0.00  0.00    +0.030 A 
ENDBRANCH   1  16
BRANCH   9  18
ATOM     18  C   UNL     1       0.888  -9.412  -0.071  0.00  0.00    +0.110 C 
BRANCH  18  19
ATOM     19  C   UNL     1       1.656 -10.735  -0.083  0.00  0.00    +0.049 C 
BRANCH  19  20
ATOM     20  C   UNL     1       0.680 -11.883  -0.086  0.00  0.00    -0.072 C 
ATOM     21  C   UNL     1       0.362 -12.405  -1.227  0.00  0.00    -0.028 C 
ATOM     22  C   UNL     1      -0.603 -13.543  -1.391  0.00  0.00    +0.027 C 
ATOM     23  C   UNL     1      -0.812 -14.254  -0.052  0.00  0.00    +0.004 C 
ATOM     24  C   UNL     1      -1.118 -13.197   1.016  0.00  0.00    +0.005 C 
ATOM     25  C   UNL     1       0.141 -12.353   1.233  0.00  0.00    +0.030 C 
ENDBRANCH  19  20
ENDBRANCH  18  19
ENDBRANCH   9  18
TORSDOF 4
