REMARK  Name = ZINC14013355
REMARK  8 active torsions:
REMARK  status: ('A' for Active; 'I' for Inactive)
REMARK    1  A    between atoms: C_1  and  C_2
REMARK    2  A    between atoms: C_5  and  N_9
REMARK    3  A    between atoms: C_7  and  C_8
REMARK    4  A    between atoms: C_21  and  C_23
REMARK    5  A    between atoms: C_23  and  C_24
REMARK    6  A    between atoms: N_26  and  C_27
REMARK    7  A    between atoms: C_32  and  S_33
REMARK    8  A    between atoms: S_33  and  C_34
REMARK                            x       y       z     vdW  Elec       q    Type
REMARK                         _______ _______ _______ _____ _____    ______ ____
ROOT
ATOM      1  N   UNL     1       0.181   3.354   0.343  0.00  0.00    -0.214 N 
ATOM      2  C   UNL     1       0.608   2.062   0.281  0.00  0.00    +0.171 A 
ATOM      3  C   UNL     1      -0.541   1.258   0.205  0.00  0.00    +0.103 A 
ATOM      4  C   UNL     1      -1.653   2.127   0.219  0.00  0.00    +0.150 A 
ATOM      5  N   UNL     1      -1.219   3.353   0.305  0.00  0.00    -0.172 NA
ATOM      6  C   UNL     1      -0.388  -0.143   0.131  0.00  0.00    +0.266 A 
ATOM      7  O   UNL     1      -1.370  -0.861   0.064  0.00  0.00    -0.267 OA
ATOM      8  N   UNL     1       0.869  -0.694   0.133  0.00  0.00    -0.283 N 
ATOM      9  C   UNL     1       1.929   0.163   0.210  0.00  0.00    +0.174 A 
ATOM     10  N   UNL     1       1.806   1.469   0.280  0.00  0.00    -0.203 NA
ATOM     11  S   UNL     1       3.401  -0.839   0.193  0.00  0.00    -0.085 S 
ATOM     12  C   UNL     1       2.632  -2.496   0.079  0.00  0.00    +0.103 C 
ATOM     13  C   UNL     1       1.141  -2.129   0.059  0.00  0.00    +0.112 C 
ENDROOT
BRANCH   1  18
ATOM     14  C   UNL     1       3.500   7.943   0.693  0.00  0.00    +0.044 C 
ATOM     15  C   UNL     1       2.619   6.724   0.600  0.00  0.00    -0.047 A 
ATOM     16  C   UNL     1       2.993   5.552   1.233  0.00  0.00    +0.006 A 
ATOM     17  C   UNL     1       2.184   4.436   1.154  0.00  0.00    +0.028 A 
ATOM     18  C   UNL     1       1.000   4.486   0.429  0.00  0.00    +0.068 A 
ATOM     19  C   UNL     1       0.628   5.664  -0.205  0.00  0.00    +0.031 A 
ATOM     20  C   UNL     1       1.438   6.780  -0.118  0.00  0.00    -0.046 A 
ATOM     21  C   UNL     1       1.036   8.058  -0.806  0.00  0.00    +0.044 C 
ENDBRANCH   1  18
BRANCH  13  22
ATOM     22  C   UNL     1       0.524  -2.674  -1.230  0.00  0.00    +0.122 C 
BRANCH  22  23
ATOM     23  C   UNL     1       0.657  -4.175  -1.255  0.00  0.00    +0.219 C 
ATOM     24  O   UNL     1       1.111  -4.760  -0.294  0.00  0.00    -0.275 OA
ATOM     25  N   UNL     1       0.272  -4.868  -2.346  0.00  0.00    -0.285 N 
ATOM     26  H   UNL     1      -0.019  -4.396  -3.142  0.00  0.00    +0.155 HD
BRANCH  25  27
ATOM     27  C   UNL     1       0.294  -6.269  -2.330  0.00  0.00    +0.047 A 
ATOM     28  C   UNL     1       0.291  -6.950  -1.122  0.00  0.00    +0.024 A 
ATOM     29  C   UNL     1       0.312  -8.333  -1.109  0.00  0.00    +0.002 A 
ATOM     30  C   UNL     1       0.336  -9.040  -2.297  0.00  0.00    +0.001 A 
ATOM     31  C   UNL     1       0.338  -8.370  -3.505  0.00  0.00    +0.016 A 
ATOM     32  C   UNL     1       0.312  -6.982  -3.529  0.00  0.00    +0.029 A 
BRANCH  32  33
ATOM     33  S   UNL     1       0.308  -6.124  -5.068  0.00  0.00    -0.127 S 
ATOM     34  C   UNL     1       0.336  -7.447  -6.308  0.00  0.00    +0.090 C 
ENDBRANCH  32  33
ENDBRANCH  25  27
ENDBRANCH  22  23
ENDBRANCH  13  22
TORSDOF 5
