REMARK  Name = ZINC09679532
REMARK  10 active torsions:
REMARK  status: ('A' for Active; 'I' for Inactive)
REMARK    1  A    between atoms: C_1  and  C_2
REMARK    2  A    between atoms: C_2  and  O_3
REMARK    3  A    between atoms: O_3  and  C_4
REMARK    4  A    between atoms: C_4  and  C_6
REMARK    5  A    between atoms: C_9  and  N_12
REMARK    6  A    between atoms: C_13  and  C_28
REMARK    7  A    between atoms: C_16  and  C_23
REMARK    8  A    between atoms: C_31  and  C_34
REMARK    9  A    between atoms: C_34  and  C_35
REMARK   10  A    between atoms: C_34  and  C_36
REMARK                            x       y       z     vdW  Elec       q    Type
REMARK                         _______ _______ _______ _____ _____    ______ ____
ROOT
ATOM      1  N   UNL     1       3.478  -3.957   5.781  0.00  0.00    -0.258 N 
ATOM      2  C   UNL     1       3.584  -5.399   6.104  0.00  0.00    +0.142 C 
ATOM      3  C   UNL     1       4.824  -5.485   6.956  0.00  0.00    +0.021 C 
ATOM      4  C   UNL     1       5.955  -5.962   7.451  0.00  0.00    +0.132 C 
ATOM      5  N   UNL     1       6.662  -4.956   8.050  0.00  0.00    -0.150 NA
ATOM      6  N   UNL     1       6.002  -3.922   8.232  0.00  0.00    -0.170 NA
ATOM      7  C   UNL     1       4.644  -4.185   7.771  0.00  0.00    +0.244 C 
ATOM      8  C   UNL     1       4.130  -3.232   6.726  0.00  0.00    +0.251 C 
ATOM      9  O   UNL     1       4.272  -2.027   6.729  0.00  0.00    -0.272 OA
ENDROOT
BRANCH   1  13
ATOM     10  C   UNL     1       1.501  -2.374   2.475  0.00  0.00    +0.059 A 
ATOM     11  C   UNL     1       2.874  -2.165   2.636  0.00  0.00    +0.017 A 
ATOM     12  C   UNL     1       3.524  -2.690   3.730  0.00  0.00    +0.024 A 
ATOM     13  C   UNL     1       2.817  -3.427   4.675  0.00  0.00    +0.037 A 
ATOM     14  C   UNL     1       1.450  -3.637   4.517  0.00  0.00    +0.024 A 
ATOM     15  C   UNL     1       0.792  -3.110   3.429  0.00  0.00    +0.017 A 
BRANCH  10  16
ATOM     16  C   UNL     1       0.801  -1.813   1.304  0.00  0.00    +0.339 C 
ATOM     17  O   UNL     1      -0.393  -1.991   1.168  0.00  0.00    -0.245 OA
BRANCH  16  18
ATOM     18  O   UNL     1       1.485  -1.104   0.386  0.00  0.00    -0.461 OA
BRANCH  18  20
ATOM     19  C   UNL     1       1.683   0.182  -1.651  0.00  0.00    +0.048 C 
ATOM     20  C   UNL     1       0.744  -0.590  -0.722  0.00  0.00    +0.229 C 
ENDBRANCH  18  20
ENDBRANCH  16  18
ENDBRANCH  10  16
ENDBRANCH   1  13
BRANCH   2  21
ATOM     21  C   UNL     1       3.745  -6.213   4.847  0.00  0.00    -0.022 A 
ATOM     22  C   UNL     1       4.530  -5.739   3.812  0.00  0.00    +0.006 A 
ATOM     23  C   UNL     1       4.678  -6.486   2.658  0.00  0.00    +0.004 A 
ATOM     24  C   UNL     1       4.040  -7.706   2.539  0.00  0.00    -0.045 A 
ATOM     25  C   UNL     1       3.256  -8.181   3.574  0.00  0.00    +0.004 A 
ATOM     26  C   UNL     1       3.112  -7.436   4.729  0.00  0.00    +0.006 A 
BRANCH  24  27
ATOM     27  C   UNL     1       4.200  -8.520   1.280  0.00  0.00    +0.013 C 
ATOM     28  C   UNL     1       4.822  -9.875   1.625  0.00  0.00    +0.012 C 
ATOM     29  C   UNL     1       2.829  -8.737   0.636  0.00  0.00    +0.012 C 
ENDBRANCH  24  27
ENDBRANCH   2  21
BRANCH   4  30
ATOM     30  C   UNL     1       6.389  -7.372   7.370  0.00  0.00    +0.155 A 
ATOM     31  C   UNL     1       7.543  -7.882   7.877  0.00  0.00    +0.051 A 
ATOM     32  C   UNL     1       7.547  -9.258   7.573  0.00  0.00    +0.042 A 
ATOM     33  C   UNL     1       6.407  -9.517   6.903  0.00  0.00    +0.196 A 
ATOM     34  O   UNL     1       5.707  -8.377   6.787  0.00  0.00    -0.461 OA
ENDBRANCH   4  30
TORSDOF 7
