REMARK  Name = ZINC23339805
REMARK  12 active torsions:
REMARK  status: ('A' for Active; 'I' for Inactive)
REMARK    1  A    between atoms: C_1  and  N_2
REMARK    2  A    between atoms: N_2  and  C_3
REMARK    3  A    between atoms: C_7  and  C_9
REMARK    4  A    between atoms: C_9  and  N_10
REMARK    5  A    between atoms: N_10  and  C_11
REMARK    6  A    between atoms: N_10  and  C_12
REMARK    7  A    between atoms: C_12  and  C_13
REMARK    8  A    between atoms: N_18  and  C_20
REMARK    9  A    between atoms: C_20  and  C_21
REMARK   10  A    between atoms: C_21  and  C_22
REMARK   11  A    between atoms: C_25  and  O_28
REMARK   12  A    between atoms: O_28  and  C_29
REMARK                            x       y       z     vdW  Elec       q    Type
REMARK                         _______ _______ _______ _____ _____    ______ ____
ROOT
ATOM      1  C   UNL     1      -3.233  -2.167   2.902  0.00  0.00    -0.014 C 
ATOM      2  C   UNL     1      -3.583  -0.772   3.426  0.00  0.00    +0.001 C 
ATOM      3  C   UNL     1      -4.110  -0.891   4.859  0.00  0.00    -0.018 C 
ATOM      4  C   UNL     1      -5.325  -1.822   4.875  0.00  0.00    -0.079 C 
ATOM      5  N   UNL     1      -4.937  -3.143   4.365  0.00  0.00    +0.380 N 
ATOM      6  C   UNL     1      -4.473  -3.061   2.974  0.00  0.00    -0.074 C 
ATOM      7  H   UNL     1      -4.099  -3.506   4.977  0.00  0.00    -0.082 HD
ENDROOT
BRANCH   1   8
ATOM      8  C   UNL     1      -2.762  -2.064   1.450  0.00  0.00    +0.086 C 
BRANCH   8   9
ATOM      9  N   UNL     1      -1.505  -1.306   1.395  0.00  0.00    -0.300 NA
ATOM     10  C   UNL     1      -0.420  -2.037   2.063  0.00  0.00    +0.105 C 
BRANCH   9  11
ATOM     11  C   UNL     1      -1.145  -0.981   0.008  0.00  0.00    +0.129 C 
BRANCH  11  18
ATOM     12  C   UNL     1       3.867   3.209  -0.018  0.00  0.00    +0.131 C 
ATOM     13  N   UNL     1       2.402   3.225  -0.004  0.00  0.00    -0.316 N 
ATOM     14  C   UNL     1       1.684   4.502   0.010  0.00  0.00    +0.131 C 
ATOM     15  C   UNL     1       1.696   2.033  -0.003  0.00  0.00    +0.162 A 
ATOM     16  N   UNL     1       2.157   0.796  -0.014  0.00  0.00    -0.213 NA
ATOM     17  C   UNL     1       1.337  -0.238  -0.012  0.00  0.00    +0.143 A 
ATOM     18  C   UNL     1       0.002  -0.004   0.002  0.00  0.00    +0.044 A 
ATOM     19  S   UNL     1      -0.022   1.782   0.012  0.00  0.00    -0.054 S 
ATOM     20 CL   UNL     1       1.954  -1.861  -0.026  0.00  0.00    -0.061 Cl
ENDBRANCH  11  18
ENDBRANCH   9  11
ENDBRANCH   8   9
ENDBRANCH   1   8
BRANCH   5  21
ATOM     21  C   UNL     1      -6.043  -4.103   4.495  0.00  0.00    -0.074 C 
BRANCH  21  22
ATOM     22  C   UNL     1      -6.333  -4.349   5.976  0.00  0.00    +0.016 C 
BRANCH  22  23
ATOM     23  C   UNL     1      -7.466  -5.333   6.109  0.00  0.00    -0.049 A 
ATOM     24  C   UNL     1      -8.771  -4.878   6.173  0.00  0.00    +0.007 A 
ATOM     25  C   UNL     1      -9.812  -5.778   6.289  0.00  0.00    +0.046 A 
ATOM     26  C   UNL     1      -9.548  -7.139   6.354  0.00  0.00    +0.120 A 
ATOM     27  C   UNL     1      -8.238  -7.592   6.296  0.00  0.00    +0.046 A 
ATOM     28  C   UNL     1      -7.200  -6.688   6.174  0.00  0.00    +0.007 A 
BRANCH  26  29
ATOM     29  O   UNL     1     -10.570  -8.026   6.473  0.00  0.00    -0.495 OA
ATOM     30  C   UNL     1     -11.893  -7.488   6.527  0.00  0.00    +0.277 C 
ENDBRANCH  26  29
ENDBRANCH  22  23
ENDBRANCH  21  22
ENDBRANCH   5  21
TORSDOF 8
