REMARK  Name = ZINC39635738
REMARK  4 active torsions:
REMARK  status: ('A' for Active; 'I' for Inactive)
REMARK    1  A    between atoms: C_1  and  C_2
REMARK    2  A    between atoms: C_8  and  N_10
REMARK    3  A    between atoms: C_11  and  C_13
REMARK    4  A    between atoms: C_24  and  C_26
REMARK                            x       y       z     vdW  Elec       q    Type
REMARK                         _______ _______ _______ _____ _____    ______ ____
ROOT
ATOM      1  C   UNL     1       4.209   0.649   2.377  0.00  0.00    +0.100 C 
ATOM      2  C   UNL     1       5.154  -0.371   1.704  0.00  0.00    +0.121 C 
ATOM      3  N   UNL     1       6.408  -0.294   2.489  0.00  0.00    -0.296 N 
ATOM      4  C   UNL     1       5.957  -0.151   3.894  0.00  0.00    +0.115 C 
ATOM      5  C   UNL     1       4.739   0.790   3.814  0.00  0.00    -0.004 C 
ATOM      6  C   UNL     1       3.672   0.358   4.816  0.00  0.00    -0.010 C 
ATOM      7  C   UNL     1       4.200   0.562   6.238  0.00  0.00    -0.082 C 
ATOM      8  N   UNL     1       4.542   1.975   6.437  0.00  0.00    +0.379 N 
ATOM      9  C   UNL     1       5.634   2.358   5.534  0.00  0.00    -0.082 C 
ATOM     10  C   UNL     1       5.166   2.230   4.081  0.00  0.00    -0.010 C 
ATOM     11  C   UNL     1       7.675  -0.341   2.029  0.00  0.00    +0.249 C 
ATOM     12  O   UNL     1       8.607  -0.265   2.806  0.00  0.00    -0.270 OA
ATOM     13  H   UNL     1       3.733   2.546   6.245  0.00  0.00    -0.086 HD
ATOM     14  H   UNL     1       4.832   2.119   7.393  0.00  0.00    -0.086 HD
ENDROOT
BRANCH  11  15
ATOM     15  C   UNL     1       7.929  -0.487   0.582  0.00  0.00    +0.073 A 
ATOM     16  C   UNL     1       8.058   0.646  -0.226  0.00  0.00    +0.054 A 
ATOM     17  C   UNL     1       8.297   0.502  -1.578  0.00  0.00    +0.021 A 
ATOM     18  C   UNL     1       8.409  -0.759  -2.134  0.00  0.00    +0.003 A 
ATOM     19  C   UNL     1       8.282  -1.886  -1.341  0.00  0.00    +0.021 A 
ATOM     20  C   UNL     1       8.049  -1.758   0.014  0.00  0.00    +0.054 A 
ATOM     21 CL   UNL     1       7.899  -3.173   1.009  0.00  0.00    -0.083 Cl
ATOM     22 CL   UNL     1       7.917   2.231   0.469  0.00  0.00    -0.083 Cl
ENDBRANCH  11  15
BRANCH   1  24
ATOM     23  N   UNL     1       1.759   0.989   2.358  0.00  0.00    -0.312 N 
ATOM     24  C   UNL     1       2.795   0.128   2.388  0.00  0.00    +0.218 C 
ATOM     25  O   UNL     1       2.590  -1.067   2.424  0.00  0.00    -0.275 OA
ATOM     26  H   UNL     1       1.923   1.945   2.330  0.00  0.00    +0.149 HD
BRANCH  23  33
ATOM     27  C   UNL     1      -0.119   1.888   4.372  0.00  0.00    +0.009 C 
ATOM     28  C   UNL     1      -0.549   1.550   2.943  0.00  0.00    +0.006 C 
ATOM     29  C   UNL     1      -0.476   2.809   2.077  0.00  0.00    +0.005 C 
ATOM     30  C   UNL     1      -0.906   2.471   0.648  0.00  0.00    +0.000 C 
ATOM     31  C   UNL     1       0.027   1.403   0.074  0.00  0.00    +0.002 C 
ATOM     32  C   UNL     1      -0.045   0.144   0.940  0.00  0.00    +0.022 C 
ATOM     33  C   UNL     1       0.384   0.482   2.369  0.00  0.00    +0.076 C 
ENDBRANCH  23  33
ENDBRANCH   1  24
TORSDOF 3
