REMARK  Name = ZINC14992295
REMARK  9 active torsions:
REMARK  status: ('A' for Active; 'I' for Inactive)
REMARK    1  A    between atoms: C_1  and  C_2
REMARK    2  A    between atoms: C_7  and  C_8
REMARK    3  A    between atoms: C_14  and  C_32
REMARK    4  A    between atoms: C_15  and  C_18
REMARK    5  A    between atoms: N_20  and  C_21
REMARK    6  A    between atoms: C_21  and  C_22
REMARK    7  A    between atoms: C_22  and  N_69
REMARK    8  A    between atoms: C_32  and  O_33
REMARK    9  A    between atoms: O_33  and  C_34
REMARK                            x       y       z     vdW  Elec       q    Type
REMARK                         _______ _______ _______ _____ _____    ______ ____
ROOT
ATOM      1  C   UNL     1       5.014   8.822  -0.448  0.00  0.00    +0.047 C 
ATOM      2  C   UNL     1       4.402   7.447  -0.387  0.00  0.00    -0.006 A 
ATOM      3  C   UNL     1       3.031   7.279  -0.437  0.00  0.00    +0.120 A 
ATOM      4  N   UNL     1       2.525   6.056  -0.385  0.00  0.00    -0.219 NA
ATOM      5  C   UNL     1       3.311   4.996  -0.276  0.00  0.00    +0.252 A 
ATOM      6  N   UNL     1       4.627   5.108  -0.224  0.00  0.00    -0.210 NA
ATOM      7  C   UNL     1       5.209   6.307  -0.276  0.00  0.00    +0.086 A 
ATOM      8  N   UNL     1       2.734   3.727  -0.220  0.00  0.00    -0.199 N 
ATOM      9  C   UNL     1       1.415   3.458  -0.268  0.00  0.00    +0.086 A 
ATOM     10  C   UNL     1       1.271   2.089  -0.180  0.00  0.00    +0.080 A 
ATOM     11  C   UNL     1       2.569   1.537  -0.086  0.00  0.00    +0.148 A 
ATOM     12  N   UNL     1       3.429   2.517  -0.111  0.00  0.00    -0.171 NA
ENDROOT
BRANCH   7  13
ATOM     13  C   UNL     1       6.678   6.430  -0.218  0.00  0.00    +0.038 A 
ATOM     14  C   UNL     1       7.580   5.679   0.489  0.00  0.00    +0.017 A 
ATOM     15  C   UNL     1       8.918   5.980   0.383  0.00  0.00    +0.008 A 
ATOM     16  C   UNL     1       9.303   7.017  -0.407  0.00  0.00    +0.046 A 
ATOM     17  S   UNL     1       7.742   7.603  -1.043  0.00  0.00    -0.095 S 
ENDBRANCH   7  13
BRANCH  10  18
ATOM     18  C   UNL     1       0.000   1.341  -0.189  0.00  0.00    +0.247 C 
ATOM     19  O   UNL     1      -1.056   1.937  -0.280  0.00  0.00    -0.270 OA
ATOM     20  N   UNL     1       0.009  -0.004  -0.101  0.00  0.00    -0.313 N 
ATOM     21  H   UNL     1       0.852  -0.479  -0.033  0.00  0.00    +0.149 HD
BRANCH  20  22
ATOM     22  C   UNL     1      -1.253  -0.747  -0.110  0.00  0.00    +0.092 C 
BRANCH  22  23
ATOM     23  C   UNL     1      -0.961  -2.249  -0.127  0.00  0.00    -0.050 C 
ATOM     24  C   UNL     1      -0.183  -2.650   1.144  0.00  0.00    -0.010 C 
ATOM     25  C   UNL     1       0.815  -3.729   0.652  0.00  0.00    -0.001 C 
ATOM     26  C   UNL     1       1.237  -3.197  -0.740  0.00  0.00    -0.001 C 
ATOM     27  C   UNL     1      -0.059  -2.597  -1.324  0.00  0.00    -0.010 C 
BRANCH  23  33
ATOM     28  C   UNL     1      -2.902  -2.755  -1.482  0.00  0.00    -0.078 C 
ATOM     29  C   UNL     1      -4.127  -3.666  -1.592  0.00  0.00    -0.019 C 
ATOM     30  C   UNL     1      -5.072  -3.385  -0.420  0.00  0.00    -0.004 C 
ATOM     31  C   UNL     1      -4.321  -3.606   0.896  0.00  0.00    -0.019 C 
ATOM     32  C   UNL     1      -3.090  -2.697   0.933  0.00  0.00    -0.078 C 
ATOM     33  N   UNL     1      -2.210  -3.034  -0.205  0.00  0.00    +0.384 N 
ATOM     34  H   UNL     1      -1.978  -4.033  -0.163  0.00  0.00    -0.081 HD
ENDBRANCH  23  33
ENDBRANCH  22  23
ENDBRANCH  20  22
ENDBRANCH  10  18
BRANCH   9  35
ATOM     35  C   UNL     1       0.303   4.467  -0.391  0.00  0.00    +0.215 C 
BRANCH  35  36
ATOM     36  O   UNL     1       0.015   4.694  -1.772  0.00  0.00    -0.377 OA
ATOM     37  C   UNL     1      -1.031   5.639  -2.001  0.00  0.00    +0.194 C 
ENDBRANCH  35  36
ENDBRANCH   9  35
TORSDOF 7
