REMARK  Name = ZINC48916986
REMARK  5 active torsions:
REMARK  status: ('A' for Active; 'I' for Inactive)
REMARK    1  A    between atoms: C_1  and  C_2
REMARK    2  A    between atoms: C_2  and  C_3
REMARK    3  A    between atoms: C_7  and  C_23
REMARK    4  A    between atoms: N_13  and  C_14
REMARK    5  A    between atoms: C_17  and  C_20
REMARK                            x       y       z     vdW  Elec       q    Type
REMARK                         _______ _______ _______ _____ _____    ______ ____
ROOT
ATOM      1  C   UNL     1      -1.434  -0.534   0.013  0.00  0.00    +0.103 C 
ATOM      2  C   UNL     1      -1.423  -2.062  -0.110  0.00  0.00    +0.182 C 
ATOM      3  O   UNL     1      -0.857  -2.626   1.076  0.00  0.00    -0.373 OA
ATOM      4  C   UNL     1      -1.599  -2.351   2.266  0.00  0.00    +0.133 C 
ATOM      5  C   UNL     1      -1.619  -0.838   2.510  0.00  0.00    +0.141 C 
ATOM      6  N   UNL     1      -2.086  -0.174   1.282  0.00  0.00    -0.278 N 
ATOM      7  C   UNL     1      -3.081   0.734   1.317  0.00  0.00    +0.303 C 
ATOM      8  O   UNL     1      -3.391   1.336   0.308  0.00  0.00    -0.253 OA
ATOM      9  N   UNL     1      -3.732   0.976   2.473  0.00  0.00    -0.296 N 
ATOM     10  C   UNL     1      -0.938  -3.053   3.454  0.00  0.00    +0.039 C 
ATOM     11  H   UNL     1      -3.437   0.551   3.293  0.00  0.00    +0.151 HD
ENDROOT
BRANCH   9  12
ATOM     12  C   UNL     1      -4.884   1.880   2.489  0.00  0.00    +0.074 C 
ATOM     13  C   UNL     1      -4.399   3.323   2.631  0.00  0.00    +0.023 C 
ATOM     14  C   UNL     1      -3.616   3.472   3.938  0.00  0.00    +0.016 C 
ATOM     15  C   UNL     1      -4.523   3.120   5.118  0.00  0.00    +0.102 C 
ATOM     16  C   UNL     1      -5.009   1.676   4.976  0.00  0.00    +0.016 C 
ATOM     17  C   UNL     1      -5.792   1.528   3.670  0.00  0.00    +0.023 C 
BRANCH  15  18
ATOM     18  C   UNL     1      -3.752   3.266   6.405  0.00  0.00    +0.359 C 
ATOM     19  O   UNL     1      -4.290   3.749   7.387  0.00  0.00    -0.246 OA
ATOM     20  O   UNL     1      -2.590   2.901   6.464  0.00  0.00    -0.246 OA
ENDBRANCH  15  18
ENDBRANCH   9  12
BRANCH   1  22
ATOM     21  C   UNL     1      -0.017   1.524   0.013  0.00  0.00    +0.006 C 
ATOM     22  C   UNL     1       0.002  -0.006   0.003  0.00  0.00    +0.021 C 
ENDBRANCH   1  22
TORSDOF 3
