REMARK  Name = ZINC63383948
REMARK  6 active torsions:
REMARK  status: ('A' for Active; 'I' for Inactive)
REMARK    1  A    between atoms: C_1  and  N_2
REMARK    2  A    between atoms: C_3  and  O_36
REMARK    3  A    between atoms: C_5  and  C_19
REMARK    4  A    between atoms: N_9  and  C_12
REMARK    5  A    between atoms: C_26  and  O_31
REMARK    6  A    between atoms: O_31  and  C_32
REMARK                            x       y       z     vdW  Elec       q    Type
REMARK                         _______ _______ _______ _____ _____    ______ ____
ROOT
ATOM      1  C   UNL     1       0.177   1.299  -1.380  0.00  0.00    +0.136 C 
ATOM      2  N   UNL     1       0.149   0.008  -0.687  0.00  0.00    -0.262 N 
ATOM      3  C   UNL     1      -1.088  -0.437  -0.042  0.00  0.00    +0.219 C 
ATOM      4  C   UNL     1      -1.224  -1.955  -0.191  0.00  0.00    +0.142 C 
ATOM      5  C   UNL     1       0.090  -2.607   0.162  0.00  0.00    +0.236 C 
ATOM      6  O   UNL     1       0.102  -3.689   0.708  0.00  0.00    -0.274 OA
ATOM      7  N   UNL     1       1.248  -1.986  -0.129  0.00  0.00    -0.194 N 
ATOM      8  C   UNL     1       1.256  -0.751  -0.657  0.00  0.00    +0.317 C 
ATOM      9  O   UNL     1       2.291  -0.310  -1.115  0.00  0.00    -0.252 OA
ENDROOT
BRANCH   4  10
ATOM     10  C   UNL     1      -1.593  -2.296  -1.635  0.00  0.00    +0.096 C 
ATOM     11  C   UNL     1      -1.839  -3.801  -1.763  0.00  0.00    +0.124 C 
ATOM     12  C   UNL     1      -2.030  -4.077  -3.251  0.00  0.00    -0.036 C 
ATOM     13  C   UNL     1      -3.186  -4.713  -3.368  0.00  0.00    +0.003 A 
ATOM     14  C   UNL     1      -3.868  -5.311  -4.527  0.00  0.00    +0.055 A 
ATOM     15  C   UNL     1      -5.079  -5.888  -4.293  0.00  0.00    +0.121 A 
ATOM     16  C   UNL     1      -5.692  -5.939  -3.033  0.00  0.00    +0.047 A 
ATOM     17  C   UNL     1      -5.151  -5.427  -1.899  0.00  0.00    +0.029 A 
ATOM     18  C   UNL     1      -3.837  -4.780  -2.023  0.00  0.00    +0.043 A 
ATOM     19  N   UNL     1      -3.072  -4.228  -1.104  0.00  0.00    -0.376 N 
ATOM     20  C   UNL     1      -1.052  -3.568  -4.282  0.00  0.00    +0.048 C 
ATOM     21  C   UNL     1      -0.812  -2.084  -3.951  0.00  0.00    +0.085 C 
ATOM     22  N   UNL     1      -0.484  -1.929  -2.531  0.00  0.00    -0.310 NA
ATOM     23  H   UNL     1      -0.155  -0.996  -2.335  0.00  0.00    +0.122 HD
ATOM     24  H   UNL     1      -3.281  -4.116  -0.163  0.00  0.00    +0.160 HD
BRANCH  15  25
ATOM     25  O   UNL     1      -5.733  -6.447  -5.345  0.00  0.00    -0.495 OA
ATOM     26  C   UNL     1      -7.002  -7.047  -5.075  0.00  0.00    +0.277 C 
ENDBRANCH  15  25
ENDBRANCH   4  10
BRANCH   7  27
ATOM     27  C   UNL     1       2.463  -2.641   0.118  0.00  0.00    +0.045 A 
ATOM     28  C   UNL     1       3.115  -2.463   1.330  0.00  0.00    +0.025 A 
ATOM     29  C   UNL     1       4.312  -3.109   1.571  0.00  0.00    +0.022 A 
ATOM     30  C   UNL     1       4.862  -3.933   0.604  0.00  0.00    +0.041 A 
ATOM     31  C   UNL     1       4.214  -4.111  -0.606  0.00  0.00    +0.022 A 
ATOM     32  C   UNL     1       3.014  -3.472  -0.848  0.00  0.00    +0.025 A 
ATOM     33 CL   UNL     1       6.366  -4.742   0.910  0.00  0.00    -0.084 Cl
ENDBRANCH   7  27
BRANCH   3  34
ATOM     34  O   UNL     1      -2.205   0.203  -0.661  0.00  0.00    -0.373 OA
ATOM     35  H   UNL     1      -2.186   1.168  -0.605  0.00  0.00    +0.212 HD
ENDBRANCH   3  34
TORSDOF 4
