REMARK  Name = ZINC35714631
REMARK  12 active torsions:
REMARK  status: ('A' for Active; 'I' for Inactive)
REMARK    1  A    between atoms: C_1  and  C_2
REMARK    2  A    between atoms: C_2  and  C_3
REMARK    3  A    between atoms: C_3  and  C_5
REMARK    4  A    between atoms: C_3  and  N_6
REMARK    5  A    between atoms: N_6  and  C_7
REMARK    6  A    between atoms: N_6  and  C_18
REMARK    7  A    between atoms: C_7  and  C_8
REMARK    8  A    between atoms: C_12  and  C_14
REMARK    9  A    between atoms: C_18  and  C_19
REMARK   10  A    between atoms: C_21  and  C_24
REMARK   11  A    between atoms: N_26  and  C_27
REMARK   12  A    between atoms: C_27  and  C_28
REMARK                            x       y       z     vdW  Elec       q    Type
REMARK                         _______ _______ _______ _____ _____    ______ ____
ROOT
ATOM      1  C   UNL     1       2.530   1.636  -1.055  0.00  0.00    +0.020 C 
ENDROOT
BRANCH   1   2
ATOM      2  C   UNL     1       2.560   2.091   0.381  0.00  0.00    +0.179 A 
ATOM      3  N   UNL     1       3.631   2.381   1.056  0.00  0.00    -0.210 NA
ATOM      4  C   UNL     1       3.263   2.751   2.313  0.00  0.00    +0.163 A 
ATOM      5  C   UNL     1       1.905   2.673   2.370  0.00  0.00    +0.230 A 
ATOM      6  O   UNL     1       1.485   2.267   1.162  0.00  0.00    -0.449 OA
BRANCH   4   7
ATOM      7  C   UNL     1       4.164   3.160   3.405  0.00  0.00    +0.266 C 
ATOM      8  O   UNL     1       3.705   3.470   4.488  0.00  0.00    -0.268 OA
ATOM      9  N   UNL     1       5.496   3.191   3.204  0.00  0.00    -0.306 N 
ATOM     10  H   UNL     1       5.862   2.944   2.341  0.00  0.00    +0.149 HD
BRANCH   9  11
ATOM     11  C   UNL     1       6.392   3.597   4.290  0.00  0.00    +0.140 C 
BRANCH  11  12
ATOM     12  C   UNL     1       7.819   3.546   3.810  0.00  0.00    -0.030 A 
ATOM     13  C   UNL     1       8.552   2.381   3.944  0.00  0.00    +0.008 A 
ATOM     14  C   UNL     1       9.861   2.333   3.503  0.00  0.00    +0.038 A 
ATOM     15  C   UNL     1      10.438   3.452   2.927  0.00  0.00    +0.123 A 
ATOM     16  C   UNL     1       9.703   4.618   2.793  0.00  0.00    +0.038 A 
ATOM     17  C   UNL     1       8.393   4.662   3.229  0.00  0.00    +0.008 A 
ATOM     18  F   UNL     1      11.718   3.407   2.496  0.00  0.00    -0.205 F 
ENDBRANCH  11  12
ENDBRANCH   9  11
ENDBRANCH   4   7
ENDBRANCH   1   2
BRANCH   1  19
ATOM     19  N   UNL     1       2.515   0.168  -1.103  0.00  0.00    +0.390 N 
ATOM     20  H   UNL     1       3.291  -0.194  -0.570  0.00  0.00    -0.080 HD
BRANCH  19  21
ATOM     21  C   UNL     1       1.255  -0.328  -0.534  0.00  0.00    -0.071 C 
ATOM     22  C   UNL     1       0.122  -0.116  -1.540  0.00  0.00    -0.013 C 
BRANCH  21  24
ATOM     23  C   UNL     1       2.510  -2.030   0.796  0.00  0.00    +0.002 C 
ATOM     24  C   UNL     1       1.388  -1.820  -0.223  0.00  0.00    -0.019 C 
ENDBRANCH  21  24
ENDBRANCH  19  21
BRANCH  19  25
ATOM     25  C   UNL     1       2.630  -0.278  -2.498  0.00  0.00    -0.042 C 
BRANCH  25  26
ATOM     26  C   UNL     1       2.836  -1.770  -2.534  0.00  0.00    -0.063 A 
ATOM     27  C   UNL     1       3.961  -2.327  -1.954  0.00  0.00    +0.002 A 
ATOM     28  C   UNL     1       4.150  -3.695  -1.987  0.00  0.00    +0.001 A 
ATOM     29  C   UNL     1       3.214  -4.508  -2.599  0.00  0.00    +0.012 A 
ATOM     30  C   UNL     1       2.089  -3.952  -3.178  0.00  0.00    +0.055 A 
ATOM     31  C   UNL     1       1.898  -2.583  -3.141  0.00  0.00    +0.014 A 
BRANCH  30  32
ATOM     32  C   UNL     1       1.069  -4.838  -3.845  0.00  0.00    +0.417 C 
ATOM     33  F   UNL     1       1.477  -6.172  -3.751  0.00  0.00    -0.166 F 
ATOM     34  F   UNL     1      -0.169  -4.683  -3.211  0.00  0.00    -0.166 F 
ATOM     35  F   UNL     1       0.951  -4.480  -5.192  0.00  0.00    -0.166 F 
ENDBRANCH  30  32
ENDBRANCH  25  26
ENDBRANCH  19  25
ENDBRANCH   1  19
TORSDOF 10
