REMARK  Name = ZINC60211589
REMARK  15 active torsions:
REMARK  status: ('A' for Active; 'I' for Inactive)
REMARK    1  A    between atoms: C_1  and  C_2
REMARK    2  A    between atoms: C_2  and  N_3
REMARK    3  A    between atoms: C_4  and  C_27
REMARK    4  A    between atoms: C_7  and  S_8
REMARK    5  A    between atoms: S_8  and  C_9
REMARK    6  A    between atoms: C_9  and  C_10
REMARK    7  A    between atoms: N_12  and  N_13
REMARK    8  A    between atoms: C_14  and  C_16
REMARK    9  A    between atoms: C_19  and  C_21
REMARK   10  A    between atoms: C_21  and  N_22
REMARK   11  A    between atoms: N_22  and  C_23
REMARK   12  A    between atoms: N_22  and  C_25
REMARK   13  A    between atoms: C_23  and  C_24
REMARK   14  A    between atoms: C_25  and  C_26
REMARK   15  A    between atoms: C_31  and  C_33
REMARK                            x       y       z     vdW  Elec       q    Type
REMARK                         _______ _______ _______ _____ _____    ______ ____
ROOT
ATOM      1  C   UNL     1       5.262   2.509  -0.668  0.00  0.00    +0.239 C 
ATOM      2  O   UNL     1       5.304   2.792   0.511  0.00  0.00    -0.273 OA
ATOM      3  N   UNL     1       6.286   1.843  -1.238  0.00  0.00    -0.233 N 
ATOM      4  H   UNL     1       6.252   1.617  -2.181  0.00  0.00    +0.173 HD
ENDROOT
BRANCH   3   5
ATOM      5  N   UNL     1       7.399   1.478  -0.470  0.00  0.00    -0.228 N 
ATOM      6  C   UNL     1       8.423   0.813  -1.040  0.00  0.00    +0.295 C 
ATOM      7  O   UNL     1       8.381   0.529  -2.223  0.00  0.00    -0.265 OA
ATOM      8  H   UNL     1       7.433   1.705   0.473  0.00  0.00    +0.173 HD
BRANCH   6   9
ATOM      9  C   UNL     1       9.588   0.431  -0.236  0.00  0.00    +0.191 A 
ATOM     10  C   UNL     1      10.690  -0.237  -0.687  0.00  0.00    +0.055 A 
ATOM     11  C   UNL     1      11.548  -0.389   0.414  0.00  0.00    +0.043 A 
ATOM     12  C   UNL     1      10.940   0.185   1.475  0.00  0.00    +0.090 A 
ATOM     13  O   UNL     1       9.761   0.683   1.078  0.00  0.00    -0.457 OA
BRANCH  12  14
ATOM     14  C   UNL     1      11.497   0.258   2.873  0.00  0.00    -0.003 C 
BRANCH  14  15
ATOM     15  N   UNL     1      12.286   1.488   3.022  0.00  0.00    +0.384 N 
ATOM     16  H   UNL     1      12.994   1.523   2.305  0.00  0.00    -0.081 HD
BRANCH  15  17
ATOM     17  C   UNL     1      11.402   2.655   2.896  0.00  0.00    -0.082 C 
ATOM     18  C   UNL     1      12.240   3.934   2.914  0.00  0.00    -0.017 C 
ENDBRANCH  15  17
BRANCH  15  19
ATOM     19  C   UNL     1      12.927   1.501   4.344  0.00  0.00    -0.082 C 
ATOM     20  C   UNL     1      13.945   0.362   4.428  0.00  0.00    -0.017 C 
ENDBRANCH  15  19
ENDBRANCH  14  15
ENDBRANCH  12  14
ENDBRANCH   6   9
ENDBRANCH   3   5
BRANCH   1  21
ATOM     21  C   UNL     1       4.065   2.901  -1.495  0.00  0.00    +0.174 C 
BRANCH  21  22
ATOM     22  S   UNL     1       2.869   3.776  -0.449  0.00  0.00    -0.077 S 
BRANCH  22  27
ATOM     23  N   UNL     1       0.396   4.827  -1.227  0.00  0.00    -0.302 N 
ATOM     24  C   UNL     1      -0.329   4.898  -2.395  0.00  0.00    +0.165 A 
ATOM     25  N   UNL     1       0.378   4.298  -3.324  0.00  0.00    -0.128 NA
ATOM     26  N   UNL     1       1.479   3.863  -2.824  0.00  0.00    -0.122 NA
ATOM     27  C   UNL     1       1.545   4.163  -1.546  0.00  0.00    +0.192 A 
BRANCH  24  28
ATOM     28  C   UNL     1      -1.653   5.531  -2.570  0.00  0.00    +0.020 A 
ATOM     29  C   UNL     1      -2.126   6.441  -1.623  0.00  0.00    +0.011 A 
ATOM     30  C   UNL     1      -3.363   7.028  -1.792  0.00  0.00    +0.001 A 
ATOM     31  C   UNL     1      -4.134   6.716  -2.898  0.00  0.00    +0.003 A 
ATOM     32  C   UNL     1      -3.672   5.815  -3.840  0.00  0.00    -0.050 A 
ATOM     33  C   UNL     1      -2.434   5.225  -3.686  0.00  0.00    +0.015 A 
ATOM     34  C   UNL     1      -4.519   5.482  -5.041  0.00  0.00    +0.044 C 
ENDBRANCH  24  28
BRANCH  23  36
ATOM     35  C   UNL     1       0.538   6.790   0.225  0.00  0.00    +0.027 C 
ATOM     36  C   UNL     1       0.016   5.359   0.084  0.00  0.00    +0.122 C 
ENDBRANCH  23  36
ENDBRANCH  22  27
ENDBRANCH  21  22
ENDBRANCH   1  21
TORSDOF 11
