REMARK  Name = ZINC16470079
REMARK  7 active torsions:
REMARK  status: ('A' for Active; 'I' for Inactive)
REMARK    1  A    between atoms: C_1  and  C_2
REMARK    2  A    between atoms: C_5  and  O_8
REMARK    3  A    between atoms: O_8  and  C_9
REMARK    4  A    between atoms: C_14  and  N_15
REMARK    5  A    between atoms: C_16  and  C_18
REMARK    6  A    between atoms: C_18  and  C_19
REMARK    7  A    between atoms: C_19  and  N_20
REMARK                            x       y       z     vdW  Elec       q    Type
REMARK                         _______ _______ _______ _____ _____    ______ ____
ROOT
ATOM      1  N   UNL     1      -1.229   2.114  -0.001  0.00  0.00    -0.283 N 
ATOM      2  C   UNL     1      -2.379   1.418  -0.104  0.00  0.00    +0.219 C 
ATOM      3  O   UNL     1      -2.348   0.218  -0.276  0.00  0.00    -0.275 OA
ATOM      4  H   UNL     1      -1.251   3.081   0.061  0.00  0.00    +0.155 HD
ENDROOT
BRANCH   1  10
ATOM      5  C   UNL     1       1.176   2.123  -0.278  0.00  0.00    +0.150 A 
ATOM      6  C   UNL     1       2.387   1.448  -0.265  0.00  0.00    +0.048 A 
ATOM      7  C   UNL     1       2.424   0.101   0.040  0.00  0.00    +0.004 A 
ATOM      8  C   UNL     1       1.256  -0.579   0.333  0.00  0.00    +0.002 A 
ATOM      9  C   UNL     1       0.044   0.086   0.322  0.00  0.00    +0.027 A 
ATOM     10  C   UNL     1      -0.001   1.439   0.017  0.00  0.00    +0.076 A 
BRANCH   5  11
ATOM     11  O   UNL     1       1.137   3.448  -0.578  0.00  0.00    -0.454 OA
BRANCH  11  16
ATOM     12  C   UNL     1       5.927   5.937  -2.186  0.00  0.00    +0.044 C 
ATOM     13  C   UNL     1       4.646   5.271  -1.756  0.00  0.00    -0.050 A 
ATOM     14  C   UNL     1       3.961   4.457  -2.639  0.00  0.00    +0.007 A 
ATOM     15  C   UNL     1       2.786   3.845  -2.247  0.00  0.00    +0.046 A 
ATOM     16  C   UNL     1       2.293   4.048  -0.966  0.00  0.00    +0.129 A 
ATOM     17  C   UNL     1       2.980   4.870  -0.083  0.00  0.00    +0.046 A 
ATOM     18  C   UNL     1       4.157   5.475  -0.478  0.00  0.00    +0.007 A 
ENDBRANCH  11  16
ENDBRANCH   5  11
ENDBRANCH   1  10
BRANCH   2  19
ATOM     19  C   UNL     1      -3.702   2.132  -0.006  0.00  0.00    +0.118 C 
BRANCH  19  20
ATOM     20  C   UNL     1      -4.840   1.120  -0.155  0.00  0.00    +0.135 C 
BRANCH  20  21
ATOM     21  N   UNL     1      -6.127   1.814  -0.060  0.00  0.00    -0.298 N 
ATOM     22  C   UNL     1      -6.724   1.960   1.151  0.00  0.00    +0.202 A 
ATOM     23  N   UNL     1      -7.860   2.566   1.319  0.00  0.00    -0.237 NA
ATOM     24  C   UNL     1      -8.545   3.095   0.273  0.00  0.00    +0.078 A 
ATOM     25  C   UNL     1      -9.770   3.741   0.452  0.00  0.00    +0.028 A 
ATOM     26  C   UNL     1     -10.431   4.262  -0.638  0.00  0.00    +0.002 A 
ATOM     27  C   UNL     1      -9.894   4.153  -1.914  0.00  0.00    +0.001 A 
ATOM     28  C   UNL     1      -8.688   3.520  -2.116  0.00  0.00    +0.015 A 
ATOM     29  C   UNL     1      -8.003   2.985  -1.026  0.00  0.00    +0.065 A 
ATOM     30  C   UNL     1      -6.712   2.298  -1.180  0.00  0.00    +0.262 A 
ATOM     31  O   UNL     1      -6.190   2.170  -2.272  0.00  0.00    -0.267 OA
ENDBRANCH  20  21
ENDBRANCH  19  20
ENDBRANCH   2  19
TORSDOF 6
