REMARK  Name = ZINC12404024
REMARK  5 active torsions:
REMARK  status: ('A' for Active; 'I' for Inactive)
REMARK    1  A    between atoms: C_1  and  C_2
REMARK    2  A    between atoms: C_5  and  C_23
REMARK    3  A    between atoms: N_9  and  N_10
REMARK    4  A    between atoms: C_11  and  C_13
REMARK    5  A    between atoms: C_23  and  C_25
REMARK                            x       y       z     vdW  Elec       q    Type
REMARK                         _______ _______ _______ _____ _____    ______ ____
ROOT
ATOM      1  N   UNL     1      -0.166  -0.859   3.605  0.00  0.00    -0.202 N 
ATOM      2  C   UNL     1      -0.390  -0.231   4.776  0.00  0.00    +0.271 C 
ATOM      3  O   UNL     1      -0.616   0.965   4.792  0.00  0.00    -0.268 OA
ATOM      4  H   UNL     1       0.014  -1.812   3.592  0.00  0.00    +0.178 HD
ENDROOT
BRANCH   2   5
ATOM      5  C   UNL     1      -0.362  -0.990   6.032  0.00  0.00    +0.095 A 
ATOM      6  C   UNL     1      -0.568  -0.539   7.300  0.00  0.00    +0.068 A 
ATOM      7  C   UNL     1      -0.497  -1.436   8.383  0.00  0.00    +0.008 A 
ATOM      8  C   UNL     1      -0.679  -1.163   9.763  0.00  0.00    +0.010 A 
ATOM      9  C   UNL     1      -0.574  -2.152  10.687  0.00  0.00    +0.001 A 
ATOM     10  C   UNL     1      -0.288  -3.462  10.322  0.00  0.00    +0.001 A 
ATOM     11  C   UNL     1      -0.104  -3.772   8.990  0.00  0.00    +0.016 A 
ATOM     12  C   UNL     1      -0.207  -2.778   8.041  0.00  0.00    +0.021 A 
ATOM     13  S   UNL     1      -0.058  -2.732   6.272  0.00  0.00    -0.082 S 
ATOM     14 CL   UNL     1      -0.916   1.138   7.581  0.00  0.00    -0.082 Cl
ENDBRANCH   2   5
BRANCH   1  22
ATOM     15  C   UNL     1      -0.018   1.503   0.010  0.00  0.00    +0.045 C 
ATOM     16  C   UNL     1       0.002  -0.004   0.002  0.00  0.00    -0.032 C 
ATOM     17  C   UNL     1       0.005  -0.654  -1.152  0.00  0.00    -0.021 C 
ATOM     18  C   UNL     1       0.034  -2.150  -1.252  0.00  0.00    +0.035 C 
ATOM     19  C   UNL     1      -0.476  -2.800   0.033  0.00  0.00    +0.024 C 
ATOM     20  C   UNL     1       0.302  -2.227   1.226  0.00  0.00    +0.065 C 
ATOM     21  C   UNL     1       0.024  -0.740   1.276  0.00  0.00    +0.062 C 
ATOM     22  N   UNL     1      -0.192  -0.135   2.406  0.00  0.00    -0.184 NA
BRANCH  19  23
ATOM     23  C   UNL     1      -0.267  -4.291  -0.039  0.00  0.00    -0.076 C 
ATOM     24  C   UNL     1      -1.293  -5.101   0.040  0.00  0.00    +0.007 C 
ATOM     25  C   UNL     1       1.123  -4.850  -0.201  0.00  0.00    +0.039 C 
ENDBRANCH  19  23
ENDBRANCH   1  22
TORSDOF 3
