REMARK  Name = ZINC49508007
REMARK  14 active torsions:
REMARK  status: ('A' for Active; 'I' for Inactive)
REMARK    1  A    between atoms: C_1  and  C_2
REMARK    2  A    between atoms: C_2  and  C_3
REMARK    3  A    between atoms: C_3  and  C_4
REMARK    4  A    between atoms: N_6  and  C_7
REMARK    5  A    between atoms: C_10  and  S_13
REMARK    6  A    between atoms: S_13  and  N_16
REMARK    7  A    between atoms: N_16  and  C_17
REMARK    8  A    between atoms: N_23  and  C_31
REMARK    9  A    between atoms: C_26  and  C_29
REMARK   10  A    between atoms: C_26  and  C_30
REMARK   11  A    between atoms: C_31  and  C_32
REMARK   12  A    between atoms: C_32  and  C_33
REMARK   13  A    between atoms: C_33  and  C_34
REMARK   14  A    between atoms: C_33  and  C_35
REMARK                            x       y       z     vdW  Elec       q    Type
REMARK                         _______ _______ _______ _____ _____    ______ ____
ROOT
ATOM      1  C   UNL     1      -3.882  -8.907   2.712  0.00  0.00    +0.050 A 
ATOM      2  C   UNL     1      -4.646  -7.748   2.755  0.00  0.00    +0.028 A 
ATOM      3  C   UNL     1      -5.722  -7.657   3.618  0.00  0.00    +0.049 A 
ATOM      4  C   UNL     1      -6.041  -8.722   4.443  0.00  0.00    +0.142 A 
ATOM      5  C   UNL     1      -5.273  -9.884   4.405  0.00  0.00    +0.080 A 
ATOM      6  C   UNL     1      -4.200  -9.979   3.535  0.00  0.00    +0.051 A 
ATOM      7  N   UNL     1      -5.599 -10.951   5.253  0.00  0.00    -0.268 N 
ATOM      8  C   UNL     1      -6.880 -11.377   5.320  0.00  0.00    +0.229 C 
ATOM      9  O   UNL     1      -7.191 -12.255   6.097  0.00  0.00    -0.275 OA
ATOM     10  C   UNL     1      -7.921 -10.755   4.425  0.00  0.00    +0.076 C 
ATOM     11  C   UNL     1      -8.280  -9.359   4.930  0.00  0.00    +0.244 C 
ATOM     12  O   UNL     1      -7.101  -8.642   5.291  0.00  0.00    -0.489 OA
ATOM     13  C   UNL     1      -9.176 -11.630   4.421  0.00  0.00    +0.024 C 
ATOM     14  C   UNL     1      -7.371 -10.654   3.001  0.00  0.00    +0.024 C 
ENDROOT
BRANCH   1  15
ATOM     15  N   UNL     1      -2.795  -8.996   1.835  0.00  0.00    -0.216 N 
ATOM     16  H   UNL     1      -1.951  -9.362   2.144  0.00  0.00    +0.174 HD
BRANCH  15  17
ATOM     17  S   UNL     1      -2.949  -8.477   0.270  0.00  0.00    +0.072 S 
ATOM     18  O   UNL     1      -1.724  -8.783  -0.382  0.00  0.00    -0.150 OA
ATOM     19  O   UNL     1      -3.472  -7.157   0.329  0.00  0.00    -0.150 OA
BRANCH  17  23
ATOM     20  C   UNL     1      -6.129 -11.042  -1.684  0.00  0.00    +0.033 A 
ATOM     21  C   UNL     1      -6.467  -9.812  -1.136  0.00  0.00    +0.025 A 
ATOM     22  C   UNL     1      -5.495  -9.032  -0.541  0.00  0.00    +0.030 A 
ATOM     23  C   UNL     1      -4.186  -9.475  -0.490  0.00  0.00    +0.109 A 
ATOM     24  C   UNL     1      -3.846 -10.700  -1.035  0.00  0.00    +0.030 A 
ATOM     25  C   UNL     1      -4.815 -11.487  -1.626  0.00  0.00    +0.025 A 
BRANCH  20  28
ATOM     26  C   UNL     1      -7.059 -13.177  -2.175  0.00  0.00    +0.217 C 
ATOM     27  O   UNL     1      -6.116 -13.702  -1.622  0.00  0.00    -0.275 OA
ATOM     28  N   UNL     1      -7.112 -11.835  -2.288  0.00  0.00    -0.285 N 
ATOM     29  H   UNL     1      -7.831 -11.418  -2.788  0.00  0.00    +0.155 HD
BRANCH  26  30
ATOM     30  C   UNL     1      -8.172 -14.024  -2.735  0.00  0.00    +0.096 C 
BRANCH  30  32
ATOM     31  C   UNL     1      -8.998 -16.362  -3.044  0.00  0.00    +0.004 C 
ATOM     32  C   UNL     1      -7.868 -15.501  -2.475  0.00  0.00    +0.006 C 
ENDBRANCH  30  32
ENDBRANCH  26  30
ENDBRANCH  20  28
ENDBRANCH  17  23
ENDBRANCH  15  17
ENDBRANCH   1  15
BRANCH   7  33
ATOM     33  C   UNL     1      -4.562 -11.598   6.061  0.00  0.00    +0.114 C 
BRANCH  33  34
ATOM     34  C   UNL     1      -4.455 -10.892   7.414  0.00  0.00    +0.022 C 
BRANCH  34  35
ATOM     35  C   UNL     1      -3.371 -11.568   8.257  0.00  0.00    -0.016 C 
ATOM     36  C   UNL     1      -3.177 -10.787   9.559  0.00  0.00    +0.007 C 
ATOM     37  C   UNL     1      -3.797 -13.002   8.581  0.00  0.00    +0.007 C 
ENDBRANCH  34  35
ENDBRANCH  33  34
ENDBRANCH   7  33
TORSDOF 9
