REMARK  Name = ZINC11736946
REMARK  10 active torsions:
REMARK  status: ('A' for Active; 'I' for Inactive)
REMARK    1  A    between atoms: C_1  and  C_2
REMARK    2  A    between atoms: C_4  and  O_17
REMARK    3  A    between atoms: C_5  and  N_16
REMARK    4  A    between atoms: C_6  and  C_15
REMARK    5  A    between atoms: C_7  and  S_8
REMARK    6  A    between atoms: S_8  and  N_11
REMARK    7  A    between atoms: N_11  and  C_12
REMARK    8  A    between atoms: C_12  and  C_13
REMARK    9  A    between atoms: C_12  and  C_14
REMARK   10  A    between atoms: O_17  and  C_18
REMARK                            x       y       z     vdW  Elec       q    Type
REMARK                         _______ _______ _______ _____ _____    ______ ____
ROOT
ATOM      1  C   UNL     1      -3.129   0.404  -2.395  0.00  0.00    +0.046 C 
ATOM      2  C   UNL     1      -2.369   1.639  -2.806  0.00  0.00    -0.020 A 
ATOM      3  C   UNL     1      -2.294   1.990  -4.142  0.00  0.00    +0.052 A 
ATOM      4  C   UNL     1      -1.597   3.125  -4.522  0.00  0.00    +0.141 A 
ATOM      5  C   UNL     1      -0.972   3.910  -3.555  0.00  0.00    +0.072 A 
ATOM      6  C   UNL     1      -1.056   3.555  -2.217  0.00  0.00    +0.000 A 
ATOM      7  C   UNL     1      -1.750   2.418  -1.847  0.00  0.00    +0.113 A 
ATOM      8  C   UNL     1      -0.386   4.405  -1.168  0.00  0.00    +0.048 C 
ENDROOT
BRANCH   7   9
ATOM      9  S   UNL     1      -1.850   1.965  -0.147  0.00  0.00    +0.059 S 
ATOM     10  O   UNL     1      -3.120   1.354   0.036  0.00  0.00    -0.153 OA
ATOM     11  O   UNL     1      -1.435   3.099   0.601  0.00  0.00    -0.153 OA
BRANCH   9  12
ATOM     12  N   UNL     1      -0.717   0.786   0.113  0.00  0.00    -0.187 NA
ATOM     13  H   UNL     1      -0.995  -0.103   0.385  0.00  0.00    +0.148 HD
BRANCH  12  14
ATOM     14  C   UNL     1       0.706   1.083  -0.072  0.00  0.00    +0.070 C 
ATOM     15  C   UNL     1       1.341   1.402   1.282  0.00  0.00    +0.025 C 
ATOM     16  C   UNL     1       1.404  -0.130  -0.690  0.00  0.00    +0.025 C 
ENDBRANCH  12  14
ENDBRANCH   9  12
ENDBRANCH   7   9
BRANCH   5  17
ATOM     17  N   UNL     1      -0.265   5.058  -3.933  0.00  0.00    -0.355 N 
ATOM     18  H   UNL     1      -0.146   5.266  -4.873  0.00  0.00    +0.142 HD
ATOM     19  H   UNL     1       0.105   5.645  -3.256  0.00  0.00    +0.142 HD
ENDBRANCH   5  17
BRANCH   4  20
ATOM     20  O   UNL     1      -1.523   3.472  -5.835  0.00  0.00    -0.493 OA
ATOM     21  C   UNL     1      -2.189   2.620  -6.769  0.00  0.00    +0.277 C 
ENDBRANCH   4  20
TORSDOF 5
