REMARK  Name = ZINC16607626
REMARK  15 active torsions:
REMARK  status: ('A' for Active; 'I' for Inactive)
REMARK    1  A    between atoms: C_1  and  C_2
REMARK    2  A    between atoms: N_4  and  C_35
REMARK    3  A    between atoms: C_7  and  C_9
REMARK    4  A    between atoms: C_9  and  C_11
REMARK    5  A    between atoms: C_11  and  C_12
REMARK    6  A    between atoms: C_12  and  C_13
REMARK    7  A    between atoms: C_13  and  C_14
REMARK    8  A    between atoms: C_14  and  C_15
REMARK    9  A    between atoms: C_15  and  C_16
REMARK   10  A    between atoms: C_16  and  C_17
REMARK   11  A    between atoms: C_17  and  C_18
REMARK   12  A    between atoms: C_18  and  C_19
REMARK   13  A    between atoms: C_19  and  C_21
REMARK   14  A    between atoms: C_23  and  C_34
REMARK   15  A    between atoms: N_25  and  C_28
REMARK                            x       y       z     vdW  Elec       q    Type
REMARK                         _______ _______ _______ _____ _____    ______ ____
ROOT
ATOM      1  C   UNL     1      -7.614   1.813   1.740  0.00  0.00    +0.000 C 
ENDROOT
BRANCH   1   2
ATOM      2  C   UNL     1      -6.797   2.070   0.472  0.00  0.00    +0.000 C 
BRANCH   2   3
ATOM      3  C   UNL     1      -5.326   1.743   0.739  0.00  0.00    +0.008 C 
BRANCH   3   4
ATOM      4  C   UNL     1      -4.509   1.999  -0.530  0.00  0.00    +0.080 C 
BRANCH   4   5
ATOM      5  C   UNL     1      -3.060   1.678  -0.267  0.00  0.00    +0.170 C 
ATOM      6  O   UNL     1      -2.715   1.282   0.827  0.00  0.00    -0.292 OA
BRANCH   5  13
ATOM      7  C   UNL     1      -0.013   1.086   0.008  0.00  0.00    +0.066 C 
ATOM      8  C   UNL     1      -0.742   1.585  -1.213  0.00  0.00    +0.046 A 
ATOM      9  N   UNL     1      -0.183   1.855  -2.405  0.00  0.00    -0.294 N 
ATOM     10  N   UNL     1      -1.160   2.297  -3.302  0.00  0.00    -0.219 N 
ATOM     11  C   UNL     1      -2.353   2.307  -2.672  0.00  0.00    +0.282 A 
ATOM     12  O   UNL     1      -3.425   2.634  -3.146  0.00  0.00    -0.265 OA
ATOM     13  C   UNL     1      -2.102   1.837  -1.298  0.00  0.00    +0.104 A 
ATOM     14  H   UNL     1       0.759   1.759  -2.613  0.00  0.00    +0.187 HD
BRANCH  10  15
ATOM     15  C   UNL     1      -0.938   2.667  -4.633  0.00  0.00    +0.067 A 
ATOM     16  C   UNL     1      -1.997   3.096  -5.422  0.00  0.00    +0.028 A 
ATOM     17  C   UNL     1      -1.774   3.461  -6.735  0.00  0.00    +0.002 A 
ATOM     18  C   UNL     1      -0.498   3.400  -7.265  0.00  0.00    +0.000 A 
ATOM     19  C   UNL     1       0.559   2.973  -6.481  0.00  0.00    +0.002 A 
ATOM     20  C   UNL     1       0.344   2.612  -5.166  0.00  0.00    +0.028 A 
ENDBRANCH  10  15
ENDBRANCH   5  13
ENDBRANCH   4   5
ENDBRANCH   3   4
ENDBRANCH   2   3
ENDBRANCH   1   2
BRANCH   1  21
ATOM     21  C   UNL     1      -9.084   2.140   1.474  0.00  0.00    +0.000 C 
BRANCH  21  22
ATOM     22  C   UNL     1      -9.901   1.883   2.742  0.00  0.00    +0.000 C 
BRANCH  22  23
ATOM     23  C   UNL     1     -11.372   2.210   2.476  0.00  0.00    +0.008 C 
BRANCH  23  24
ATOM     24  C   UNL     1     -12.189   1.954   3.744  0.00  0.00    +0.080 C 
BRANCH  24  25
ATOM     25  C   UNL     1     -13.638   2.275   3.482  0.00  0.00    +0.170 C 
ATOM     26  O   UNL     1     -13.983   2.671   2.388  0.00  0.00    -0.292 OA
BRANCH  25  27
ATOM     27  C   UNL     1     -14.596   2.116   4.512  0.00  0.00    +0.104 A 
ATOM     28  H   UNL     1     -17.460   2.180   5.823  0.00  0.00    +0.187 HD
ATOM     29  C   UNL     1     -15.957   2.363   4.426  0.00  0.00    +0.046 A 
ATOM     30  N   UNL     1     -16.516   2.090   5.617  0.00  0.00    -0.294 N 
ATOM     31  N   UNL     1     -15.538   1.657   6.517  0.00  0.00    -0.219 N 
ATOM     32  C   UNL     1     -14.345   1.649   5.887  0.00  0.00    +0.282 A 
ATOM     33  O   UNL     1     -13.273   1.323   6.362  0.00  0.00    -0.265 OA
ATOM     34  C   UNL     1     -16.687   2.855   3.203  0.00  0.00    +0.066 C 
BRANCH  31  35
ATOM     35  C   UNL     1     -15.760   1.287   7.848  0.00  0.00    +0.067 A 
ATOM     36  C   UNL     1     -14.697   0.878   8.643  0.00  0.00    +0.028 A 
ATOM     37  C   UNL     1     -14.920   0.514   9.957  0.00  0.00    +0.002 A 
ATOM     38  C   UNL     1     -16.200   0.555  10.480  0.00  0.00    +0.000 A 
ATOM     39  C   UNL     1     -17.260   0.961   9.690  0.00  0.00    +0.002 A 
ATOM     40  C   UNL     1     -17.043   1.333   8.378  0.00  0.00    +0.028 A 
ENDBRANCH  31  35
ENDBRANCH  25  27
ENDBRANCH  24  25
ENDBRANCH  23  24
ENDBRANCH  22  23
ENDBRANCH  21  22
ENDBRANCH   1  21
TORSDOF 13
