REMARK  Name = ZINC27668746
REMARK  11 active torsions:
REMARK  status: ('A' for Active; 'I' for Inactive)
REMARK    1  A    between atoms: C_1  and  C_2
REMARK    2  A    between atoms: C_3  and  C_14
REMARK    3  A    between atoms: C_4  and  C_13
REMARK    4  A    between atoms: N_5  and  C_7
REMARK    5  A    between atoms: C_14  and  C_16
REMARK    6  A    between atoms: N_18  and  C_19
REMARK    7  A    between atoms: C_19  and  C_20
REMARK    8  A    between atoms: C_20  and  C_22
REMARK    9  A    between atoms: C_20  and  N_30
REMARK   10  A    between atoms: C_25  and  O_28
REMARK   11  A    between atoms: O_28  and  C_29
REMARK                            x       y       z     vdW  Elec       q    Type
REMARK                         _______ _______ _______ _____ _____    ______ ____
ROOT
ATOM      1  C   UNL     1      -1.571   2.243   0.622  0.00  0.00    +0.285 C 
ATOM      2  O   UNL     1      -1.526   3.456   0.616  0.00  0.00    -0.267 OA
ATOM      3  N   UNL     1      -2.702   1.609   0.256  0.00  0.00    -0.310 N 
ATOM      4  H   UNL     1      -2.743   0.510   0.262  0.00  0.00    +0.149 HD
ENDROOT
BRANCH   1   5
ATOM      5  C   UNL     1      -0.372   1.454   1.034  0.00  0.00    +0.251 C 
ATOM      6  O   UNL     1      -0.385   0.243   0.951  0.00  0.00    -0.282 OA
BRANCH   5   9
ATOM      7  C   UNL     1       2.151   2.291  -0.704  0.00  0.00    +0.068 C 
ATOM      8  C   UNL     1       1.957   2.523   0.773  0.00  0.00    +0.072 A 
ATOM      9  C   UNL     1       0.825   2.144   1.534  0.00  0.00    +0.071 A 
ATOM     10  C   UNL     1       1.062   2.541   2.841  0.00  0.00    +0.053 A 
ATOM     11  N   UNL     1       2.269   3.132   2.866  0.00  0.00    -0.236 N 
ATOM     12  N   UNL     1       2.802   3.112   1.573  0.00  0.00    -0.171 NA
ATOM     13  C   UNL     1       0.139   2.345   4.015  0.00  0.00    +0.066 C 
BRANCH  11  14
ATOM     14  C   UNL     1       2.889   3.677   3.998  0.00  0.00    +0.066 A 
ATOM     15  C   UNL     1       3.546   4.897   3.911  0.00  0.00    +0.028 A 
ATOM     16  C   UNL     1       4.153   5.434   5.030  0.00  0.00    +0.002 A 
ATOM     17  C   UNL     1       4.114   4.753   6.233  0.00  0.00    +0.000 A 
ATOM     18  C   UNL     1       3.464   3.535   6.321  0.00  0.00    +0.002 A 
ATOM     19  C   UNL     1       2.852   2.996   5.207  0.00  0.00    +0.028 A 
ENDBRANCH  11  14
ENDBRANCH   5   9
ENDBRANCH   1   5
BRANCH   3  20
ATOM     20  C   UNL     1      -3.878   2.383  -0.148  0.00  0.00    +0.094 C 
BRANCH  20  21
ATOM     21  C   UNL     1      -5.018   1.428  -0.510  0.00  0.00    -0.020 C 
BRANCH  21  22
ATOM     22  N   UNL     1      -4.557   0.483  -1.537  0.00  0.00    +0.385 N 
ATOM     23  C   UNL     1      -4.205   1.185  -2.778  0.00  0.00    -0.078 C 
ATOM     24  C   UNL     1      -3.595   0.193  -3.771  0.00  0.00    -0.019 C 
ATOM     25  C   UNL     1      -4.606  -0.919  -4.060  0.00  0.00    -0.004 C 
ATOM     26  C   UNL     1      -4.993  -1.602  -2.746  0.00  0.00    -0.019 C 
ATOM     27  C   UNL     1      -5.563  -0.558  -1.782  0.00  0.00    -0.078 C 
ATOM     28  H   UNL     1      -3.648  -0.010  -1.161  0.00  0.00    -0.081 HD
ENDBRANCH  21  22
BRANCH  21  29
ATOM     29  C   UNL     1      -6.185   2.218  -1.043  0.00  0.00    -0.059 A 
ATOM     30  C   UNL     1      -5.987   3.154  -2.042  0.00  0.00    +0.005 A 
ATOM     31  C   UNL     1      -7.057   3.876  -2.535  0.00  0.00    +0.046 A 
ATOM     32  C   UNL     1      -8.329   3.669  -2.020  0.00  0.00    +0.120 A 
ATOM     33  C   UNL     1      -8.523   2.734  -1.014  0.00  0.00    +0.046 A 
ATOM     34  C   UNL     1      -7.451   2.011  -0.528  0.00  0.00    +0.005 A 
BRANCH  32  35
ATOM     35  O   UNL     1      -9.381   4.383  -2.499  0.00  0.00    -0.495 OA
ATOM     36  C   UNL     1      -9.107   5.328  -3.535  0.00  0.00    +0.277 C 
ENDBRANCH  32  35
ENDBRANCH  21  29
ENDBRANCH  20  21
ENDBRANCH   3  20
TORSDOF 8
