REMARK  Name = ZINC43220769
REMARK  7 active torsions:
REMARK  status: ('A' for Active; 'I' for Inactive)
REMARK    1  A    between atoms: C_1  and  C_2
REMARK    2  A    between atoms: C_6  and  N_8
REMARK    3  A    between atoms: N_8  and  C_9
REMARK    4  A    between atoms: C_9  and  C_11
REMARK    5  A    between atoms: C_9  and  C_18
REMARK    6  A    between atoms: C_22  and  N_23
REMARK    7  A    between atoms: C_24  and  C_26
REMARK                            x       y       z     vdW  Elec       q    Type
REMARK                         _______ _______ _______ _____ _____    ______ ____
ROOT
ATOM      1  C   UNL     1       0.374  -4.516   2.229  0.00  0.00    +0.135 C 
ENDROOT
BRANCH   1   2
ATOM      2  C   UNL     1      -0.583  -4.834   3.349  0.00  0.00    +0.009 A 
ATOM      3  C   UNL     1      -1.750  -5.553   3.088  0.00  0.00    -0.030 A 
ATOM      4  C   UNL     1      -2.563  -5.801   4.150  0.00  0.00    -0.005 A 
ATOM      5  S   UNL     1      -1.724  -5.044   5.515  0.00  0.00    -0.078 S 
ATOM      6  C   UNL     1      -0.309  -4.425   4.616  0.00  0.00    +0.078 A 
ATOM      7  C   UNL     1      -3.862  -6.540   4.150  0.00  0.00    +0.043 C 
ATOM      8  C   UNL     1      -4.341  -6.675   2.696  0.00  0.00    +0.005 C 
ATOM      9  C   UNL     1      -3.171  -7.162   1.837  0.00  0.00    +0.005 C 
ATOM     10  C   UNL     1      -2.127  -6.053   1.697  0.00  0.00    +0.036 C 
BRANCH   6  11
ATOM     11  N   UNL     1       0.790  -3.708   5.091  0.00  0.00    -0.273 N 
ATOM     12  C   UNL     1       0.942  -3.504   6.415  0.00  0.00    +0.284 C 
ATOM     13  O   UNL     1       0.119  -3.945   7.196  0.00  0.00    -0.266 OA
ATOM     14  H   UNL     1       1.446  -3.356   4.468  0.00  0.00    +0.156 HD
BRANCH  12  15
ATOM     15  C   UNL     1       2.096  -2.750   6.913  0.00  0.00    +0.189 A 
ATOM     16  C   UNL     1       2.372  -2.477   8.223  0.00  0.00    +0.054 A 
ATOM     17  C   UNL     1       3.565  -1.738   8.239  0.00  0.00    +0.042 A 
ATOM     18  C   UNL     1       3.961  -1.594   6.955  0.00  0.00    +0.196 A 
ATOM     19  O   UNL     1       3.076  -2.210   6.159  0.00  0.00    -0.458 OA
ENDBRANCH  12  15
ENDBRANCH   6  11
ENDBRANCH   1   2
BRANCH   1  20
ATOM     20  C   UNL     1       1.592  -5.396   2.344  0.00  0.00    -0.021 A 
ATOM     21  C   UNL     1       2.683  -4.973   3.080  0.00  0.00    +0.006 A 
ATOM     22  C   UNL     1       3.800  -5.779   3.187  0.00  0.00    +0.002 A 
ATOM     23  C   UNL     1       3.828  -7.009   2.556  0.00  0.00    +0.020 A 
ATOM     24  C   UNL     1       2.736  -7.433   1.819  0.00  0.00    +0.041 A 
ATOM     25  C   UNL     1       1.616  -6.628   1.719  0.00  0.00    +0.025 A 
ATOM     26 CL   UNL     1       2.770  -8.977   1.028  0.00  0.00    -0.084 Cl
ENDBRANCH   1  20
BRANCH   1  27
ATOM     27  N   UNL     1       0.777  -3.110   2.316  0.00  0.00    -0.320 N 
ATOM     28  H   UNL     1       0.548  -2.587   3.100  0.00  0.00    +0.148 HD
BRANCH  27  34
ATOM     29  C   UNL     1       2.911   0.788   0.536  0.00  0.00    +0.063 C 
ATOM     30  C   UNL     1       2.524  -0.661   0.392  0.00  0.00    +0.014 A 
ATOM     31  C   UNL     1       2.880  -1.352  -0.750  0.00  0.00    +0.021 A 
ATOM     32  C   UNL     1       2.521  -2.687  -0.877  0.00  0.00    +0.005 A 
ATOM     33  C   UNL     1       1.813  -3.281   0.152  0.00  0.00    +0.041 A 
ATOM     34  C   UNL     1       1.488  -2.526   1.274  0.00  0.00    +0.097 A 
ATOM     35  N   UNL     1       1.854  -1.256   1.361  0.00  0.00    -0.347 N 
ATOM     36  H   UNL     1       1.620  -0.749   2.154  0.00  0.00    +0.167 HD
ENDBRANCH  27  34
ENDBRANCH   1  27
TORSDOF 6
