REMARK  Name = ZINC11515432
REMARK  9 active torsions:
REMARK  status: ('A' for Active; 'I' for Inactive)
REMARK    1  A    between atoms: C_1  and  C_2
REMARK    2  A    between atoms: C_5  and  N_9
REMARK    3  A    between atoms: C_7  and  C_8
REMARK    4  A    between atoms: C_10  and  C_26
REMARK    5  A    between atoms: C_13  and  S_14
REMARK    6  A    between atoms: S_14  and  C_15
REMARK    7  A    between atoms: C_15  and  C_16
REMARK    8  A    between atoms: C_16  and  C_17
REMARK    9  A    between atoms: C_22  and  C_25
REMARK                            x       y       z     vdW  Elec       q    Type
REMARK                         _______ _______ _______ _____ _____    ______ ____
ROOT
ATOM      1  N   UNL     1      -6.931  -4.854   0.054  0.00  0.00    -0.270 N 
ATOM      2  C   UNL     1      -6.312  -6.081   0.148  0.00  0.00    +0.169 A 
ATOM      3  N   UNL     1      -5.021  -5.870   0.038  0.00  0.00    -0.128 NA
ATOM      4  N   UNL     1      -4.793  -4.615  -0.121  0.00  0.00    -0.122 NA
ATOM      5  C   UNL     1      -5.924  -3.946  -0.122  0.00  0.00    +0.196 A 
ENDROOT
BRANCH   1  10
ATOM      6  C   UNL     1     -12.500  -3.795   0.333  0.00  0.00    +0.044 C 
ATOM      7  C   UNL     1     -11.022  -4.075   0.259  0.00  0.00    -0.047 A 
ATOM      8  C   UNL     1     -10.504  -4.766  -0.822  0.00  0.00    +0.005 A 
ATOM      9  C   UNL     1      -9.149  -5.026  -0.893  0.00  0.00    +0.026 A 
ATOM     10  C   UNL     1      -8.307  -4.592   0.122  0.00  0.00    +0.051 A 
ATOM     11  C   UNL     1      -8.830  -3.903   1.208  0.00  0.00    +0.030 A 
ATOM     12  C   UNL     1     -10.185  -3.643   1.271  0.00  0.00    -0.046 A 
ATOM     13  C   UNL     1     -10.754  -2.891   2.447  0.00  0.00    +0.044 C 
ENDBRANCH   1  10
BRANCH   2  14
ATOM     14  C   UNL     1      -6.974  -7.388   0.342  0.00  0.00    +0.020 A 
ATOM     15  C   UNL     1      -8.287  -7.445   0.813  0.00  0.00    +0.011 A 
ATOM     16  C   UNL     1      -8.902  -8.668   0.986  0.00  0.00    +0.001 A 
ATOM     17  C   UNL     1      -8.216  -9.836   0.706  0.00  0.00    +0.000 A 
ATOM     18  C   UNL     1      -6.913  -9.787   0.243  0.00  0.00    +0.001 A 
ATOM     19  C   UNL     1      -6.288  -8.571   0.060  0.00  0.00    +0.011 A 
ENDBRANCH   2  14
BRANCH   5  20
ATOM     20  S   UNL     1      -6.108  -2.203  -0.308  0.00  0.00    -0.085 S 
BRANCH  20  21
ATOM     21  C   UNL     1      -4.372  -1.720  -0.479  0.00  0.00    +0.086 C 
BRANCH  21  22
ATOM     22  C   UNL     1      -4.279  -0.204  -0.658  0.00  0.00    +0.107 C 
BRANCH  22  23
ATOM     23  C   UNL     1      -2.834   0.198  -0.800  0.00  0.00    +0.219 C 
ATOM     24  O   UNL     1      -1.964  -0.645  -0.762  0.00  0.00    -0.275 OA
ATOM     25  N   UNL     1      -2.509   1.495  -0.969  0.00  0.00    -0.268 N 
ATOM     26  C   UNL     1      -1.171   1.867  -1.101  0.00  0.00    +0.168 A 
ATOM     27  C   UNL     1      -0.041   1.008  -1.078  0.00  0.00    +0.091 A 
ATOM     28  C   UNL     1       1.009   1.844  -1.249  0.00  0.00    +0.136 A 
ATOM     29  O   UNL     1       0.500   3.080  -1.353  0.00  0.00    -0.358 OA
ATOM     30  N   UNL     1      -0.706   3.078  -1.266  0.00  0.00    -0.063 NA
ATOM     31  C   UNL     1       2.465   1.460  -1.311  0.00  0.00    +0.089 C 
ATOM     32  H   UNL     1      -3.205   2.170  -1.000  0.00  0.00    +0.156 HD
ENDBRANCH  22  23
ENDBRANCH  21  22
ENDBRANCH  20  21
ENDBRANCH   5  20
TORSDOF 6
