REMARK  Name = ZINC36593898
REMARK  15 active torsions:
REMARK  status: ('A' for Active; 'I' for Inactive)
REMARK    1  A    between atoms: C_1  and  C_2
REMARK    2  A    between atoms: C_5  and  S_8
REMARK    3  A    between atoms: S_8  and  C_11
REMARK    4  A    between atoms: C_11  and  N_12
REMARK    5  A    between atoms: C_13  and  C_15
REMARK    6  A    between atoms: C_15  and  C_17
REMARK    7  A    between atoms: C_15  and  N_26
REMARK    8  A    between atoms: C_17  and  C_19
REMARK    9  A    between atoms: C_17  and  C_20
REMARK   10  A    between atoms: N_26  and  C_36
REMARK   11  A    between atoms: C_27  and  C_29
REMARK   12  A    between atoms: C_29  and  C_30
REMARK   13  A    between atoms: C_36  and  C_37
REMARK   14  A    between atoms: C_36  and  C_38
REMARK   15  A    between atoms: C_36  and  C_39
REMARK                            x       y       z     vdW  Elec       q    Type
REMARK                         _______ _______ _______ _____ _____    ______ ____
ROOT
ATOM      1  C   UNL     1       3.144  -4.984   3.084  0.00  0.00    +0.169 C 
ENDROOT
BRANCH   1   3
ATOM      2  N   UNL     1       2.613  -6.769   1.457  0.00  0.00    -0.295 N 
ATOM      3  C   UNL     1       2.468  -5.483   1.834  0.00  0.00    +0.235 C 
ATOM      4  O   UNL     1       1.793  -4.728   1.166  0.00  0.00    -0.274 OA
ATOM      5  H   UNL     1       3.206  -7.356   1.952  0.00  0.00    +0.150 HD
BRANCH   2   6
ATOM      6  C   UNL     1       1.875  -7.281   0.300  0.00  0.00    +0.278 C 
BRANCH   6   7
ATOM      7  S   UNL     1       2.921  -7.179  -1.179  0.00  0.00    +0.013 S 
ATOM      8  O   UNL     1       3.514  -5.891  -1.270  0.00  0.00    -0.168 OA
ATOM      9  O   UNL     1       2.249  -7.748  -2.294  0.00  0.00    -0.168 OA
BRANCH   7  14
ATOM     10  C   UNL     1       7.527 -10.919  -0.085  0.00  0.00    +0.044 C 
ATOM     11  C   UNL     1       6.377  -9.985  -0.358  0.00  0.00    -0.050 A 
ATOM     12  C   UNL     1       5.196 -10.477  -0.882  0.00  0.00    +0.005 A 
ATOM     13  C   UNL     1       4.141  -9.620  -1.132  0.00  0.00    +0.027 A 
ATOM     14  C   UNL     1       4.266  -8.271  -0.858  0.00  0.00    +0.090 A 
ATOM     15  C   UNL     1       5.446  -7.779  -0.334  0.00  0.00    +0.027 A 
ATOM     16  C   UNL     1       6.500  -8.636  -0.079  0.00  0.00    +0.005 A 
ENDBRANCH   7  14
ENDBRANCH   6   7
ENDBRANCH   2   6
ENDBRANCH   1   3
BRANCH   1  17
ATOM     17  N   UNL     1       3.004  -5.982   4.147  0.00  0.00    -0.284 N 
ATOM     18  C   UNL     1       4.095  -6.427   4.802  0.00  0.00    +0.221 C 
ATOM     19  O   UNL     1       5.176  -5.920   4.594  0.00  0.00    -0.275 OA
BRANCH  17  20
ATOM     20  C   UNL     1       1.678  -6.495   4.500  0.00  0.00    +0.030 C 
ATOM     21  C   UNL     1       0.677  -6.116   3.406  0.00  0.00    +0.031 C 
ATOM     22  C   UNL     1       1.739  -8.018   4.630  0.00  0.00    +0.031 C 
ATOM     23  C   UNL     1       1.232  -5.887   5.831  0.00  0.00    +0.031 C 
ENDBRANCH  17  20
BRANCH  18  24
ATOM     24  C   UNL     1       3.970  -7.557   5.792  0.00  0.00    +0.131 C 
BRANCH  24  25
ATOM     25  C   UNL     1       5.204  -7.605   6.656  0.00  0.00    -0.039 A 
ATOM     26  C   UNL     1       6.291  -8.365   6.268  0.00  0.00    +0.004 A 
ATOM     27  C   UNL     1       7.422  -8.409   7.061  0.00  0.00    +0.000 A 
ATOM     28  C   UNL     1       7.467  -7.692   8.242  0.00  0.00    +0.000 A 
ATOM     29  C   UNL     1       6.380  -6.931   8.630  0.00  0.00    +0.000 A 
ATOM     30  C   UNL     1       5.250  -6.884   7.835  0.00  0.00    +0.004 A 
ENDBRANCH  24  25
ENDBRANCH  18  24
ENDBRANCH   1  17
BRANCH   1  31
ATOM     31  C   UNL     1       2.493  -3.672   3.527  0.00  0.00    +0.045 C 
ATOM     32  C   UNL     1       3.227  -3.127   4.754  0.00  0.00    +0.015 C 
BRANCH  31  33
ATOM     33  C   UNL     1       2.574  -2.668   2.406  0.00  0.00    -0.042 A 
ATOM     34  C   UNL     1       3.794  -2.377   1.825  0.00  0.00    +0.004 A 
ATOM     35  C   UNL     1       3.869  -1.456   0.797  0.00  0.00    +0.000 A 
ATOM     36  C   UNL     1       2.723  -0.826   0.349  0.00  0.00    +0.000 A 
ATOM     37  C   UNL     1       1.502  -1.117   0.930  0.00  0.00    +0.000 A 
ATOM     38  C   UNL     1       1.427  -2.041   1.955  0.00  0.00    +0.004 A 
ENDBRANCH  31  33
ENDBRANCH   1  31
TORSDOF 10
