REMARK  Name = ZINC01568662
REMARK  2 active torsions:
REMARK  status: ('A' for Active; 'I' for Inactive)
REMARK    1  A    between atoms: C_1  and  C_2
REMARK    2  A    between atoms: C_7  and  N_8
REMARK                            x       y       z     vdW  Elec       q    Type
REMARK                         _______ _______ _______ _____ _____    ______ ____
ROOT
ATOM      1  N   UNL     1       5.896   2.510   0.042  0.00  0.00    -0.269 N 
ATOM      2  C   UNL     1       4.840   1.704   0.275  0.00  0.00    +0.312 C 
ATOM      3  O   UNL     1       5.012   0.514   0.454  0.00  0.00    -0.252 OA
ATOM      4  N   UNL     1       3.595   2.218   0.310  0.00  0.00    -0.239 N 
ATOM      5  C   UNL     1       2.499   1.455   0.731  0.00  0.00    +0.053 A 
ATOM      6  C   UNL     1       2.548   0.116   1.154  0.00  0.00    +0.025 A 
ATOM      7  C   UNL     1       1.411  -0.548   1.550  0.00  0.00    +0.002 A 
ATOM      8  C   UNL     1       0.179   0.080   1.546  0.00  0.00    +0.001 A 
ATOM      9  C   UNL     1       0.099   1.399   1.133  0.00  0.00    +0.016 A 
ATOM     10  C   UNL     1       1.238   2.063   0.737  0.00  0.00    +0.031 A 
ATOM     11  S   UNL     1       1.522   3.722   0.157  0.00  0.00    -0.097 S 
ATOM     12  C   UNL     1       3.328   3.590  -0.086  0.00  0.00    +0.094 C 
ATOM     13  C   UNL     1       3.704   3.881  -1.544  0.00  0.00    +0.038 C 
ATOM     14  C   UNL     1       5.188   4.319  -1.429  0.00  0.00    +0.003 C 
ATOM     15  C   UNL     1       5.255   5.109  -0.104  0.00  0.00    +0.003 C 
ATOM     16  C   UNL     1       4.072   4.623   0.757  0.00  0.00    +0.038 C 
ATOM     17  H   UNL     1       5.776   3.472   0.022  0.00  0.00    +0.156 HD
ENDROOT
BRANCH   1  24
ATOM     18  C   UNL     1       8.116   4.278  -0.153  0.00  0.00    +0.046 C 
ATOM     19  C   UNL     1       8.275   2.784  -0.272  0.00  0.00    -0.028 A 
ATOM     20  C   UNL     1       9.526   2.236  -0.476  0.00  0.00    +0.025 A 
ATOM     21  C   UNL     1       9.672   0.865  -0.592  0.00  0.00    +0.041 A 
ATOM     22  C   UNL     1       8.566   0.039  -0.496  0.00  0.00    +0.022 A 
ATOM     23  C   UNL     1       7.313   0.581  -0.286  0.00  0.00    +0.025 A 
ATOM     24  C   UNL     1       7.164   1.957  -0.171  0.00  0.00    +0.038 A 
ATOM     25 CL   UNL     1      11.245   0.180  -0.856  0.00  0.00    -0.084 Cl
ENDBRANCH   1  24
TORSDOF 1
