REMARK  Name = ZINC36049127
REMARK  6 active torsions:
REMARK  status: ('A' for Active; 'I' for Inactive)
REMARK    1  A    between atoms: C_1  and  C_2
REMARK    2  A    between atoms: C_2  and  C_3
REMARK    3  A    between atoms: C_2  and  C_4
REMARK    4  A    between atoms: C_2  and  N_5
REMARK    5  A    between atoms: C_10  and  C_22
REMARK    6  A    between atoms: C_12  and  C_15
REMARK                            x       y       z     vdW  Elec       q    Type
REMARK                         _______ _______ _______ _____ _____    ______ ____
ROOT
ATOM      1  N   UNL     1       3.477   1.014  -1.887  0.00  0.00    -0.294 N 
ATOM      2  C   UNL     1       4.521   0.480  -2.551  0.00  0.00    +0.303 C 
ATOM      3  O   UNL     1       5.638   0.936  -2.397  0.00  0.00    -0.253 OA
ATOM      4  N   UNL     1       4.327  -0.560  -3.386  0.00  0.00    -0.284 N 
ATOM      5  C   UNL     1       5.375  -1.242  -4.168  0.00  0.00    +0.118 C 
ATOM      6  C   UNL     1       4.811  -2.659  -4.436  0.00  0.00    +0.050 C 
ATOM      7  C   UNL     1       3.305  -2.358  -4.656  0.00  0.00    +0.101 C 
ATOM      8  C   UNL     1       3.036  -1.206  -3.665  0.00  0.00    +0.122 C 
ATOM      9  H   UNL     1       2.586   0.651  -2.010  0.00  0.00    +0.151 HD
ENDROOT
BRANCH   7  10
ATOM     10  C   UNL     1       3.050  -1.921  -6.076  0.00  0.00    +0.221 C 
ATOM     11  O   UNL     1       3.716  -1.034  -6.566  0.00  0.00    -0.275 OA
ATOM     12  N   UNL     1       2.082  -2.516  -6.801  0.00  0.00    -0.301 N 
ATOM     13  C   UNL     1       1.200  -3.594  -6.330  0.00  0.00    +0.108 C 
ATOM     14  C   UNL     1       0.274  -3.974  -7.505  0.00  0.00    +0.020 C 
ATOM     15  C   UNL     1       1.065  -3.479  -8.745  0.00  0.00    +0.020 C 
ATOM     16  C   UNL     1       1.727  -2.189  -8.194  0.00  0.00    +0.108 C 
ENDBRANCH   7  10
BRANCH   6  17
ATOM     17  C   UNL     1       5.428  -3.261  -5.673  0.00  0.00    -0.042 A 
ATOM     18  C   UNL     1       6.632  -2.776  -6.149  0.00  0.00    +0.007 A 
ATOM     19  C   UNL     1       7.199  -3.328  -7.282  0.00  0.00    +0.038 A 
ATOM     20  C   UNL     1       6.562  -4.365  -7.940  0.00  0.00    +0.123 A 
ATOM     21  C   UNL     1       5.356  -4.850  -7.462  0.00  0.00    +0.038 A 
ATOM     22  C   UNL     1       4.793  -4.300  -6.326  0.00  0.00    +0.007 A 
ATOM     23  F   UNL     1       7.115  -4.905  -9.048  0.00  0.00    -0.205 F 
ENDBRANCH   6  17
BRANCH   1  25
ATOM     24  C   UNL     1       4.272   3.324  -1.760  0.00  0.00    +0.031 C 
ATOM     25  C   UNL     1       3.688   2.145  -0.979  0.00  0.00    +0.028 C 
ATOM     26  C   UNL     1       4.660   1.735   0.129  0.00  0.00    +0.031 C 
ATOM     27  C   UNL     1       2.352   2.556  -0.358  0.00  0.00    +0.031 C 
ENDBRANCH   1  25
TORSDOF 3
