REMARK  Name = ZINC11784492
REMARK  11 active torsions:
REMARK  status: ('A' for Active; 'I' for Inactive)
REMARK    1  A    between atoms: C_1  and  C_2
REMARK    2  A    between atoms: C_2  and  C_3
REMARK    3  A    between atoms: N_7  and  C_8
REMARK    4  A    between atoms: C_8  and  C_9
REMARK    5  A    between atoms: C_9  and  C_10
REMARK    6  A    between atoms: C_16  and  C_33
REMARK    7  A    between atoms: C_17  and  O_24
REMARK    8  A    between atoms: O_24  and  C_25
REMARK    9  A    between atoms: C_25  and  C_26
REMARK   10  A    between atoms: C_33  and  O_35
REMARK   11  A    between atoms: O_35  and  C_36
REMARK                            x       y       z     vdW  Elec       q    Type
REMARK                         _______ _______ _______ _____ _____    ______ ____
ROOT
ATOM      1  C   UNL     1     -12.028   0.731  -5.165  0.00  0.00    +0.217 C 
ATOM      2  O   UNL     1     -12.356   1.697  -5.820  0.00  0.00    -0.276 OA
ATOM      3  N   UNL     1     -11.094   0.855  -4.202  0.00  0.00    -0.299 N 
ATOM      4  C   UNL     1     -10.453   2.152  -3.920  0.00  0.00    +0.114 C 
ATOM      5  C   UNL     1      -8.946   1.967  -4.079  0.00  0.00    +0.073 C 
ATOM      6  C   UNL     1      -8.297   1.434  -2.825  0.00  0.00    +0.041 A 
ATOM      7  C   UNL     1      -6.978   1.831  -2.623  0.00  0.00    +0.120 A 
ATOM      8  C   UNL     1      -6.231   1.321  -1.475  0.00  0.00    +0.141 A 
ATOM      9  C   UNL     1      -6.878   0.445  -0.626  0.00  0.00    +0.116 A 
ATOM     10  C   UNL     1      -8.204   0.107  -0.893  0.00  0.00    +0.255 A 
ATOM     11  O   UNL     1      -8.769  -0.682  -0.154  0.00  0.00    -0.268 OA
ATOM     12  N   UNL     1      -8.890   0.622  -1.943  0.00  0.00    -0.310 N 
ATOM     13  C   UNL     1     -10.303   0.250  -2.015  0.00  0.00    +0.144 C 
ATOM     14  C   UNL     1     -10.676  -0.295  -3.394  0.00  0.00    +0.129 C 
ENDROOT
BRANCH   7  15
ATOM     15  C   UNL     1      -6.336   2.760  -3.567  0.00  0.00    +0.344 C 
ATOM     16  O   UNL     1      -6.228   3.937  -3.283  0.00  0.00    -0.245 OA
BRANCH  15  17
ATOM     17  O   UNL     1      -5.866   2.304  -4.745  0.00  0.00    -0.464 OA
ATOM     18  C   UNL     1      -5.244   3.276  -5.627  0.00  0.00    +0.280 C 
ENDBRANCH  15  17
ENDBRANCH   7  15
BRANCH   1  19
ATOM     19  C   UNL     1     -12.665  -0.610  -5.429  0.00  0.00    +0.117 C 
BRANCH  19  20
ATOM     20  C   UNL     1     -13.683  -0.476  -6.563  0.00  0.00    +0.132 C 
BRANCH  20  25
ATOM     21  C   UNL     1     -15.363  -2.304  -6.169  0.00  0.00    +0.109 A 
ATOM     22  N   UNL     1     -15.625  -3.478  -6.675  0.00  0.00    -0.241 NA
ATOM     23  C   UNL     1     -14.750  -3.742  -7.657  0.00  0.00    +0.130 A 
ATOM     24  C   UNL     1     -13.917  -2.689  -7.767  0.00  0.00    +0.107 A 
ATOM     25  N   UNL     1     -14.302  -1.779  -6.819  0.00  0.00    -0.334 N 
BRANCH  21  27
ATOM     26  C   UNL     1     -17.264  -0.808  -5.621  0.00  0.00    +0.012 C 
ATOM     27  C   UNL     1     -16.118  -1.643  -5.045  0.00  0.00    +0.071 C 
ENDBRANCH  21  27
ENDBRANCH  20  25
ENDBRANCH  19  20
ENDBRANCH   1  19
BRANCH   8  28
ATOM     28  O   UNL     1      -4.952   1.698  -1.249  0.00  0.00    -0.488 OA
BRANCH  28  29
ATOM     29  C   UNL     1      -4.307   1.149  -0.097  0.00  0.00    +0.260 C 
BRANCH  29  30
ATOM     30  C   UNL     1      -2.877   1.687  -0.008  0.00  0.00    +0.156 C 
ATOM     31  C   UNL     1      -2.228   1.198   1.289  0.00  0.00    +0.035 C 
ATOM     32  C   UNL     1      -0.777   1.690   1.343  0.00  0.00    +0.005 C 
ATOM     33  C   UNL     1      -0.036   1.193   0.097  0.00  0.00    +0.028 C 
ATOM     34  C   UNL     1      -0.770   1.682  -1.154  0.00  0.00    +0.160 C 
ATOM     35  O   UNL     1      -2.121   1.215  -1.125  0.00  0.00    -0.373 OA
ENDBRANCH  29  30
ENDBRANCH  28  29
ENDBRANCH   8  28
TORSDOF 9
