REMARK  Name = ZINC14095900
REMARK  9 active torsions:
REMARK  status: ('A' for Active; 'I' for Inactive)
REMARK    1  A    between atoms: C_1  and  C_2
REMARK    2  A    between atoms: C_2  and  C_4
REMARK    3  A    between atoms: C_2  and  S_21
REMARK    4  A    between atoms: N_6  and  C_7
REMARK    5  A    between atoms: C_10  and  S_13
REMARK    6  A    between atoms: S_13  and  N_16
REMARK    7  A    between atoms: S_21  and  C_22
REMARK    8  A    between atoms: C_25  and  C_28
REMARK    9  A    between atoms: N_26  and  N_27
REMARK                            x       y       z     vdW  Elec       q    Type
REMARK                         _______ _______ _______ _____ _____    ______ ____
ROOT
ATOM      1  C   UNL     1       0.708  -6.846  -1.283  0.00  0.00    +0.029 C 
ATOM      2  C   UNL     1       1.591  -6.953  -0.038  0.00  0.00    +0.137 C 
ENDROOT
BRANCH   2   3
ATOM      3  C   UNL     1       2.220  -8.321   0.015  0.00  0.00    +0.230 C 
ATOM      4  O   UNL     1       3.366  -8.476  -0.350  0.00  0.00    -0.274 OA
ATOM      5  N   UNL     1       1.510  -9.372   0.470  0.00  0.00    -0.285 N 
ATOM      6  H   UNL     1       0.572  -9.264   0.692  0.00  0.00    +0.155 HD
BRANCH   5   7
ATOM      7  C   UNL     1       2.125 -10.620   0.621  0.00  0.00    +0.034 A 
ATOM      8  C   UNL     1       1.398 -11.784   0.411  0.00  0.00    +0.025 A 
ATOM      9  C   UNL     1       2.010 -13.014   0.556  0.00  0.00    +0.030 A 
ATOM     10  C   UNL     1       3.342 -13.086   0.920  0.00  0.00    +0.106 A 
ATOM     11  C   UNL     1       4.067 -11.929   1.136  0.00  0.00    +0.030 A 
ATOM     12  C   UNL     1       3.462 -10.696   0.987  0.00  0.00    +0.025 A 
BRANCH  10  13
ATOM     13  S   UNL     1       4.117 -14.657   1.110  0.00  0.00    +0.061 S 
ATOM     14  O   UNL     1       3.373 -15.575   0.321  0.00  0.00    -0.153 OA
ATOM     15  O   UNL     1       5.511 -14.448   0.924  0.00  0.00    -0.153 OA
BRANCH  13  16
ATOM     16  N   UNL     1       3.914 -15.116   2.688  0.00  0.00    -0.177 NA
ATOM     17  C   UNL     1       4.837 -14.818   3.793  0.00  0.00    +0.109 C 
ATOM     18  C   UNL     1       4.251 -15.463   5.066  0.00  0.00    +0.018 C 
ATOM     19  C   UNL     1       3.328 -16.573   4.498  0.00  0.00    +0.018 C 
ATOM     20  C   UNL     1       2.780 -15.897   3.216  0.00  0.00    +0.109 C 
ENDBRANCH  13  16
ENDBRANCH  10  13
ENDBRANCH   5   7
ENDBRANCH   2   3
BRANCH   2  21
ATOM     21  S   UNL     1       2.889  -5.694  -0.109  0.00  0.00    -0.072 S 
BRANCH  21  22
ATOM     22  C   UNL     1       1.906  -4.235  -0.011  0.00  0.00    +0.209 A 
ATOM     23  N   UNL     1       0.596  -4.182   0.085  0.00  0.00    -0.121 NA
ATOM     24  N   UNL     1       0.206  -2.958   0.135  0.00  0.00    -0.127 NA
ATOM     25  C   UNL     1       1.243  -2.155   0.076  0.00  0.00    +0.184 A 
ATOM     26  N   UNL     1       2.363  -2.947  -0.025  0.00  0.00    -0.224 N 
BRANCH  25  27
ATOM     27  C   UNL     1       1.212  -0.677   0.105  0.00  0.00    +0.056 A 
ATOM     28  C   UNL     1       1.969   0.058  -0.808  0.00  0.00    +0.014 A 
ATOM     29  C   UNL     1       1.936   1.437  -0.775  0.00  0.00    +0.001 A 
ATOM     30  C   UNL     1       1.154   2.092   0.160  0.00  0.00    +0.003 A 
ATOM     31  C   UNL     1       0.401   1.372   1.069  0.00  0.00    +0.039 A 
ATOM     32  C   UNL     1       0.424  -0.010   1.048  0.00  0.00    +0.134 A 
ATOM     33  F   UNL     1      -0.312  -0.714   1.935  0.00  0.00    -0.205 F 
ENDBRANCH  25  27
BRANCH  26  34
ATOM     34  N   UNL     1       3.661  -2.533  -0.118  0.00  0.00    -0.295 N 
ATOM     35  H   UNL     1       4.078  -2.441   0.796  0.00  0.00    +0.163 HD
ATOM     36  H   UNL     1       4.200  -3.159  -0.699  0.00  0.00    +0.163 HD
ENDBRANCH  26  34
ENDBRANCH  21  22
ENDBRANCH   2  21
TORSDOF 8
