REMARK  Name = ZINC64552240
REMARK  5 active torsions:
REMARK  status: ('A' for Active; 'I' for Inactive)
REMARK    1  A    between atoms: C_1  and  C_2
REMARK    2  A    between atoms: C_2  and  C_3
REMARK    3  A    between atoms: C_2  and  N_4
REMARK    4  A    between atoms: C_10  and  C_13
REMARK    5  A    between atoms: N_15  and  C_16
REMARK                            x       y       z     vdW  Elec       q    Type
REMARK                         _______ _______ _______ _____ _____    ______ ____
ROOT
ATOM      1  N   UNL     1      -1.373  -0.510   0.013  0.00  0.00    -0.297 N 
ATOM      2  C   UNL     1      -2.051  -0.643  -1.145  0.00  0.00    +0.303 C 
ATOM      3  O   UNL     1      -1.556  -0.258  -2.187  0.00  0.00    -0.253 OA
ATOM      4  N   UNL     1      -3.277  -1.203  -1.147  0.00  0.00    -0.282 N 
ATOM      5  C   UNL     1      -3.996  -1.466  -2.405  0.00  0.00    +0.114 C 
ATOM      6  C   UNL     1      -4.209  -2.977  -2.520  0.00  0.00    +0.059 C 
ATOM      7  C   UNL     1      -4.701  -3.537  -1.218  0.00  0.00    +0.013 C 
ATOM      8  C   UNL     1      -4.582  -2.929  -0.058  0.00  0.00    +0.001 C 
ATOM      9  C   UNL     1      -3.947  -1.581   0.105  0.00  0.00    +0.137 C 
ATOM     10  H   UNL     1      -1.796  -0.749   0.852  0.00  0.00    +0.150 HD
ENDROOT
BRANCH   7  11
ATOM     11  C   UNL     1      -5.358  -4.853  -1.241  0.00  0.00    +0.240 C 
ATOM     12  O   UNL     1      -5.772  -5.343  -0.208  0.00  0.00    -0.271 OA
ATOM     13  N   UNL     1      -5.502  -5.514  -2.406  0.00  0.00    -0.309 N 
ATOM     14  H   UNL     1      -5.172  -5.123  -3.230  0.00  0.00    +0.149 HD
BRANCH  13  15
ATOM     15  C   UNL     1      -6.157  -6.825  -2.429  0.00  0.00    +0.073 C 
ATOM     16  C   UNL     1      -5.120  -7.938  -2.175  0.00  0.00    +0.022 C 
ATOM     17  C   UNL     1      -5.575  -9.098  -3.095  0.00  0.00    +0.002 C 
ATOM     18  C   UNL     1      -6.062  -8.357  -4.364  0.00  0.00    +0.002 C 
ATOM     19  C   UNL     1      -6.756  -7.091  -3.820  0.00  0.00    +0.022 C 
ENDBRANCH  13  15
ENDBRANCH   7  11
BRANCH   1  21
ATOM     20  C   UNL     1      -0.017   1.525   0.007  0.00  0.00    +0.027 C 
ATOM     21  C   UNL     1       0.002  -0.004   0.002  0.00  0.00    +0.068 C 
ATOM     22  C   UNL     1       0.741  -0.510   1.243  0.00  0.00    +0.027 C 
ENDBRANCH   1  21
TORSDOF 3
