REMARK  Name = ZINC02939108
REMARK  2 active torsions:
REMARK  status: ('A' for Active; 'I' for Inactive)
REMARK    1  A    between atoms: C_1  and  C_2
REMARK    2  A    between atoms: C_9  and  C_10
REMARK                            x       y       z     vdW  Elec       q    Type
REMARK                         _______ _______ _______ _____ _____    ______ ____
ROOT
ATOM      1  C   UNL     1       1.006   3.484   0.266  0.00  0.00    +0.044 C 
ATOM      2  C   UNL     1       1.103   2.013  -0.047  0.00  0.00    -0.050 A 
ATOM      3  C   UNL     1      -0.035   1.303  -0.390  0.00  0.00    +0.005 A 
ATOM      4  C   UNL     1       0.038  -0.045  -0.680  0.00  0.00    +0.024 A 
ATOM      5  C   UNL     1       1.261  -0.704  -0.629  0.00  0.00    +0.042 A 
ATOM      6  C   UNL     1       2.410   0.018  -0.282  0.00  0.00    +0.009 A 
ATOM      7  C   UNL     1       2.326   1.376   0.008  0.00  0.00    +0.014 A 
ATOM      8  C   UNL     1       3.535  -0.944  -0.315  0.00  0.00    +0.046 C 
ATOM      9  C   UNL     1       4.850  -0.695  -0.047  0.00  0.00    +0.021 C 
ATOM     10  C   UNL     1       2.926  -2.228  -0.701  0.00  0.00    +0.249 C 
ATOM     11  O   UNL     1       3.514  -3.286  -0.841  0.00  0.00    -0.270 OA
ATOM     12  N   UNL     1       1.608  -2.028  -0.869  0.00  0.00    -0.281 N 
ATOM     13  H   UNL     1       0.978  -2.720  -1.125  0.00  0.00    +0.155 HD
ENDROOT
BRANCH   9  14
ATOM     14  C   UNL     1       5.801  -1.806   0.049  0.00  0.00    -0.021 A 
ATOM     15  C   UNL     1       7.097  -1.669  -0.468  0.00  0.00    +0.012 A 
ATOM     16  C   UNL     1       7.987  -2.715  -0.376  0.00  0.00    +0.050 A 
ATOM     17  C   UNL     1       7.608  -3.907   0.229  0.00  0.00    +0.166 A 
ATOM     18  C   UNL     1       6.319  -4.051   0.746  0.00  0.00    +0.167 A 
ATOM     19  C   UNL     1       5.420  -3.007   0.663  0.00  0.00    +0.057 A 
ATOM     20  O   UNL     1       6.202  -5.303   1.280  0.00  0.00    -0.453 OA
ATOM     21  C   UNL     1       7.551  -5.774   1.451  0.00  0.00    +0.466 C 
ATOM     22  O   UNL     1       8.293  -5.067   0.440  0.00  0.00    -0.453 OA
ENDBRANCH   9  14
TORSDOF 1
