REMARK  Name = ZINC13065114
REMARK  11 active torsions:
REMARK  status: ('A' for Active; 'I' for Inactive)
REMARK    1  A    between atoms: C_1  and  C_2
REMARK    2  A    between atoms: C_2  and  C_3
REMARK    3  A    between atoms: C_3  and  C_5
REMARK    4  A    between atoms: C_3  and  N_72
REMARK    5  A    between atoms: N_9  and  C_10
REMARK    6  A    between atoms: C_10  and  C_11
REMARK    7  A    between atoms: C_18  and  C_19
REMARK    8  A    between atoms: C_18  and  N_72
REMARK    9  A    between atoms: C_24  and  C_32
REMARK   10  A    between atoms: C_25  and  C_31
REMARK   11  A    between atoms: C_33  and  N_72
REMARK                            x       y       z     vdW  Elec       q    Type
REMARK                         _______ _______ _______ _____ _____    ______ ____
ROOT
ATOM      1  N   UNL     1      -0.629  -1.833   0.851  0.00  0.00    +0.391 N 
ATOM      2  H   UNL     1       0.303  -2.252   0.749  0.00  0.00    -0.080 HD
ENDROOT
BRANCH   1   3
ATOM      3  C   UNL     1      -0.750  -1.256   2.206  0.00  0.00    -0.067 C 
ATOM      4  C   UNL     1      -0.162   0.157   2.210  0.00  0.00    -0.015 C 
ATOM      5  C   UNL     1      -0.261   0.746   3.619  0.00  0.00    -0.002 C 
ATOM      6  C   UNL     1       0.519  -0.135   4.596  0.00  0.00    -0.000 C 
ATOM      7  C   UNL     1      -0.069  -1.547   4.592  0.00  0.00    -0.002 C 
ATOM      8  C   UNL     1       0.030  -2.137   3.183  0.00  0.00    -0.015 C 
ENDBRANCH   1   3
BRANCH   1   9
ATOM      9  C   UNL     1      -0.793  -0.774  -0.167  0.00  0.00    +0.003 C 
BRANCH   9  10
ATOM     10  C   UNL     1      -0.155  -1.236  -1.451  0.00  0.00    +0.138 A 
ATOM     11  N   UNL     1      -0.091  -2.468  -1.894  0.00  0.00    -0.115 NA
ATOM     12  N   UNL     1       0.532  -2.453  -3.022  0.00  0.00    -0.023 NA
ATOM     13  N   UNL     1       0.867  -1.244  -3.310  0.00  0.00    -0.044 NA
ATOM     14  N   UNL     1       0.461  -0.464  -2.366  0.00  0.00    -0.226 N 
BRANCH  14  15
ATOM     15  C   UNL     1       0.633   0.989  -2.304  0.00  0.00    +0.182 C 
BRANCH  15  16
ATOM     16  C   UNL     1       1.975   1.311  -1.698  0.00  0.00    -0.026 A 
ATOM     17  C   UNL     1       2.070   1.618  -0.354  0.00  0.00    +0.008 A 
ATOM     18  C   UNL     1       3.301   1.909   0.204  0.00  0.00    +0.038 A 
ATOM     19  C   UNL     1       4.438   1.903  -0.587  0.00  0.00    +0.123 A 
ATOM     20  C   UNL     1       4.340   1.600  -1.935  0.00  0.00    +0.038 A 
ATOM     21  C   UNL     1       3.109   1.305  -2.489  0.00  0.00    +0.008 A 
ATOM     22  F   UNL     1       5.641   2.191  -0.044  0.00  0.00    -0.205 F 
ENDBRANCH  15  16
ENDBRANCH  14  15
ENDBRANCH   9  10
BRANCH   9  24
ATOM     23  C   UNL     1      -2.890   0.126   0.852  0.00  0.00    +0.002 C 
ATOM     24  C   UNL     1      -2.277  -0.489  -0.408  0.00  0.00    -0.011 C 
ENDBRANCH   9  24
ENDBRANCH   1   9
BRANCH   1  25
ATOM     25  C   UNL     1      -1.651  -2.883   0.656  0.00  0.00    -0.036 C 
BRANCH  25  26
ATOM     26  C   UNL     1      -1.237  -4.111   1.426  0.00  0.00    +0.001 A 
ATOM     27  C   UNL     1      -1.803  -4.376   2.629  0.00  0.00    +0.017 A 
ATOM     28  C   UNL     1      -1.379  -5.577   3.352  0.00  0.00    -0.001 A 
ATOM     29  C   UNL     1      -1.927  -5.903   4.597  0.00  0.00    +0.010 A 
ATOM     30  C   UNL     1      -1.510  -7.031   5.245  0.00  0.00    +0.004 A 
ATOM     31  C   UNL     1      -0.547  -7.855   4.680  0.00  0.00    -0.046 A 
ATOM     32  C   UNL     1       0.008  -7.553   3.455  0.00  0.00    -0.024 A 
ATOM     33  C   UNL     1      -0.402  -6.410   2.776  0.00  0.00    +0.052 A 
ATOM     34  N   UNL     1       0.135  -6.084   1.548  0.00  0.00    -0.322 N 
ATOM     35  H   UNL     1       0.808  -6.660   1.153  0.00  0.00    +0.169 HD
ATOM     36  C   UNL     1      -0.265  -4.982   0.890  0.00  0.00    +0.251 A 
ATOM     37  O   UNL     1       0.227  -4.728  -0.196  0.00  0.00    -0.268 OA
ATOM     38  C   UNL     1       1.053  -8.457   2.854  0.00  0.00    +0.046 C 
ATOM     39  C   UNL     1      -0.102  -9.094   5.415  0.00  0.00    +0.044 C 
ENDBRANCH  25  26
ENDBRANCH   1  25
TORSDOF 8
