REMARK  Name = ZINC09613347
REMARK  10 active torsions:
REMARK  status: ('A' for Active; 'I' for Inactive)
REMARK    1  A    between atoms: C_1  and  C_2
REMARK    2  A    between atoms: C_2  and  C_3
REMARK    3  A    between atoms: C_3  and  N_4
REMARK    4  A    between atoms: C_5  and  N_35
REMARK    5  A    between atoms: C_6  and  N_29
REMARK    6  A    between atoms: N_9  and  C_12
REMARK    7  A    between atoms: C_12  and  C_13
REMARK    8  A    between atoms: N_15  and  C_16
REMARK    9  A    between atoms: C_16  and  C_17
REMARK   10  A    between atoms: C_16  and  C_23
REMARK                            x       y       z     vdW  Elec       q    Type
REMARK                         _______ _______ _______ _____ _____    ______ ____
ROOT
ATOM      1  N   UNL     1      -4.279  -1.477   4.425  0.00  0.00    -0.280 N 
ATOM      2  C   UNL     1      -5.551  -1.305   3.928  0.00  0.00    +0.127 A 
ATOM      3  C   UNL     1      -5.810  -0.248   3.098  0.00  0.00    +0.134 A 
ATOM      4  C   UNL     1      -4.767   0.640   2.780  0.00  0.00    +0.280 A 
ATOM      5  O   UNL     1      -4.974   1.593   2.047  0.00  0.00    -0.265 OA
ATOM      6  N   UNL     1      -3.536   0.430   3.286  0.00  0.00    -0.250 N 
ATOM      7  C   UNL     1      -3.299  -0.615   4.100  0.00  0.00    +0.334 A 
ATOM      8  O   UNL     1      -2.181  -0.782   4.548  0.00  0.00    -0.246 OA
ENDROOT
BRANCH   3   9
ATOM      9  N   UNL     1      -7.108  -0.049   2.573  0.00  0.00    -0.323 N 
ATOM     10  C   UNL     1      -7.111  -0.185   1.111  0.00  0.00    +0.105 C 
ATOM     11  C   UNL     1      -8.549  -0.108   0.593  0.00  0.00    +0.019 C 
ATOM     12  C   UNL     1      -9.162   1.235   1.000  0.00  0.00    +0.003 C 
ATOM     13  C   UNL     1      -9.102   1.373   2.523  0.00  0.00    +0.019 C 
ATOM     14  C   UNL     1      -7.648   1.253   2.985  0.00  0.00    +0.105 C 
ENDBRANCH   3   9
BRANCH   2  15
ATOM     15  N   UNL     1      -6.553  -2.188   4.261  0.00  0.00    -0.343 N 
ATOM     16  H   UNL     1      -6.364  -2.936   4.849  0.00  0.00    +0.144 HD
ATOM     17  H   UNL     1      -7.447  -2.062   3.907  0.00  0.00    +0.144 HD
ENDBRANCH   2  15
BRANCH   1  18
ATOM     18  C   UNL     1      -3.991  -2.606   5.314  0.00  0.00    +0.128 C 
BRANCH  18  20
ATOM     19  C   UNL     1      -3.927  -3.364   7.693  0.00  0.00    +0.005 C 
ATOM     20  C   UNL     1      -4.228  -2.185   6.766  0.00  0.00    +0.018 C 
ENDBRANCH  18  20
ENDBRANCH   1  18
BRANCH   6  21
ATOM     21  C   UNL     1      -2.447   1.351   2.951  0.00  0.00    +0.225 C 
BRANCH  21  22
ATOM     22  C   UNL     1      -1.741   0.865   1.711  0.00  0.00    +0.234 C 
ATOM     23  O   UNL     1      -2.112  -0.151   1.161  0.00  0.00    -0.274 OA
ATOM     24  N   UNL     1      -0.698   1.558   1.213  0.00  0.00    -0.303 N 
ATOM     25  H   UNL     1      -0.402   2.370   1.653  0.00  0.00    +0.150 HD
BRANCH  24  26
ATOM     26  C   UNL     1      -0.013   1.086   0.008  0.00  0.00    +0.134 C 
BRANCH  26  27
ATOM     27  C   UNL     1       1.401   1.607  -0.003  0.00  0.00    -0.023 A 
ATOM     28  C   UNL     1       1.663   2.902   0.406  0.00  0.00    +0.006 A 
ATOM     29  C   UNL     1       2.961   3.379   0.401  0.00  0.00    +0.000 A 
ATOM     30  C   UNL     1       3.995   2.564  -0.023  0.00  0.00    +0.000 A 
ATOM     31  C   UNL     1       3.732   1.272  -0.437  0.00  0.00    +0.000 A 
ATOM     32  C   UNL     1       2.435   0.793  -0.426  0.00  0.00    +0.006 A 
ENDBRANCH  26  27
BRANCH  26  33
ATOM     33  C   UNL     1      -0.742   1.585  -1.213  0.00  0.00    -0.023 A 
ATOM     34  C   UNL     1      -1.257   2.868  -1.234  0.00  0.00    +0.006 A 
ATOM     35  C   UNL     1      -1.922   3.327  -2.356  0.00  0.00    +0.000 A 
ATOM     36  C   UNL     1      -2.079   2.501  -3.453  0.00  0.00    +0.000 A 
ATOM     37  C   UNL     1      -1.568   1.216  -3.429  0.00  0.00    +0.000 A 
ATOM     38  C   UNL     1      -0.899   0.759  -2.310  0.00  0.00    +0.006 A 
ENDBRANCH  26  33
ENDBRANCH  24  26
ENDBRANCH  21  22
ENDBRANCH   6  21
TORSDOF 9
