REMARK  Name = ZINC13064431
REMARK  9 active torsions:
REMARK  status: ('A' for Active; 'I' for Inactive)
REMARK    1  A    between atoms: C_1  and  C_2
REMARK    2  A    between atoms: C_2  and  C_3
REMARK    3  A    between atoms: C_3  and  C_5
REMARK    4  A    between atoms: C_3  and  N_72
REMARK    5  A    between atoms: N_9  and  C_10
REMARK    6  A    between atoms: C_10  and  C_11
REMARK    7  A    between atoms: C_17  and  C_18
REMARK    8  A    between atoms: C_17  and  N_72
REMARK    9  A    between atoms: C_34  and  N_72
REMARK                            x       y       z     vdW  Elec       q    Type
REMARK                         _______ _______ _______ _____ _____    ______ ____
ROOT
ATOM      1  N   UNL     1       1.001  -2.751  -1.414  0.00  0.00    +0.391 N 
ATOM      2  H   UNL     1       1.630  -2.177  -1.988  0.00  0.00    -0.080 HD
ENDROOT
BRANCH   1   3
ATOM      3  C   UNL     1      -0.375  -2.626  -1.937  0.00  0.00    -0.067 C 
ATOM      4  C   UNL     1      -1.312  -3.601  -1.221  0.00  0.00    -0.015 C 
ATOM      5  C   UNL     1      -2.727  -3.455  -1.783  0.00  0.00    -0.002 C 
ATOM      6  C   UNL     1      -2.716  -3.766  -3.281  0.00  0.00    -0.000 C 
ATOM      7  C   UNL     1      -1.780  -2.791  -3.997  0.00  0.00    -0.002 C 
ATOM      8  C   UNL     1      -0.364  -2.938  -3.435  0.00  0.00    -0.015 C 
ENDBRANCH   1   3
BRANCH   1   9
ATOM      9  C   UNL     1       1.442  -4.160  -1.482  0.00  0.00    +0.003 C 
BRANCH   9  10
ATOM     10  C   UNL     1       0.845  -4.955  -0.349  0.00  0.00    +0.138 A 
ATOM     11  N   UNL     1       0.865  -4.640   0.923  0.00  0.00    -0.115 NA
ATOM     12  N   UNL     1       0.250  -5.568   1.572  0.00  0.00    -0.023 NA
ATOM     13  N   UNL     1      -0.154  -6.470   0.748  0.00  0.00    -0.044 NA
ATOM     14  N   UNL     1       0.194  -6.129  -0.447  0.00  0.00    -0.226 N 
BRANCH  14  15
ATOM     15  C   UNL     1      -0.070  -6.878  -1.678  0.00  0.00    +0.182 C 
BRANCH  15  16
ATOM     16  C   UNL     1       1.068  -7.830  -1.941  0.00  0.00    -0.026 A 
ATOM     17  C   UNL     1       2.148  -7.422  -2.701  0.00  0.00    +0.005 A 
ATOM     18  C   UNL     1       3.195  -8.294  -2.938  0.00  0.00    +0.000 A 
ATOM     19  C   UNL     1       3.156  -9.576  -2.424  0.00  0.00    +0.000 A 
ATOM     20  C   UNL     1       2.073  -9.986  -1.668  0.00  0.00    +0.000 A 
ATOM     21  C   UNL     1       1.029  -9.112  -1.426  0.00  0.00    +0.005 A 
ENDBRANCH  15  16
ENDBRANCH  14  15
ENDBRANCH   9  10
BRANCH   9  23
ATOM     22  C   UNL     1       3.576  -3.514  -2.610  0.00  0.00    +0.002 C 
ATOM     23  C   UNL     1       2.968  -4.202  -1.386  0.00  0.00    -0.011 C 
ENDBRANCH   9  23
ENDBRANCH   1   9
BRANCH   1  24
ATOM     24  C   UNL     1       1.056  -2.272  -0.017  0.00  0.00    -0.036 C 
BRANCH  24  25
ATOM     25  C   UNL     1       0.974  -0.767  -0.018  0.00  0.00    +0.001 A 
ATOM     26  C   UNL     1      -0.168  -0.152   0.383  0.00  0.00    +0.017 A 
ATOM     27  C   UNL     1      -0.217   1.309   0.372  0.00  0.00    +0.002 A 
ATOM     28  C   UNL     1      -1.365   1.998   0.780  0.00  0.00    +0.059 A 
ATOM     29  C   UNL     1      -1.384   3.376   0.753  0.00  0.00    +0.163 A 
ATOM     30  C   UNL     1      -0.256   4.087   0.331  0.00  0.00    +0.164 A 
ATOM     31  C   UNL     1       0.886   3.415  -0.069  0.00  0.00    +0.075 A 
ATOM     32  C   UNL     1       0.919   2.026  -0.053  0.00  0.00    +0.053 A 
ATOM     33  N   UNL     1       2.049   1.340  -0.449  0.00  0.00    -0.322 N 
ATOM     34  H   UNL     1       2.830   1.835  -0.742  0.00  0.00    +0.169 HD
ATOM     35  C   UNL     1       2.083  -0.004  -0.434  0.00  0.00    +0.251 A 
ATOM     36  O   UNL     1       3.099  -0.577  -0.789  0.00  0.00    -0.268 OA
ATOM     37  O   UNL     1      -0.262   5.447   0.311  0.00  0.00    -0.485 OA
ATOM     38  C   UNL     1      -1.542   6.086   0.360  0.00  0.00    +0.270 C 
ATOM     39  C   UNL     1      -2.371   5.419   1.466  0.00  0.00    +0.270 C 
ATOM     40  O   UNL     1      -2.512   4.031   1.144  0.00  0.00    -0.485 OA
ENDBRANCH  24  25
ENDBRANCH   1  24
TORSDOF 8
