REMARK  Name = ZINC40411056
REMARK  16 active torsions:
REMARK  status: ('A' for Active; 'I' for Inactive)
REMARK    1  A    between atoms: C_1  and  C_2
REMARK    2  A    between atoms: C_2  and  N_3
REMARK    3  A    between atoms: N_3  and  C_4
REMARK    4  A    between atoms: N_3  and  C_6
REMARK    5  A    between atoms: C_4  and  C_5
REMARK    6  A    between atoms: C_6  and  C_7
REMARK    7  A    between atoms: C_7  and  N_8
REMARK    8  A    between atoms: C_9  and  C_11
REMARK    9  A    between atoms: C_11  and  N_12
REMARK   10  A    between atoms: C_15  and  C_23
REMARK   11  A    between atoms: C_23  and  C_25
REMARK   12  A    between atoms: C_25  and  O_26
REMARK   13  A    between atoms: O_26  and  C_27
REMARK   14  A    between atoms: C_28  and  C_35
REMARK   15  A    between atoms: C_31  and  C_34
REMARK   16  A    between atoms: C_32  and  C_33
REMARK                            x       y       z     vdW  Elec       q    Type
REMARK                         _______ _______ _______ _____ _____    ______ ____
ROOT
ATOM      1  N   UNL     1      -5.404  -6.795   0.166  0.00  0.00    -0.257 N 
ATOM      2  C   UNL     1      -6.234  -6.899   1.292  0.00  0.00    +0.079 A 
ATOM      3  C   UNL     1      -5.917  -6.238   2.461  0.00  0.00    +0.038 A 
ATOM      4  C   UNL     1      -6.760  -6.355   3.574  0.00  0.00    +0.023 A 
ATOM      5  C   UNL     1      -7.916  -7.141   3.493  0.00  0.00    +0.015 A 
ATOM      6  C   UNL     1      -8.225  -7.796   2.322  0.00  0.00    +0.048 A 
ATOM      7  C   UNL     1      -7.391  -7.680   1.218  0.00  0.00    +0.143 A 
ATOM      8  O   UNL     1      -7.689  -8.320   0.059  0.00  0.00    -0.481 OA
ATOM      9  C   UNL     1      -7.305  -7.667  -1.154  0.00  0.00    +0.325 C 
ATOM     10  C   UNL     1      -5.886  -7.172  -1.039  0.00  0.00    +0.258 C 
ATOM     11  O   UNL     1      -5.179  -7.115  -2.022  0.00  0.00    -0.271 OA
ENDROOT
BRANCH   4  12
ATOM     12  C   UNL     1      -6.430  -5.657   4.824  0.00  0.00    +0.200 C 
ATOM     13  O   UNL     1      -5.428  -4.977   4.892  0.00  0.00    -0.288 OA
BRANCH  12  14
ATOM     14  C   UNL     1      -7.338  -5.784   6.020  0.00  0.00    +0.308 C 
BRANCH  14  15
ATOM     15  O   UNL     1      -6.808  -5.018   7.104  0.00  0.00    -0.484 OA
BRANCH  15  16
ATOM     16  C   UNL     1      -7.511  -5.026   8.267  0.00  0.00    +0.127 A 
ATOM     17  C   UNL     1      -8.498  -4.076   8.488  0.00  0.00    -0.008 A 
ATOM     18  C   UNL     1      -9.212  -4.086   9.670  0.00  0.00    +0.007 A 
ATOM     19  C   UNL     1      -8.943  -5.042  10.633  0.00  0.00    +0.004 A 
ATOM     20  C   UNL     1      -7.960  -5.989  10.415  0.00  0.00    -0.044 A 
ATOM     21  C   UNL     1      -7.247  -5.986   9.232  0.00  0.00    -0.006 A 
ATOM     22  C   UNL     1      -6.179  -7.023   8.992  0.00  0.00    +0.048 C 
ATOM     23  C   UNL     1      -7.669  -7.028  11.467  0.00  0.00    +0.044 C 
ATOM     24  C   UNL     1      -8.791  -3.034   7.439  0.00  0.00    +0.047 C 
ENDBRANCH  15  16
ENDBRANCH  14  15
ENDBRANCH  12  14
ENDBRANCH   4  12
BRANCH   1  25
ATOM     25  C   UNL     1      -4.038  -6.282   0.293  0.00  0.00    +0.209 C 
BRANCH  25  27
ATOM     26  N   UNL     1      -2.893  -4.092   0.191  0.00  0.00    -0.316 N 
ATOM     27  C   UNL     1      -4.046  -4.785   0.114  0.00  0.00    +0.231 C 
ATOM     28  O   UNL     1      -5.089  -4.205  -0.098  0.00  0.00    -0.274 OA
ATOM     29  H   UNL     1      -2.058  -4.556   0.361  0.00  0.00    +0.149 HD
BRANCH  26  30
ATOM     30  C   UNL     1      -2.900  -2.637   0.017  0.00  0.00    +0.086 C 
BRANCH  30  31
ATOM     31  C   UNL     1      -1.473  -2.100   0.150  0.00  0.00    -0.060 C 
BRANCH  31  32
ATOM     32  N   UNL     1      -1.462  -0.661  -0.144  0.00  0.00    +0.380 N 
ATOM     33  H   UNL     1      -1.871  -0.500  -1.053  0.00  0.00    -0.082 HD
BRANCH  32  35
ATOM     34  C   UNL     1      -2.333   1.534   0.503  0.00  0.00    -0.017 C 
ATOM     35  C   UNL     1      -2.240   0.053   0.876  0.00  0.00    -0.082 C 
ENDBRANCH  32  35
BRANCH  32  36
ATOM     36  C   UNL     1      -0.077  -0.171  -0.137  0.00  0.00    -0.082 C 
ATOM     37  C   UNL     1       0.692  -0.798  -1.301  0.00  0.00    -0.017 C 
ENDBRANCH  32  36
ENDBRANCH  31  32
ENDBRANCH  30  31
ENDBRANCH  26  30
ENDBRANCH  25  27
ENDBRANCH   1  25
TORSDOF 11
