REMARK  Name = ZINC13064444
REMARK  10 active torsions:
REMARK  status: ('A' for Active; 'I' for Inactive)
REMARK    1  A    between atoms: C_1  and  C_2
REMARK    2  A    between atoms: C_2  and  C_3
REMARK    3  A    between atoms: C_3  and  C_5
REMARK    4  A    between atoms: C_3  and  N_72
REMARK    5  A    between atoms: N_9  and  C_10
REMARK    6  A    between atoms: C_15  and  C_16
REMARK    7  A    between atoms: C_15  and  N_72
REMARK    8  A    between atoms: C_19  and  C_22
REMARK    9  A    between atoms: C_23  and  C_24
REMARK   10  A    between atoms: C_23  and  N_72
REMARK                            x       y       z     vdW  Elec       q    Type
REMARK                         _______ _______ _______ _____ _____    ______ ____
ROOT
ATOM      1  N   UNL     1       0.136  -1.087   1.740  0.00  0.00    +0.392 N 
ATOM      2  H   UNL     1      -0.519  -0.995   2.526  0.00  0.00    -0.080 HD
ENDROOT
BRANCH   1   3
ATOM      3  C   UNL     1       0.033  -2.454   1.188  0.00  0.00    +0.003 C 
BRANCH   3   4
ATOM      4  C   UNL     1      -1.405  -2.896   1.263  0.00  0.00    +0.138 A 
ATOM      5  N   UNL     1      -2.456  -2.209   0.887  0.00  0.00    -0.115 NA
ATOM      6  N   UNL     1      -3.502  -2.928   1.109  0.00  0.00    -0.023 NA
ATOM      7  N   UNL     1      -3.146  -4.053   1.623  0.00  0.00    -0.044 NA
ATOM      8  N   UNL     1      -1.861  -4.072   1.734  0.00  0.00    -0.228 N 
BRANCH   8   9
ATOM      9  C   UNL     1      -1.050  -5.167   2.271  0.00  0.00    +0.111 C 
ATOM     10  C   UNL     1      -1.306  -6.458   1.466  0.00  0.00    +0.027 C 
ATOM     11  C   UNL     1      -1.264  -7.583   2.531  0.00  0.00    +0.002 C 
ATOM     12  C   UNL     1      -1.954  -6.926   3.752  0.00  0.00    +0.002 C 
ATOM     13  C   UNL     1      -1.461  -5.464   3.724  0.00  0.00    +0.027 C 
ENDBRANCH   8   9
ENDBRANCH   3   4
BRANCH   3  15
ATOM     14  C   UNL     1       1.997  -2.176  -0.331  0.00  0.00    +0.002 C 
ATOM     15  C   UNL     1       0.498  -2.477  -0.270  0.00  0.00    -0.011 C 
ENDBRANCH   3  15
ENDBRANCH   1   3
BRANCH   1  16
ATOM     16  C   UNL     1       1.509  -0.841   2.228  0.00  0.00    -0.042 C 
BRANCH  16  17
ATOM     17  C   UNL     1       1.704  -1.589   3.522  0.00  0.00    -0.064 A 
ATOM     18  C   UNL     1       1.283  -1.029   4.714  0.00  0.00    +0.002 A 
ATOM     19  C   UNL     1       1.458  -1.716   5.900  0.00  0.00    +0.003 A 
ATOM     20  C   UNL     1       2.062  -2.960   5.896  0.00  0.00    -0.050 A 
ATOM     21  C   UNL     1       2.487  -3.518   4.705  0.00  0.00    +0.003 A 
ATOM     22  C   UNL     1       2.308  -2.832   3.518  0.00  0.00    +0.002 A 
ATOM     23  C   UNL     1       2.256  -3.708   7.190  0.00  0.00    +0.044 C 
ENDBRANCH  16  17
ENDBRANCH   1  16
BRANCH   1  24
ATOM     24  C   UNL     1      -0.217  -0.095   0.703  0.00  0.00    -0.036 C 
BRANCH  24  25
ATOM     25  C   UNL     1      -0.466   1.234   1.369  0.00  0.00    +0.001 A 
ATOM     26  C   UNL     1       0.530   2.153   1.439  0.00  0.00    +0.017 A 
ATOM     27  C   UNL     1       0.258   3.433   2.091  0.00  0.00    +0.002 A 
ATOM     28  C   UNL     1       1.247   4.418   2.193  0.00  0.00    +0.059 A 
ATOM     29  C   UNL     1       0.962   5.614   2.817  0.00  0.00    +0.163 A 
ATOM     30  C   UNL     1      -0.312   5.846   3.344  0.00  0.00    +0.164 A 
ATOM     31  C   UNL     1      -1.298   4.879   3.246  0.00  0.00    +0.075 A 
ATOM     32  C   UNL     1      -1.025   3.668   2.623  0.00  0.00    +0.053 A 
ATOM     33  N   UNL     1      -1.996   2.692   2.518  0.00  0.00    -0.322 N 
ATOM     34  H   UNL     1      -2.879   2.855   2.884  0.00  0.00    +0.169 HD
ATOM     35  C   UNL     1      -1.735   1.520   1.912  0.00  0.00    +0.251 A 
ATOM     36  O   UNL     1      -2.618   0.683   1.833  0.00  0.00    -0.268 OA
ATOM     37  O   UNL     1      -0.604   7.025   3.957  0.00  0.00    -0.485 OA
ATOM     38  C   UNL     1       0.507   7.827   4.373  0.00  0.00    +0.270 C 
ATOM     39  C   UNL     1       1.512   7.893   3.215  0.00  0.00    +0.270 C 
ATOM     40  O   UNL     1       1.937   6.560   2.913  0.00  0.00    -0.485 OA
ENDBRANCH  24  25
ENDBRANCH   1  24
TORSDOF 8
