REMARK  Name = ZINC53211304
REMARK  3 active torsions:
REMARK  status: ('A' for Active; 'I' for Inactive)
REMARK    1  A    between atoms: C_11  and  C_13
REMARK    2  A    between atoms: C_13  and  N_14
REMARK    3  A    between atoms: C_18  and  C_20
REMARK                            x       y       z     vdW  Elec       q    Type
REMARK                         _______ _______ _______ _____ _____    ______ ____
ROOT
ATOM      1  C   UNL     1      -0.017   1.373   0.010  0.00  0.00    +0.001 A 
ATOM      2  C   UNL     1      -1.222   2.063   0.019  0.00  0.00    +0.002 A 
ATOM      3  C   UNL     1      -2.421   1.388   0.021  0.00  0.00    +0.028 A 
ATOM      4  C   UNL     1      -2.429  -0.009   0.013  0.00  0.00    +0.078 A 
ATOM      5  C   UNL     1      -1.201  -0.707   0.004  0.00  0.00    +0.065 A 
ATOM      6  C   UNL     1       0.002  -0.004   0.002  0.00  0.00    +0.015 A 
ATOM      7  C   UNL     1      -1.243  -2.177  -0.003  0.00  0.00    +0.259 A 
ATOM      8  O   UNL     1      -0.222  -2.839  -0.011  0.00  0.00    -0.267 OA
ATOM      9  N   UNL     1      -2.462  -2.765  -0.000  0.00  0.00    -0.309 N 
ATOM     10  H   UNL     1      -2.529  -3.733  -0.005  0.00  0.00    +0.170 HD
ATOM     11  C   UNL     1      -3.593  -2.013   0.009  0.00  0.00    +0.125 A 
ATOM     12  N   UNL     1      -3.587  -0.714   0.016  0.00  0.00    -0.232 NA
ENDROOT
BRANCH  11  13
ATOM     13  C   UNL     1      -4.923  -2.721   0.013  0.00  0.00    +0.159 C 
BRANCH  13  14
ATOM     14  N   UNL     1      -6.007  -1.729   0.024  0.00  0.00    -0.292 NA
ATOM     15  C   UNL     1      -6.072  -1.003  -1.262  0.00  0.00    +0.085 C 
ATOM     16  C   UNL     1      -7.193  -1.713  -2.061  0.00  0.00    +0.017 C 
ATOM     17  C   UNL     1      -8.214  -2.046  -0.941  0.00  0.00    +0.020 C 
ATOM     18  C   UNL     1      -7.311  -2.373   0.266  0.00  0.00    +0.060 C 
BRANCH  18  19
ATOM     19  C   UNL     1      -7.934  -1.819   1.548  0.00  0.00    +0.006 C 
ATOM     20  C   UNL     1      -7.005  -2.099   2.731  0.00  0.00    +0.005 C 
ATOM     21  C   UNL     1      -7.629  -1.545   4.013  0.00  0.00    +0.000 C 
ATOM     22  C   UNL     1      -8.981  -2.219   4.255  0.00  0.00    +0.000 C 
ATOM     23  C   UNL     1      -9.910  -1.938   3.073  0.00  0.00    +0.000 C 
ATOM     24  C   UNL     1      -9.286  -2.493   1.791  0.00  0.00    +0.005 C 
ENDBRANCH  18  19
ENDBRANCH  13  14
ENDBRANCH  11  13
TORSDOF 3
