REMARK  Name = ZINC36490426
REMARK  13 active torsions:
REMARK  status: ('A' for Active; 'I' for Inactive)
REMARK    1  A    between atoms: C_1  and  C_2
REMARK    2  A    between atoms: C_2  and  C_3
REMARK    3  A    between atoms: C_2  and  C_4
REMARK    4  A    between atoms: C_2  and  N_5
REMARK    5  A    between atoms: C_6  and  C_8
REMARK    6  A    between atoms: C_8  and  C_10
REMARK    7  A    between atoms: C_8  and  N_23
REMARK    8  A    between atoms: C_10  and  C_11
REMARK    9  A    between atoms: C_10  and  C_17
REMARK   10  A    between atoms: N_23  and  C_24
REMARK   11  A    between atoms: C_30  and  C_32
REMARK   12  A    between atoms: C_32  and  N_33
REMARK   13  A    between atoms: C_34  and  C_36
REMARK                            x       y       z     vdW  Elec       q    Type
REMARK                         _______ _______ _______ _____ _____    ______ ____
ROOT
ATOM      1  C   UNL     1       2.263  -0.105  -2.762  0.00  0.00    +0.174 C 
ENDROOT
BRANCH   1   3
ATOM      2  N   UNL     1       0.075   0.617  -1.861  0.00  0.00    -0.309 N 
ATOM      3  C   UNL     1       1.400   0.840  -1.966  0.00  0.00    +0.235 C 
ATOM      4  O   UNL     1       1.898   1.801  -1.420  0.00  0.00    -0.274 OA
ATOM      5  H   UNL     1      -0.323  -0.153  -2.298  0.00  0.00    +0.149 HD
BRANCH   2   7
ATOM      6  C   UNL     1      -0.671   2.939  -1.690  0.00  0.00    +0.031 C 
ATOM      7  C   UNL     1      -0.763   1.535  -1.088  0.00  0.00    +0.026 C 
ATOM      8  C   UNL     1      -0.279   1.570   0.363  0.00  0.00    +0.031 C 
ATOM      9  C   UNL     1      -2.216   1.057  -1.129  0.00  0.00    +0.031 C 
ENDBRANCH   2   7
ENDBRANCH   1   3
BRANCH   1  10
ATOM     10  N   UNL     1       3.654   0.353  -2.723  0.00  0.00    -0.285 N 
ATOM     11  C   UNL     1       4.293   0.665  -3.867  0.00  0.00    +0.234 C 
ATOM     12  O   UNL     1       3.754   0.470  -4.936  0.00  0.00    -0.274 OA
BRANCH  10  13
ATOM     13  C   UNL     1       4.350   0.472  -1.439  0.00  0.00    +0.077 C 
ATOM     14  C   UNL     1       4.503   1.950  -1.077  0.00  0.00    +0.022 C 
ATOM     15  C   UNL     1       5.230   2.075   0.264  0.00  0.00    +0.002 C 
ATOM     16  C   UNL     1       6.614   1.430   0.155  0.00  0.00    +0.000 C 
ATOM     17  C   UNL     1       6.460  -0.049  -0.207  0.00  0.00    +0.002 C 
ATOM     18  C   UNL     1       5.734  -0.173  -1.547  0.00  0.00    +0.022 C 
ENDBRANCH  10  13
BRANCH  11  19
ATOM     19  C   UNL     1       5.679   1.256  -3.820  0.00  0.00    +0.200 C 
BRANCH  19  20
ATOM     20  N   UNL     1       5.964   1.935  -5.086  0.00  0.00    -0.303 N 
ATOM     21  C   UNL     1       7.153   2.542  -5.272  0.00  0.00    +0.244 C 
ATOM     22  O   UNL     1       7.989   2.526  -4.390  0.00  0.00    -0.270 OA
ATOM     23  H   UNL     1       5.297   1.948  -5.790  0.00  0.00    +0.150 HD
BRANCH  21  24
ATOM     24  C   UNL     1       7.440   3.227  -6.550  0.00  0.00    +0.037 A 
ATOM     25  C   UNL     1       6.481   3.253  -7.564  0.00  0.00    +0.013 A 
ATOM     26  C   UNL     1       6.755   3.895  -8.754  0.00  0.00    +0.001 A 
ATOM     27  C   UNL     1       7.979   4.512  -8.944  0.00  0.00    +0.000 A 
ATOM     28  C   UNL     1       8.935   4.490  -7.944  0.00  0.00    +0.001 A 
ATOM     29  C   UNL     1       8.671   3.857  -6.747  0.00  0.00    +0.013 A 
ENDBRANCH  21  24
ENDBRANCH  19  20
ENDBRANCH  11  19
ENDBRANCH   1  10
BRANCH   1  30
ATOM     30  C   UNL     1       2.171  -1.509  -2.160  0.00  0.00    +0.078 C 
BRANCH  30  31
ATOM     31  C   UNL     1       0.740  -1.980  -2.201  0.00  0.00    -0.038 A 
ATOM     32  C   UNL     1       0.061  -2.024  -3.404  0.00  0.00    +0.004 A 
ATOM     33  C   UNL     1      -1.252  -2.457  -3.441  0.00  0.00    +0.000 A 
ATOM     34  C   UNL     1      -1.885  -2.845  -2.275  0.00  0.00    +0.000 A 
ATOM     35  C   UNL     1      -1.205  -2.802  -1.072  0.00  0.00    +0.000 A 
ATOM     36  C   UNL     1       0.109  -2.374  -1.035  0.00  0.00    +0.004 A 
ENDBRANCH  30  31
BRANCH  30  37
ATOM     37  C   UNL     1       3.034  -2.454  -2.956  0.00  0.00    -0.038 A 
ATOM     38  C   UNL     1       2.947  -2.474  -4.335  0.00  0.00    +0.004 A 
ATOM     39  C   UNL     1       3.739  -3.341  -5.065  0.00  0.00    +0.000 A 
ATOM     40  C   UNL     1       4.617  -4.188  -4.416  0.00  0.00    +0.000 A 
ATOM     41  C   UNL     1       4.705  -4.167  -3.036  0.00  0.00    +0.000 A 
ATOM     42  C   UNL     1       3.917  -3.297  -2.307  0.00  0.00    +0.004 A 
ENDBRANCH  30  37
ENDBRANCH   1  30
TORSDOF 10
