REMARK  Name = ZINC63333686
REMARK  2 active torsions:
REMARK  status: ('A' for Active; 'I' for Inactive)
REMARK    1  A    between atoms: C_8  and  C_16
REMARK    2  A    between atoms: C_20  and  N_22
REMARK                            x       y       z     vdW  Elec       q    Type
REMARK                         _______ _______ _______ _____ _____    ______ ____
ROOT
ATOM      1  C   UNL     1      -0.016   1.347   0.009  0.00  0.00    +0.001 A 
ATOM      2  C   UNL     1       1.165   2.101   0.002  0.00  0.00    +0.002 A 
ATOM      3  C   UNL     1       2.390   1.534  -0.009  0.00  0.00    +0.026 A 
ATOM      4  C   UNL     1       2.530   0.120  -0.013  0.00  0.00    +0.043 A 
ATOM      5  N   UNL     1       3.592  -0.653  -0.049  0.00  0.00    -0.376 N 
ATOM      6  C   UNL     1       3.157  -2.042   0.059  0.00  0.00    +0.128 C 
ATOM      7  C   UNL     1       3.655  -2.907  -1.102  0.00  0.00    +0.111 C 
ATOM      8  N   UNL     1       2.937  -4.191  -1.064  0.00  0.00    -0.307 NA
ATOM      9  C   UNL     1       1.505  -4.060  -1.352  0.00  0.00    +0.086 C 
ATOM     10  C   UNL     1       0.815  -3.246  -0.242  0.00  0.00    +0.048 C 
ATOM     11  C   UNL     1       1.640  -1.996  -0.034  0.00  0.00    -0.035 C 
ATOM     12  C   UNL     1       1.294  -0.703  -0.015  0.00  0.00    -0.001 A 
ATOM     13  C   UNL     1       0.002  -0.004   0.002  0.00  0.00    +0.010 A 
ATOM     14  H   UNL     1       3.369  -4.865  -1.677  0.00  0.00    +0.123 HD
ATOM     15  H   UNL     1       4.510  -0.351  -0.132  0.00  0.00    +0.160 HD
ENDROOT
BRANCH   7  16
ATOM     16  C   UNL     1       5.136  -3.149  -0.956  0.00  0.00    -0.026 A 
ATOM     17  C   UNL     1       5.595  -4.123  -0.089  0.00  0.00    +0.007 A 
ATOM     18  C   UNL     1       6.952  -4.345   0.044  0.00  0.00    +0.022 A 
ATOM     19  C   UNL     1       7.852  -3.593  -0.690  0.00  0.00    +0.071 A 
ATOM     20  C   UNL     1       7.392  -2.619  -1.558  0.00  0.00    +0.145 A 
ATOM     21  C   UNL     1       6.034  -2.401  -1.694  0.00  0.00    +0.039 A 
ATOM     22 CL   UNL     1       9.557  -3.872  -0.523  0.00  0.00    -0.081 Cl
BRANCH  20  23
ATOM     23  N   UNL     1       8.353  -1.813  -2.344  0.00  0.00    +0.058 N 
ATOM     24  O   UNL     1       7.951  -0.962  -3.102  0.00  0.00    -0.126 OA
ATOM     25  O   UNL     1       9.541  -2.007  -2.228  0.00  0.00    -0.126 OA
ENDBRANCH  20  23
ENDBRANCH   7  16
TORSDOF 2
