REMARK  Name = ZINC39957713
REMARK  12 active torsions:
REMARK  status: ('A' for Active; 'I' for Inactive)
REMARK    1  A    between atoms: C_1  and  C_2
REMARK    2  A    between atoms: C_4  and  C_12
REMARK    3  A    between atoms: C_12  and  C_14
REMARK    4  A    between atoms: C_14  and  C_16
REMARK    5  A    between atoms: C_14  and  O_17
REMARK    6  A    between atoms: O_17  and  C_18
REMARK    7  A    between atoms: C_18  and  C_20
REMARK    8  A    between atoms: C_23  and  O_33
REMARK    9  A    between atoms: C_24  and  S_26
REMARK   10  A    between atoms: S_26  and  N_29
REMARK   11  A    between atoms: N_29  and  C_30
REMARK   12  A    between atoms: O_33  and  C_34
REMARK                            x       y       z     vdW  Elec       q    Type
REMARK                         _______ _______ _______ _____ _____    ______ ____
ROOT
ATOM      1  C   UNL     1      -5.593  -2.195  -1.992  0.00  0.00    +0.340 C 
ATOM      2  O   UNL     1      -5.791  -3.014  -1.117  0.00  0.00    -0.245 OA
ENDROOT
BRANCH   1   3
ATOM      3  C   UNL     1      -6.152  -2.407  -3.340  0.00  0.00    +0.061 A 
ATOM      4  C   UNL     1      -5.921  -1.468  -4.350  0.00  0.00    +0.018 A 
ATOM      5  C   UNL     1      -6.445  -1.670  -5.607  0.00  0.00    +0.048 A 
ATOM      6  C   UNL     1      -7.203  -2.804  -5.873  0.00  0.00    +0.146 A 
ATOM      7  C   UNL     1      -7.436  -3.740  -4.871  0.00  0.00    +0.147 A 
ATOM      8  C   UNL     1      -6.910  -3.549  -3.613  0.00  0.00    +0.047 A 
BRANCH   7   9
ATOM      9  S   UNL     1      -8.398  -5.176  -5.214  0.00  0.00    +0.062 S 
ATOM     10  O   UNL     1      -8.419  -5.945  -4.020  0.00  0.00    -0.153 OA
ATOM     11  O   UNL     1      -9.585  -4.726  -5.852  0.00  0.00    -0.153 OA
BRANCH   9  12
ATOM     12  N   UNL     1      -7.566  -6.066  -6.336  0.00  0.00    -0.187 NA
ATOM     13  H   UNL     1      -7.947  -6.216  -7.215  0.00  0.00    +0.148 HD
BRANCH  12  14
ATOM     14  C   UNL     1      -6.255  -6.628  -5.999  0.00  0.00    +0.077 C 
ATOM     15  C   UNL     1      -5.222  -6.732  -7.123  0.00  0.00    +0.022 C 
ATOM     16  C   UNL     1      -5.901  -7.995  -6.588  0.00  0.00    +0.022 C 
ENDBRANCH  12  14
ENDBRANCH   9  12
ENDBRANCH   7   9
BRANCH   6  17
ATOM     17  O   UNL     1      -7.718  -2.999  -7.113  0.00  0.00    -0.493 OA
ATOM     18  C   UNL     1      -7.442  -1.998  -8.095  0.00  0.00    +0.277 C 
ENDBRANCH   6  17
ENDBRANCH   1   3
BRANCH   1  19
ATOM     19  O   UNL     1      -4.863  -1.093  -1.731  0.00  0.00    -0.450 OA
BRANCH  19  20
ATOM     20  C   UNL     1      -4.352  -0.953  -0.404  0.00  0.00    +0.244 C 
ATOM     21  C   UNL     1      -5.368  -0.200   0.457  0.00  0.00    +0.061 C 
BRANCH  20  22
ATOM     22  C   UNL     1      -3.057  -0.182  -0.443  0.00  0.00    +0.202 C 
ATOM     23  O   UNL     1      -2.792   0.511  -1.404  0.00  0.00    -0.288 OA
BRANCH  22  26
ATOM     24  C   UNL     1      -0.929   1.908   0.664  0.00  0.00    +0.035 C 
ATOM     25  C   UNL     1      -0.792   0.386   0.744  0.00  0.00    +0.111 C 
ATOM     26  C   UNL     1      -2.154  -0.265   0.637  0.00  0.00    +0.030 C 
ATOM     27  C   UNL     1      -2.326  -0.960   1.821  0.00  0.00    +0.007 A 
ATOM     28  C   UNL     1      -3.380  -1.761   2.321  0.00  0.00    +0.010 A 
ATOM     29  C   UNL     1      -3.280  -2.333   3.542  0.00  0.00    +0.001 A 
ATOM     30  C   UNL     1      -2.152  -2.167   4.362  0.00  0.00    +0.002 A 
ATOM     31  C   UNL     1      -1.093  -1.423   3.979  0.00  0.00    +0.026 A 
ATOM     32  C   UNL     1      -1.120  -0.765   2.662  0.00  0.00    +0.043 A 
ATOM     33  N   UNL     1      -0.255  -0.004   2.051  0.00  0.00    -0.377 N 
ATOM     34  H   UNL     1       0.609   0.261   2.405  0.00  0.00    +0.160 HD
ENDBRANCH  22  26
ENDBRANCH  20  22
ENDBRANCH  19  20
ENDBRANCH   1  19
TORSDOF 9
