REMARK  Name = ZINC11976548
REMARK  9 active torsions:
REMARK  status: ('A' for Active; 'I' for Inactive)
REMARK    1  A    between atoms: C_1  and  C_2
REMARK    2  A    between atoms: C_2  and  C_3
REMARK    3  A    between atoms: C_3  and  C_22
REMARK    4  A    between atoms: N_6  and  C_10
REMARK    5  A    between atoms: C_10  and  C_11
REMARK    6  A    between atoms: C_27  and  C_28
REMARK    7  A    between atoms: C_27  and  N_70
REMARK    8  A    between atoms: C_30  and  C_35
REMARK    9  A    between atoms: C_33  and  C_34
REMARK                            x       y       z     vdW  Elec       q    Type
REMARK                         _______ _______ _______ _____ _____    ______ ____
ROOT
ATOM      1  C   UNL     1       0.443  -2.138   8.123  0.00  0.00    +0.115 C 
ATOM      2  C   UNL     1      -0.889  -1.871   8.796  0.00  0.00    +0.247 C 
ATOM      3  O   UNL     1      -1.971  -1.766   8.260  0.00  0.00    -0.273 OA
ATOM      4  N   UNL     1      -0.619  -1.773  10.112  0.00  0.00    -0.221 N 
ATOM      5  C   UNL     1       0.684  -1.940  10.363  0.00  0.00    +0.309 C 
ATOM      6  O   UNL     1       1.170  -1.895  11.476  0.00  0.00    -0.252 OA
ATOM      7  N   UNL     1       1.399  -2.162   9.244  0.00  0.00    -0.285 N 
ATOM      8  H   UNL     1       2.356  -2.308   9.187  0.00  0.00    +0.151 HD
ENDROOT
BRANCH   1   9
ATOM      9  C   UNL     1       0.788  -1.012   7.146  0.00  0.00    +0.018 C 
ATOM     10  C   UNL     1       0.626   0.340   7.846  0.00  0.00    -0.013 C 
ATOM     11  C   UNL     1       0.913   1.464   6.847  0.00  0.00    -0.078 C 
ATOM     12  C   UNL     1       0.153   0.093   4.999  0.00  0.00    -0.078 C 
ATOM     13  C   UNL     1      -0.157  -1.071   5.943  0.00  0.00    -0.013 C 
ATOM     14  N   UNL     1      -0.045   1.365   5.726  0.00  0.00    +0.382 N 
ATOM     15  H   UNL     1      -1.000   1.389   6.101  0.00  0.00    -0.081 HD
BRANCH  14  16
ATOM     16  C   UNL     1       0.137   2.506   4.804  0.00  0.00    -0.043 C 
BRANCH  16  17
ATOM     17  C   UNL     1      -0.646   2.251   3.543  0.00  0.00    -0.061 A 
ATOM     18  C   UNL     1       0.001   1.806   2.405  0.00  0.00    +0.005 A 
ATOM     19  C   UNL     1      -0.718   1.572   1.248  0.00  0.00    -0.050 A 
ATOM     20  C   UNL     1      -2.083   1.789   1.226  0.00  0.00    +0.003 A 
ATOM     21  C   UNL     1      -2.731   2.231   2.365  0.00  0.00    +0.004 A 
ATOM     22  C   UNL     1      -2.012   2.464   3.522  0.00  0.00    -0.049 A 
ATOM     23  C   UNL     1      -2.717   2.950   4.762  0.00  0.00    +0.044 C 
ATOM     24  C   UNL     1      -0.013   1.086   0.008  0.00  0.00    +0.044 C 
ENDBRANCH  16  17
ENDBRANCH  14  16
ENDBRANCH   1   9
BRANCH   1  26
ATOM     25  C   UNL     1       0.079  -4.594   8.400  0.00  0.00    +0.006 C 
ATOM     26  C   UNL     1       0.426  -3.487   7.402  0.00  0.00    +0.032 C 
ENDBRANCH   1  26
BRANCH   4  27
ATOM     27  C   UNL     1      -1.629  -1.518  11.142  0.00  0.00    +0.166 C 
BRANCH  27  28
ATOM     28  C   UNL     1      -1.772  -0.009  11.353  0.00  0.00    +0.229 C 
ATOM     29  C   UNL     1      -2.807   0.264  12.453  0.00  0.00    +0.275 C 
ATOM     30  O   UNL     1      -2.905   1.681  12.634  0.00  0.00    -0.485 OA
ATOM     31  C   UNL     1      -1.734   2.370  12.717  0.00  0.00    +0.162 A 
ATOM     32  C   UNL     1      -1.736   3.656  13.238  0.00  0.00    +0.049 A 
ATOM     33  C   UNL     1      -0.557   4.370  13.322  0.00  0.00    +0.004 A 
ATOM     34  C   UNL     1       0.628   3.807  12.887  0.00  0.00    +0.004 A 
ATOM     35  C   UNL     1       0.638   2.526  12.368  0.00  0.00    +0.049 A 
ATOM     36  C   UNL     1      -0.543   1.802  12.282  0.00  0.00    +0.163 A 
ATOM     37  O   UNL     1      -0.518   0.541  11.771  0.00  0.00    -0.480 OA
ENDBRANCH  27  28
ENDBRANCH   4  27
TORSDOF 6
