REMARK  Name = ZINC08757276
REMARK  9 active torsions:
REMARK  status: ('A' for Active; 'I' for Inactive)
REMARK    1  A    between atoms: C_1  and  C_2
REMARK    2  A    between atoms: C_2  and  C_3
REMARK    3  A    between atoms: C_8  and  N_9
REMARK    4  A    between atoms: C_12  and  C_15
REMARK    5  A    between atoms: C_15  and  S_16
REMARK    6  A    between atoms: S_16  and  C_17
REMARK    7  A    between atoms: C_19  and  C_23
REMARK    8  A    between atoms: N_21  and  N_22
REMARK    9  A    between atoms: C_29  and  C_31
REMARK                            x       y       z     vdW  Elec       q    Type
REMARK                         _______ _______ _______ _____ _____    ______ ____
ROOT
ATOM      1  N   UNL     1       0.777  -7.267   2.187  0.00  0.00    -0.219 N 
ATOM      2  C   UNL     1       0.649  -6.403   1.103  0.00  0.00    +0.172 A 
ATOM      3  N   UNL     1       0.470  -5.096   1.102  0.00  0.00    -0.228 NA
ATOM      4  C   UNL     1       0.367  -4.422  -0.026  0.00  0.00    +0.061 A 
ATOM      5  C   UNL     1       0.445  -5.103  -1.195  0.00  0.00    +0.072 A 
ATOM      6  S   UNL     1       0.684  -6.769  -0.594  0.00  0.00    -0.060 S 
ATOM      7  C   UNL     1       0.722  -6.784   3.444  0.00  0.00    +0.223 C 
ATOM      8  O   UNL     1       0.561  -5.597   3.631  0.00  0.00    -0.275 OA
ATOM      9  C   UNL     1       0.861  -7.720   4.617  0.00  0.00    +0.110 C 
ENDROOT
BRANCH   1  15
ATOM     10  C   UNL     1      -0.135  -9.483   1.880  0.00  0.00    -0.026 A 
ATOM     11  C   UNL     1       0.052 -10.835   1.661  0.00  0.00    +0.005 A 
ATOM     12  C   UNL     1       1.331 -11.347   1.544  0.00  0.00    +0.000 A 
ATOM     13  C   UNL     1       2.427 -10.509   1.640  0.00  0.00    +0.002 A 
ATOM     14  C   UNL     1       2.247  -9.156   1.853  0.00  0.00    +0.024 A 
ATOM     15  C   UNL     1       0.963  -8.638   1.971  0.00  0.00    +0.046 A 
BRANCH  10  17
ATOM     16  C   UNL     1      -2.002  -8.405   0.655  0.00  0.00    +0.009 C 
ATOM     17  C   UNL     1      -1.528  -8.927   2.014  0.00  0.00    +0.033 C 
ENDBRANCH  10  17
ENDBRANCH   1  15
BRANCH   4  18
ATOM     18  C   UNL     1       0.162  -2.929  -0.015  0.00  0.00    +0.133 C 
BRANCH  18  19
ATOM     19  S   UNL     1       1.771  -2.099  -0.027  0.00  0.00    -0.080 S 
BRANCH  19  20
ATOM     20  C   UNL     1       1.247  -0.417  -0.012  0.00  0.00    +0.187 A 
ATOM     21  N   UNL     1       0.002  -0.004   0.002  0.00  0.00    -0.221 NA
ATOM     22  C   UNL     1      -0.016   1.352   0.009  0.00  0.00    +0.092 A 
ATOM     23  C   UNL     1       1.268   1.787  -0.001  0.00  0.00    +0.138 A 
ATOM     24  N   UNL     1       2.068   0.670  -0.014  0.00  0.00    -0.251 N 
BRANCH  22  25
ATOM     25  C   UNL     1      -1.228   2.209   0.020  0.00  0.00    +0.002 A 
ATOM     26  C   UNL     1      -1.103   3.597   0.032  0.00  0.00    +0.010 A 
ATOM     27  C   UNL     1      -2.233   4.388   0.037  0.00  0.00    +0.001 A 
ATOM     28  C   UNL     1      -3.488   3.807   0.041  0.00  0.00    +0.000 A 
ATOM     29  C   UNL     1      -3.618   2.430   0.034  0.00  0.00    +0.001 A 
ATOM     30  C   UNL     1      -2.495   1.628   0.024  0.00  0.00    +0.010 A 
ENDBRANCH  22  25
BRANCH  24  31
ATOM     31  N   UNL     1       3.433   0.652  -0.027  0.00  0.00    -0.296 N 
ATOM     32  H   UNL     1       3.786   0.653  -0.972  0.00  0.00    +0.163 HD
ATOM     33  H   UNL     1       3.810   1.426   0.500  0.00  0.00    +0.163 HD
ENDBRANCH  24  31
ENDBRANCH  19  20
ENDBRANCH  18  19
ENDBRANCH   4  18
TORSDOF 7
