REMARK  Name = ZINC64921527
REMARK  7 active torsions:
REMARK  status: ('A' for Active; 'I' for Inactive)
REMARK    1  A    between atoms: C_1  and  C_2
REMARK    2  A    between atoms: C_6  and  N_9
REMARK    3  A    between atoms: C_7  and  C_8
REMARK    4  A    between atoms: C_10  and  C_12
REMARK    5  A    between atoms: N_15  and  S_18
REMARK    6  A    between atoms: S_18  and  C_21
REMARK    7  A    between atoms: C_30  and  C_33
REMARK                            x       y       z     vdW  Elec       q    Type
REMARK                         _______ _______ _______ _____ _____    ______ ____
ROOT
ATOM      1  C   UNL     1      -0.129  -4.898   3.686  0.00  0.00    +0.078 C 
ATOM      2  C   UNL     1       1.109  -4.608   4.538  0.00  0.00    +0.030 C 
ATOM      3  C   UNL     1       0.990  -5.350   5.873  0.00  0.00    +0.110 C 
ATOM      4  N   UNL     1       0.765  -6.777   5.602  0.00  0.00    -0.177 NA
ATOM      5  C   UNL     1      -0.344  -7.162   4.720  0.00  0.00    +0.110 C 
ATOM      6  C   UNL     1      -0.211  -6.399   3.398  0.00  0.00    +0.030 C 
ENDROOT
BRANCH   1   8
ATOM      7  N   UNL     1       0.052  -2.797   2.393  0.00  0.00    -0.285 N 
ATOM      8  C   UNL     1      -0.031  -4.143   2.385  0.00  0.00    +0.220 C 
ATOM      9  O   UNL     1      -0.028  -4.745   1.333  0.00  0.00    -0.275 OA
ATOM     10  H   UNL     1       0.130  -2.321   3.234  0.00  0.00    +0.155 HD
BRANCH   7  16
ATOM     11  C   UNL     1       1.206   1.236  -0.172  0.00  0.00    +0.044 C 
ATOM     12  C   UNL     1       0.578  -0.131  -0.084  0.00  0.00    -0.046 A 
ATOM     13  C   UNL     1      -0.027  -0.686  -1.198  0.00  0.00    +0.004 A 
ATOM     14  C   UNL     1      -0.604  -1.940  -1.122  0.00  0.00    +0.002 A 
ATOM     15  C   UNL     1      -0.580  -2.642   0.067  0.00  0.00    +0.023 A 
ATOM     16  C   UNL     1       0.026  -2.088   1.187  0.00  0.00    +0.037 A 
ATOM     17  C   UNL     1       0.610  -0.831   1.106  0.00  0.00    -0.026 A 
ATOM     18  C   UNL     1       1.274  -0.228   2.317  0.00  0.00    +0.046 C 
ENDBRANCH   7  16
ENDBRANCH   1   8
BRANCH   4  19
ATOM     19  S   UNL     1       1.744  -7.928   6.278  0.00  0.00    +0.061 S 
ATOM     20  O   UNL     1       1.663  -9.073   5.441  0.00  0.00    -0.153 OA
ATOM     21  O   UNL     1       2.978  -7.289   6.576  0.00  0.00    -0.153 OA
BRANCH  19  22
ATOM     22  C   UNL     1       1.026  -8.382   7.822  0.00  0.00    +0.107 A 
ATOM     23  C   UNL     1       1.374  -7.696   8.972  0.00  0.00    +0.032 A 
ATOM     24  C   UNL     1       0.814  -8.045  10.188  0.00  0.00    +0.049 A 
ATOM     25  C   UNL     1      -0.097  -9.085  10.254  0.00  0.00    +0.143 A 
ATOM     26  C   UNL     1      -0.448  -9.776   9.095  0.00  0.00    +0.078 A 
ATOM     27  C   UNL     1       0.112  -9.418   7.880  0.00  0.00    +0.055 A 
ATOM     28  N   UNL     1      -1.370 -10.828   9.177  0.00  0.00    -0.279 N 
ATOM     29  C   UNL     1      -2.129 -10.949  10.288  0.00  0.00    +0.258 C 
ATOM     30  O   UNL     1      -2.912 -11.869  10.394  0.00  0.00    -0.271 OA
ATOM     31  C   UNL     1      -1.999  -9.934  11.395  0.00  0.00    +0.256 C 
ATOM     32  O   UNL     1      -0.658  -9.441  11.440  0.00  0.00    -0.478 OA
ATOM     33  C   UNL     1      -2.344 -10.593  12.732  0.00  0.00    +0.062 C 
ATOM     34  H   UNL     1      -1.462 -11.460   8.446  0.00  0.00    +0.155 HD
ENDBRANCH  19  22
ENDBRANCH   4  19
TORSDOF 4
