REMARK  Name = ZINC25763872
REMARK  5 active torsions:
REMARK  status: ('A' for Active; 'I' for Inactive)
REMARK    1  A    between atoms: C_1  and  C_2
REMARK    2  A    between atoms: C_3  and  C_23
REMARK    3  A    between atoms: C_4  and  C_14
REMARK    4  A    between atoms: C_18  and  N_20
REMARK    5  A    between atoms: N_25  and  C_26
REMARK                            x       y       z     vdW  Elec       q    Type
REMARK                         _______ _______ _______ _____ _____    ______ ____
ROOT
ATOM      1  C   UNL     1       3.765   5.118   2.455  0.00  0.00    +0.061 C 
ATOM      2  C   UNL     1       3.112   4.605   1.198  0.00  0.00    +0.014 C 
ATOM      3  C   UNL     1       1.872   4.092   1.252  0.00  0.00    +0.043 C 
ATOM      4  C   UNL     1       1.193   3.565   0.022  0.00  0.00    +0.090 C 
ATOM      5  C   UNL     1       1.865   4.077  -1.227  0.00  0.00    +0.024 C 
ATOM      6  C   UNL     1       3.112   4.588  -1.180  0.00  0.00    +0.015 C 
ATOM      7  N   UNL     1       3.786   4.665   0.009  0.00  0.00    -0.321 N 
ATOM      8  C   UNL     1       3.797   5.083  -2.429  0.00  0.00    +0.051 C 
ATOM      9  C   UNL     1       2.752   5.627  -3.407  0.00  0.00    +0.014 C 
ATOM     10  C   UNL     1       1.755   4.507  -3.724  0.00  0.00    +0.080 C 
ATOM     11  C   UNL     1       1.154   4.007  -2.439  0.00  0.00    +0.162 C 
ATOM     12  O   UNL     1       0.034   3.535  -2.448  0.00  0.00    -0.292 OA
ATOM     13  H   UNL     1       4.880   4.776   0.002  0.00  0.00    +0.152 HD
ENDROOT
BRANCH   4  14
ATOM     14  C   UNL     1       1.249   2.059   0.033  0.00  0.00    -0.033 A 
ATOM     15  C   UNL     1       2.472   1.413   0.030  0.00  0.00    +0.005 A 
ATOM     16  C   UNL     1       2.524   0.032   0.040  0.00  0.00    +0.003 A 
ATOM     17  C   UNL     1       1.353  -0.704   0.052  0.00  0.00    +0.033 A 
ATOM     18  C   UNL     1       0.131  -0.058   0.053  0.00  0.00    +0.126 A 
ATOM     19  C   UNL     1       0.079   1.323   0.043  0.00  0.00    +0.037 A 
BRANCH  18  20
ATOM     20  N   UNL     1      -1.122  -0.846   0.065  0.00  0.00    +0.056 N 
ATOM     21  O   UNL     1      -2.199  -0.277   0.066  0.00  0.00    -0.126 OA
ATOM     22  O   UNL     1      -1.076  -2.063   0.073  0.00  0.00    -0.126 OA
ENDBRANCH  18  20
ENDBRANCH   4  14
BRANCH   3  23
ATOM     23  C   UNL     1       1.192   4.048   2.494  0.00  0.00    +0.247 C 
ATOM     24  O   UNL     1       0.357   4.893   2.762  0.00  0.00    -0.270 OA
ATOM     25  N   UNL     1       1.470   3.070   3.380  0.00  0.00    -0.279 N 
ATOM     26  H   UNL     1       2.270   2.346   3.167  0.00  0.00    +0.155 HD
BRANCH  25  27
ATOM     27  C   UNL     1       0.739   2.977   4.571  0.00  0.00    +0.069 A 
ATOM     28  C   UNL     1       0.134   4.106   5.106  0.00  0.00    +0.029 A 
ATOM     29  C   UNL     1      -0.589   4.011   6.280  0.00  0.00    +0.040 A 
ATOM     30  C   UNL     1      -0.704   2.792   6.928  0.00  0.00    +0.126 A 
ATOM     31  C   UNL     1      -0.098   1.665   6.400  0.00  0.00    +0.078 A 
ATOM     32  C   UNL     1       0.624   1.754   5.223  0.00  0.00    +0.147 A 
ATOM     33  F   UNL     1       1.215   0.654   4.707  0.00  0.00    -0.203 F 
ATOM     34  F   UNL     1      -1.408   2.704   8.077  0.00  0.00    -0.205 F 
ENDBRANCH  25  27
ENDBRANCH   3  23
TORSDOF 4
