REMARK  Name = ZINC36859949
REMARK  5 active torsions:
REMARK  status: ('A' for Active; 'I' for Inactive)
REMARK    1  A    between atoms: C_1  and  C_2
REMARK    2  A    between atoms: C_2  and  N_3
REMARK    3  A    between atoms: C_7  and  C_8
REMARK    4  A    between atoms: C_12  and  C_19
REMARK    5  A    between atoms: C_15  and  C_18
REMARK                            x       y       z     vdW  Elec       q    Type
REMARK                         _______ _______ _______ _____ _____    ______ ____
ROOT
ATOM      1  C   UNL     1       2.823  -0.235  -0.423  0.00  0.00    +0.263 C 
ATOM      2  O   UNL     1       4.019  -0.206  -0.643  0.00  0.00    -0.268 OA
ATOM      3  N   UNL     1       2.347   0.166   0.772  0.00  0.00    -0.296 N 
ATOM      4  C   UNL     1       0.902   0.321   0.989  0.00  0.00    +0.111 C 
ATOM      5  C   UNL     1       0.632   1.729   1.528  0.00  0.00    +0.004 C 
ATOM      6  C   UNL     1       1.484   1.964   2.778  0.00  0.00    +0.009 C 
ATOM      7  C   UNL     1       2.967   1.862   2.413  0.00  0.00    +0.004 C 
ATOM      8  C   UNL     1       3.263   0.450   1.885  0.00  0.00    +0.111 C 
ATOM      9  C   UNL     1       3.819   2.131   3.655  0.00  0.00    +0.009 C 
ATOM     10  C   UNL     1      -0.849   1.864   1.887  0.00  0.00    +0.009 C 
ENDROOT
BRANCH   1  15
ATOM     11  N   UNL     1       2.092  -0.625  -2.820  0.00  0.00    -0.342 N 
ATOM     12  C   UNL     1       1.019  -1.171  -3.444  0.00  0.00    +0.101 A 
ATOM     13  C   UNL     1       0.137  -1.596  -2.507  0.00  0.00    +0.036 A 
ATOM     14  C   UNL     1       0.675  -1.307  -1.249  0.00  0.00    +0.047 A 
ATOM     15  C   UNL     1       1.898  -0.706  -1.460  0.00  0.00    +0.106 A 
ATOM     16 BR   UNL     1      -1.526  -2.432  -2.842  0.00  0.00    -0.049 Br
BRANCH  11  18
ATOM     17  C   UNL     1       4.354  -1.119  -3.609  0.00  0.00    +0.027 C 
ATOM     18  C   UNL     1       3.265  -0.051  -3.483  0.00  0.00    +0.118 C 
ENDBRANCH  11  18
ENDBRANCH   1  15
TORSDOF 2
