REMARK  Name = ZINC19522994
REMARK  7 active torsions:
REMARK  status: ('A' for Active; 'I' for Inactive)
REMARK    1  A    between atoms: C_1  and  C_2
REMARK    2  A    between atoms: C_2  and  C_3
REMARK    3  A    between atoms: C_10  and  C_15
REMARK    4  A    between atoms: C_15  and  C_17
REMARK    5  A    between atoms: C_15  and  N_29
REMARK    6  A    between atoms: N_21  and  C_22
REMARK    7  A    between atoms: C_22  and  C_23
REMARK                            x       y       z     vdW  Elec       q    Type
REMARK                         _______ _______ _______ _____ _____    ______ ____
ROOT
ATOM      1  C   UNL     1       4.959   1.184  -0.036  0.00  0.00    +0.163 C 
ENDROOT
BRANCH   1   9
ATOM      2  C   UNL     1      -1.139   1.979   0.649  0.00  0.00    -0.047 A 
ATOM      3  C   UNL     1      -1.103   3.362   0.770  0.00  0.00    +0.005 A 
ATOM      4  C   UNL     1       0.094   4.043   0.707  0.00  0.00    +0.026 A 
ATOM      5  C   UNL     1       1.280   3.338   0.525  0.00  0.00    +0.049 A 
ATOM      6  C   UNL     1       1.239   1.936   0.407  0.00  0.00    -0.001 A 
ATOM      7  C   UNL     1       0.013   1.267   0.474  0.00  0.00    +0.013 A 
ATOM      8  C   UNL     1       2.493   1.204   0.216  0.00  0.00    +0.021 A 
ATOM      9  C   UNL     1       3.651   1.907   0.160  0.00  0.00    +0.042 A 
ATOM     10  C   UNL     1       3.636   3.313   0.283  0.00  0.00    +0.254 A 
ATOM     11  O   UNL     1       4.689   3.925   0.229  0.00  0.00    -0.268 OA
ATOM     12  N   UNL     1       2.491   3.994   0.459  0.00  0.00    -0.322 N 
ATOM     13  H   UNL     1       2.529   5.089   0.549  0.00  0.00    +0.169 HD
BRANCH   2  15
ATOM     14  C   UNL     1      -2.768   0.890   2.168  0.00  0.00    +0.009 C 
ATOM     15  C   UNL     1      -2.461   1.258   0.715  0.00  0.00    +0.032 C 
ENDBRANCH   2  15
ENDBRANCH   1   9
BRANCH   1  16
ATOM     16  N   UNL     1       5.665   1.754  -1.192  0.00  0.00    -0.284 NA
ATOM     17  C   UNL     1       4.879   1.588  -2.425  0.00  0.00    +0.090 C 
ATOM     18  C   UNL     1       5.467   2.501  -3.501  0.00  0.00    +0.051 C 
ATOM     19  C   UNL     1       6.957   2.291  -3.596  0.00  0.00    -0.042 A 
ATOM     20  C   UNL     1       7.618   2.747  -4.726  0.00  0.00    +0.004 A 
ATOM     21  C   UNL     1       8.983   2.583  -4.849  0.00  0.00    +0.000 A 
ATOM     22  C   UNL     1       9.694   1.959  -3.841  0.00  0.00    +0.000 A 
ATOM     23  C   UNL     1       9.037   1.503  -2.717  0.00  0.00    +0.005 A 
ATOM     24  C   UNL     1       7.665   1.666  -2.592  0.00  0.00    -0.030 A 
ATOM     25  C   UNL     1       6.991   1.147  -1.349  0.00  0.00    +0.120 C 
ENDBRANCH   1  16
BRANCH   1  26
ATOM     26  C   UNL     1       5.808   1.339   1.198  0.00  0.00    +0.173 A 
ATOM     27  N   UNL     1       6.502   2.396   1.544  0.00  0.00    -0.111 NA
ATOM     28  N   UNL     1       7.091   2.139   2.660  0.00  0.00    -0.023 NA
ATOM     29  N   UNL     1       6.791   0.945   3.036  0.00  0.00    -0.044 NA
ATOM     30  N   UNL     1       5.998   0.420   2.164  0.00  0.00    -0.223 N 
BRANCH  30  31
ATOM     31  C   UNL     1       5.416  -0.923   2.213  0.00  0.00    +0.182 C 
BRANCH  31  32
ATOM     32  C   UNL     1       6.337  -1.895   1.524  0.00  0.00    -0.026 A 
ATOM     33  C   UNL     1       6.196  -2.141   0.171  0.00  0.00    +0.005 A 
ATOM     34  C   UNL     1       7.044  -3.030  -0.463  0.00  0.00    +0.000 A 
ATOM     35  C   UNL     1       8.027  -3.680   0.259  0.00  0.00    +0.000 A 
ATOM     36  C   UNL     1       8.166  -3.439   1.613  0.00  0.00    +0.000 A 
ATOM     37  C   UNL     1       7.321  -2.546   2.245  0.00  0.00    +0.005 A 
ENDBRANCH  31  32
ENDBRANCH  30  31
ENDBRANCH   1  26
TORSDOF 6
