REMARK  Name = ZINC39659888
REMARK  6 active torsions:
REMARK  status: ('A' for Active; 'I' for Inactive)
REMARK    1  A    between atoms: C_1  and  C_2
REMARK    2  A    between atoms: C_4  and  C_7
REMARK    3  A    between atoms: C_8  and  C_13
REMARK    4  A    between atoms: C_9  and  C_12
REMARK    5  A    between atoms: C_17  and  C_26
REMARK    6  A    between atoms: N_28  and  C_29
REMARK                            x       y       z     vdW  Elec       q    Type
REMARK                         _______ _______ _______ _____ _____    ______ ____
ROOT
ATOM      1  C   UNL     1       1.002  -5.005   0.268  0.00  0.00    +0.252 C 
ATOM      2  O   UNL     1      -0.117  -4.581   0.488  0.00  0.00    -0.270 OA
ATOM      3  N   UNL     1       1.383  -5.275  -0.996  0.00  0.00    -0.296 N 
ATOM      4  C   UNL     1       0.559  -5.213  -2.226  0.00  0.00    +0.121 C 
ATOM      5  C   UNL     1       1.502  -4.622  -3.298  0.00  0.00    +0.100 C 
ATOM      6  C   UNL     1       2.919  -4.947  -2.797  0.00  0.00    -0.004 C 
ATOM      7  C   UNL     1       2.723  -5.696  -1.471  0.00  0.00    +0.115 C 
ATOM      8  C   UNL     1       3.644  -5.835  -3.804  0.00  0.00    -0.010 C 
ATOM      9  C   UNL     1       5.070  -6.098  -3.312  0.00  0.00    -0.082 C 
ATOM     10  N   UNL     1       5.778  -4.822  -3.156  0.00  0.00    +0.379 N 
ATOM     11  C   UNL     1       5.128  -4.012  -2.118  0.00  0.00    -0.082 C 
ATOM     12  C   UNL     1       3.704  -3.661  -2.560  0.00  0.00    -0.010 C 
ATOM     13  H   UNL     1       6.735  -5.000  -2.890  0.00  0.00    -0.086 HD
ATOM     14  H   UNL     1       5.763  -4.320  -4.031  0.00  0.00    -0.086 HD
ENDROOT
BRANCH   1  16
ATOM     15  C   UNL     1       2.160  -6.417   2.052  0.00  0.00    +0.201 A 
ATOM     16  C   UNL     1       1.940  -5.221   1.382  0.00  0.00    +0.108 A 
ATOM     17  C   UNL     1       2.787  -4.248   1.969  0.00  0.00    +0.093 A 
ATOM     18  N   UNL     1       3.463  -4.820   2.920  0.00  0.00    -0.082 NA
ATOM     19  O   UNL     1       3.084  -6.181   2.997  0.00  0.00    -0.352 OA
ATOM     20  C   UNL     1       2.886  -2.801   1.561  0.00  0.00    +0.070 C 
BRANCH  15  24
ATOM     21  C   UNL     1       0.755 -11.278   2.429  0.00  0.00    +0.089 C 
ATOM     22  C   UNL     1       0.886  -9.852   1.960  0.00  0.00    +0.135 A 
ATOM     23  C   UNL     1       1.658  -8.905   2.521  0.00  0.00    +0.079 A 
ATOM     24  C   UNL     1       1.495  -7.709   1.779  0.00  0.00    +0.152 A 
ATOM     25  N   UNL     1       0.648  -7.953   0.807  0.00  0.00    -0.075 NA
ATOM     26  O   UNL     1       0.256  -9.311   0.905  0.00  0.00    -0.359 OA
ENDBRANCH  15  24
ENDBRANCH   1  16
BRANCH   5  27
ATOM     27  C   UNL     1       1.309  -3.130  -3.401  0.00  0.00    +0.218 C 
ATOM     28  O   UNL     1       0.966  -2.495  -2.427  0.00  0.00    -0.275 OA
ATOM     29  N   UNL     1       1.517  -2.503  -4.576  0.00  0.00    -0.312 N 
ATOM     30  H   UNL     1       1.721  -3.019  -5.372  0.00  0.00    +0.149 HD
BRANCH  29  31
ATOM     31  C   UNL     1       1.436  -1.043  -4.651  0.00  0.00    +0.073 C 
ATOM     32  C   UNL     1      -0.017  -0.624  -4.887  0.00  0.00    +0.022 C 
ATOM     33  C   UNL     1      -0.175   0.865  -4.574  0.00  0.00    +0.002 C 
ATOM     34  C   UNL     1       0.559   1.194  -3.273  0.00  0.00    +0.000 C 
ATOM     35  C   UNL     1       1.751   2.104  -3.576  0.00  0.00    +0.000 C 
ATOM     36  C   UNL     1       2.881   1.276  -4.192  0.00  0.00    +0.000 C 
ATOM     37  C   UNL     1       2.544   0.961  -5.651  0.00  0.00    +0.002 C 
ATOM     38  C   UNL     1       2.305  -0.542  -5.807  0.00  0.00    +0.022 C 
ENDBRANCH  29  31
ENDBRANCH   5  27
TORSDOF 4
