REMARK  Name = ZINC42146715
REMARK  10 active torsions:
REMARK  status: ('A' for Active; 'I' for Inactive)
REMARK    1  A    between atoms: C_1  and  C_2
REMARK    2  A    between atoms: C_2  and  C_3
REMARK    3  A    between atoms: C_6  and  C_9
REMARK    4  A    between atoms: C_9  and  N_10
REMARK    5  A    between atoms: N_10  and  C_11
REMARK    6  A    between atoms: N_10  and  C_28
REMARK    7  A    between atoms: C_11  and  C_12
REMARK    8  A    between atoms: N_14  and  C_15
REMARK    9  A    between atoms: C_18  and  C_24
REMARK   10  A    between atoms: C_25  and  C_27
REMARK                            x       y       z     vdW  Elec       q    Type
REMARK                         _______ _______ _______ _____ _____    ______ ____
ROOT
ATOM      1  C   UNL     1       4.386  -0.191   7.466  0.00  0.00    +0.203 C 
ATOM      2  O   UNL     1       4.124   0.965   7.209  0.00  0.00    -0.277 OA
ATOM      3  N   UNL     1       5.099  -0.491   8.569  0.00  0.00    -0.257 N 
ATOM      4  H   UNL     1       5.309  -1.416   8.774  0.00  0.00    +0.158 HD
ENDROOT
BRANCH   3   5
ATOM      5  C   UNL     1       5.533   0.520   9.410  0.00  0.00    +0.206 A 
ATOM      6  C   UNL     1       6.269   0.353  10.558  0.00  0.00    +0.110 A 
ATOM      7  C   UNL     1       6.481   1.719  11.097  0.00  0.00    +0.053 A 
ATOM      8  C   UNL     1       7.248   1.850  12.339  0.00  0.00    +0.070 A 
ATOM      9  N   UNL     1       7.713   0.788  12.923  0.00  0.00    -0.175 NA
ATOM     10  N   UNL     1       7.527  -0.503  12.436  0.00  0.00    -0.242 N 
ATOM     11  H   UNL     1       7.906  -1.246  12.931  0.00  0.00    +0.192 HD
ATOM     12  C   UNL     1       6.840  -0.764  11.303  0.00  0.00    +0.277 A 
ATOM     13  O   UNL     1       6.700  -1.909  10.912  0.00  0.00    -0.266 OA
ATOM     14  C   UNL     1       7.497   3.212  12.935  0.00  0.00    +0.068 C 
ATOM     15  C   UNL     1       5.863   2.554  10.235  0.00  0.00    +0.114 A 
ATOM     16  O   UNL     1       5.313   1.833   9.241  0.00  0.00    -0.445 OA
ATOM     17  C   UNL     1       5.804   4.054  10.362  0.00  0.00    +0.087 C 
ENDBRANCH   3   5
BRANCH   1  18
ATOM     18  C   UNL     1       3.914  -1.291   6.551  0.00  0.00    +0.020 C 
BRANCH  18  19
ATOM     19  N   UNL     1       3.164  -0.708   5.430  0.00  0.00    +0.390 N 
ATOM     20  H   UNL     1       2.416  -0.134   5.788  0.00  0.00    -0.080 HD
BRANCH  19  21
ATOM     21  C   UNL     1       4.066   0.115   4.614  0.00  0.00    -0.068 C 
ATOM     22  C   UNL     1       3.771   1.614   4.529  0.00  0.00    -0.017 C 
ATOM     23  C   UNL     1       3.503   0.712   3.322  0.00  0.00    -0.017 C 
ENDBRANCH  19  21
BRANCH  19  24
ATOM     24  C   UNL     1       2.603  -1.785   4.604  0.00  0.00    -0.042 C 
BRANCH  24  28
ATOM     25  C   UNL     1      -0.327  -3.929   6.855  0.00  0.00    -0.048 A 
ATOM     26  C   UNL     1      -0.679  -2.771   6.189  0.00  0.00    +0.004 A 
ATOM     27  C   UNL     1       0.269  -2.077   5.460  0.00  0.00    +0.002 A 
ATOM     28  C   UNL     1       1.569  -2.541   5.399  0.00  0.00    -0.064 A 
ATOM     29  C   UNL     1       1.922  -3.699   6.066  0.00  0.00    +0.002 A 
ATOM     30  C   UNL     1       0.975  -4.391   6.798  0.00  0.00    +0.004 A 
BRANCH  25  32
ATOM     31  C   UNL     1      -1.382  -4.163   9.087  0.00  0.00    +0.009 C 
ATOM     32  C   UNL     1      -1.360  -4.686   7.649  0.00  0.00    +0.032 C 
ENDBRANCH  25  32
ENDBRANCH  24  28
ENDBRANCH  19  24
ENDBRANCH  18  19
ENDBRANCH   1  18
TORSDOF 7
