REMARK  Name = ZINC32858390
REMARK  10 active torsions:
REMARK  status: ('A' for Active; 'I' for Inactive)
REMARK    1  A    between atoms: C_1  and  C_2
REMARK    2  A    between atoms: C_2  and  C_3
REMARK    3  A    between atoms: C_3  and  O_4
REMARK    4  A    between atoms: O_4  and  C_5
REMARK    5  A    between atoms: C_10  and  N_11
REMARK    6  A    between atoms: C_12  and  C_14
REMARK    7  A    between atoms: C_14  and  N_15
REMARK    8  A    between atoms: C_16  and  C_31
REMARK    9  A    between atoms: C_26  and  C_30
REMARK   10  A    between atoms: C_31  and  N_32
REMARK                            x       y       z     vdW  Elec       q    Type
REMARK                         _______ _______ _______ _____ _____    ______ ____
ROOT
ATOM      1  N   UNL     1       2.313  -0.024  -0.020  0.00  0.00    -0.289 N 
ATOM      2  C   UNL     1       1.123  -0.677  -0.021  0.00  0.00    +0.097 A 
ATOM      3  N   UNL     1      -0.007  -0.023  -0.006  0.00  0.00    -0.228 NA
ATOM      4  C   UNL     1      -0.027   1.307   0.010  0.00  0.00    +0.116 A 
ATOM      5  C   UNL     1       1.151   2.069   0.013  0.00  0.00    +0.076 A 
ATOM      6  C   UNL     1       2.374   1.321  -0.003  0.00  0.00    +0.263 A 
ATOM      7  O   UNL     1       3.451   1.893  -0.002  0.00  0.00    -0.267 OA
ATOM      8  C   UNL     1       0.975   3.520   0.031  0.00  0.00    -0.023 A 
ATOM      9  C   UNL     1      -0.293   3.983   0.044  0.00  0.00    -0.004 A 
ATOM     10  S   UNL     1      -1.311   2.532   0.025  0.00  0.00    -0.073 S 
ATOM     11  C   UNL     1      -0.737   5.414   0.064  0.00  0.00    +0.046 C 
ATOM     12  C   UNL     1       0.467   6.289   0.443  0.00  0.00    -0.009 C 
ATOM     13  C   UNL     1       1.669   5.866  -0.406  0.00  0.00    +0.008 C 
ATOM     14  C   UNL     1       2.157   4.486   0.036  0.00  0.00    +0.037 C 
ATOM     15  C   UNL     1       0.141   7.760   0.173  0.00  0.00    +0.008 C 
ENDROOT
BRANCH   1  16
ATOM     16  C   UNL     1       3.557  -0.798  -0.037  0.00  0.00    +0.222 C 
BRANCH  16  18
ATOM     17  N   UNL     1       5.099  -1.743  -1.724  0.00  0.00    -0.281 N 
ATOM     18  C   UNL     1       3.975  -1.046  -1.463  0.00  0.00    +0.237 C 
ATOM     19  O   UNL     1       3.301  -0.618  -2.376  0.00  0.00    -0.274 OA
ATOM     20  H   UNL     1       5.758  -2.053  -0.900  0.00  0.00    +0.155 HD
BRANCH  17  26
ATOM     21  C   UNL     1       6.753  -2.316  -3.397  0.00  0.00    +0.142 A 
ATOM     22  C   UNL     1       7.072  -2.643  -4.705  0.00  0.00    +0.047 A 
ATOM     23  C   UNL     1       6.074  -2.727  -5.659  0.00  0.00    +0.004 A 
ATOM     24  C   UNL     1       4.758  -2.487  -5.311  0.00  0.00    +0.002 A 
ATOM     25  C   UNL     1       4.431  -2.166  -4.007  0.00  0.00    +0.027 A 
ATOM     26  C   UNL     1       5.427  -2.074  -3.046  0.00  0.00    +0.076 A 
BRANCH  21  27
ATOM     27  O   UNL     1       7.733  -2.233  -2.457  0.00  0.00    -0.490 OA
BRANCH  27  28
ATOM     28  C   UNL     1       9.069  -2.494  -2.889  0.00  0.00    +0.229 C 
BRANCH  28  30
ATOM     29  C   UNL     1      11.457  -2.634  -2.165  0.00  0.00    +0.007 C 
ATOM     30  C   UNL     1      10.025  -2.354  -1.702  0.00  0.00    +0.038 C 
ENDBRANCH  28  30
ENDBRANCH  27  28
ENDBRANCH  21  27
ENDBRANCH  17  26
ENDBRANCH  16  18
ENDBRANCH   1  16
BRANCH   2  31
ATOM     31  C   UNL     1       1.106  -2.184  -0.039  0.00  0.00    -0.003 C 
BRANCH  31  32
ATOM     32  N   UNL     1      -0.284  -2.658  -0.037  0.00  0.00    +0.384 N 
ATOM     33  C   UNL     1      -1.066  -2.020  -1.126  0.00  0.00    -0.078 C 
ATOM     34  C   UNL     1      -2.269  -2.979  -1.308  0.00  0.00    -0.020 C 
ATOM     35  C   UNL     1      -1.634  -4.373  -1.101  0.00  0.00    -0.020 C 
ATOM     36  C   UNL     1      -0.348  -4.113  -0.294  0.00  0.00    -0.078 C 
ATOM     37  H   UNL     1      -0.684  -2.406   0.956  0.00  0.00    -0.081 HD
ENDBRANCH  31  32
ENDBRANCH   2  31
TORSDOF 8
