REMARK  Name = ZINC20716997
REMARK  7 active torsions:
REMARK  status: ('A' for Active; 'I' for Inactive)
REMARK    1  A    between atoms: C_1  and  C_2
REMARK    2  A    between atoms: C_6  and  C_8
REMARK    3  A    between atoms: C_19  and  C_24
REMARK    4  A    between atoms: N_26  and  C_27
REMARK    5  A    between atoms: C_27  and  C_28
REMARK    6  A    between atoms: C_27  and  C_29
REMARK    7  A    between atoms: C_27  and  C_30
REMARK                            x       y       z     vdW  Elec       q    Type
REMARK                         _______ _______ _______ _____ _____    ______ ____
ROOT
ATOM      1  C   UNL     1      -2.514   0.980   0.019  0.00  0.00    +0.105 C 
ATOM      2  C   UNL     1      -3.159   1.036  -1.353  0.00  0.00    +0.029 C 
ATOM      3  C   UNL     1      -2.299   0.612  -2.551  0.00  0.00    +0.033 C 
ATOM      4  C   UNL     1      -2.900   1.456  -3.676  0.00  0.00    -0.030 C 
ATOM      5  C   UNL     1      -3.462   2.549  -3.174  0.00  0.00    -0.023 C 
ATOM      6  C   UNL     1      -3.261   2.551  -1.702  0.00  0.00    +0.049 C 
ATOM      7  C   UNL     1      -4.241   3.163  -0.779  0.00  0.00    -0.019 A 
ATOM      8  C   UNL     1      -5.080   4.180  -1.166  0.00  0.00    +0.019 A 
ATOM      9  C   UNL     1      -5.979   4.736  -0.252  0.00  0.00    +0.037 A 
ATOM     10  C   UNL     1      -6.020   4.253   1.060  0.00  0.00    +0.015 A 
ATOM     11  C   UNL     1      -5.184   3.232   1.442  0.00  0.00    +0.024 A 
ATOM     12  C   UNL     1      -4.291   2.669   0.533  0.00  0.00    +0.031 A 
ATOM     13  N   UNL     1      -3.482   1.610   0.942  0.00  0.00    -0.336 N 
ATOM     14  H   UNL     1      -3.575   1.244   1.976  0.00  0.00    +0.147 HD
ENDROOT
BRANCH   1  20
ATOM     15  C   UNL     1       2.435   1.137  -0.705  0.00  0.00    +0.044 C 
ATOM     16  C   UNL     1       1.149   1.826  -0.329  0.00  0.00    -0.050 A 
ATOM     17  C   UNL     1       1.155   3.167   0.008  0.00  0.00    +0.003 A 
ATOM     18  C   UNL     1      -0.025   3.799   0.352  0.00  0.00    +0.001 A 
ATOM     19  C   UNL     1      -1.212   3.090   0.360  0.00  0.00    +0.005 A 
ATOM     20  C   UNL     1      -1.219   1.751   0.017  0.00  0.00    -0.027 A 
ATOM     21  C   UNL     1      -0.038   1.117  -0.322  0.00  0.00    +0.008 A 
ENDBRANCH   1  20
BRANCH   9  22
ATOM     22  C   UNL     1      -6.880   5.827  -0.668  0.00  0.00    +0.244 C 
ATOM     23  O   UNL     1      -6.842   6.245  -1.810  0.00  0.00    -0.270 OA
ATOM     24  N   UNL     1      -7.746   6.361   0.216  0.00  0.00    -0.307 N 
ATOM     25  H   UNL     1      -7.780   5.983   1.249  0.00  0.00    +0.150 HD
BRANCH  24  26
ATOM     26  C   UNL     1      -8.640   7.445  -0.198  0.00  0.00    +0.026 C 
ATOM     27  C   UNL     1      -9.533   6.961  -1.342  0.00  0.00    +0.031 C 
ATOM     28  C   UNL     1      -9.513   7.866   0.987  0.00  0.00    +0.031 C 
ATOM     29  C   UNL     1      -7.810   8.640  -0.669  0.00  0.00    +0.031 C 
ENDBRANCH  24  26
ENDBRANCH   9  22
TORSDOF 3
