REMARK  Name = ZINC39550091
REMARK  11 active torsions:
REMARK  status: ('A' for Active; 'I' for Inactive)
REMARK    1  A    between atoms: C_1  and  C_2
REMARK    2  A    between atoms: C_4  and  C_39
REMARK    3  A    between atoms: C_5  and  C_9
REMARK    4  A    between atoms: C_7  and  C_8
REMARK    5  A    between atoms: C_11  and  N_20
REMARK    6  A    between atoms: N_12  and  C_14
REMARK    7  A    between atoms: C_21  and  C_23
REMARK    8  A    between atoms: C_23  and  O_24
REMARK    9  A    between atoms: O_24  and  C_25
REMARK   10  A    between atoms: C_25  and  C_27
REMARK   11  A    between atoms: C_30  and  N_33
REMARK                            x       y       z     vdW  Elec       q    Type
REMARK                         _______ _______ _______ _____ _____    ______ ____
ROOT
ATOM      1  C   UNL     1      -0.019  -4.258  -0.021  0.00  0.00    +0.095 A 
ATOM      2  C   UNL     1       0.006  -5.089   1.114  0.00  0.00    +0.074 A 
ATOM      3  C   UNL     1       0.039  -6.378   0.685  0.00  0.00    +0.129 A 
ATOM      4  N   UNL     1       0.034  -6.361  -0.676  0.00  0.00    -0.218 N 
ATOM      5  N   UNL     1      -0.008  -5.024  -1.092  0.00  0.00    -0.165 NA
ENDROOT
BRANCH   1  10
ATOM      6  C   UNL     1      -0.170   1.500   0.011  0.00  0.00    +0.044 C 
ATOM      7  C   UNL     1      -0.131  -0.007   0.002  0.00  0.00    -0.047 A 
ATOM      8  C   UNL     1      -0.122  -0.689  -1.201  0.00  0.00    +0.007 A 
ATOM      9  C   UNL     1      -0.086  -2.069  -1.215  0.00  0.00    -0.041 A 
ATOM     10  C   UNL     1      -0.058  -2.774  -0.013  0.00  0.00    +0.005 A 
ATOM     11  C   UNL     1      -0.067  -2.082   1.196  0.00  0.00    +0.014 A 
ATOM     12  C   UNL     1      -0.098  -0.702   1.198  0.00  0.00    -0.047 A 
ATOM     13  C   UNL     1      -0.101   0.049   2.504  0.00  0.00    +0.044 C 
ATOM     14  C   UNL     1      -0.077  -2.811  -2.526  0.00  0.00    +0.044 C 
ENDBRANCH   1  10
BRANCH   4  15
ATOM     15  C   UNL     1       0.061  -7.483  -1.514  0.00  0.00    +0.067 A 
ATOM     16  C   UNL     1       0.776  -8.613  -1.141  0.00  0.00    +0.028 A 
ATOM     17  C   UNL     1       0.800  -9.718  -1.969  0.00  0.00    +0.002 A 
ATOM     18  C   UNL     1       0.114  -9.700  -3.169  0.00  0.00    +0.000 A 
ATOM     19  C   UNL     1      -0.600  -8.576  -3.543  0.00  0.00    +0.002 A 
ATOM     20  C   UNL     1      -0.632  -7.470  -2.717  0.00  0.00    +0.028 A 
ENDBRANCH   4  15
BRANCH   3  21
ATOM     21  N   UNL     1       0.071  -7.514   1.494  0.00  0.00    -0.267 N 
ATOM     22  C   UNL     1       0.071  -7.386   2.836  0.00  0.00    +0.256 C 
ATOM     23  O   UNL     1       0.043  -6.283   3.340  0.00  0.00    -0.272 OA
ATOM     24  H   UNL     1       0.093  -8.396   1.091  0.00  0.00    +0.156 HD
BRANCH  22  25
ATOM     25  C   UNL     1       0.106  -8.613   3.709  0.00  0.00    +0.328 C 
BRANCH  25  26
ATOM     26  O   UNL     1       0.099  -8.220   5.083  0.00  0.00    -0.452 OA
BRANCH  26  27
ATOM     27  C   UNL     1       0.127  -9.206   6.002  0.00  0.00    +0.340 C 
ATOM     28  O   UNL     1       0.157 -10.367   5.646  0.00  0.00    -0.245 OA
BRANCH  27  29
ATOM     29  C   UNL     1       0.122  -8.875   7.439  0.00  0.00    +0.059 A 
ATOM     30  C   UNL     1       0.082  -7.540   7.850  0.00  0.00    +0.017 A 
ATOM     31  C   UNL     1       0.077  -7.235   9.192  0.00  0.00    +0.024 A 
ATOM     32  C   UNL     1       0.113  -8.254  10.139  0.00  0.00    +0.036 A 
ATOM     33  C   UNL     1       0.153  -9.584   9.733  0.00  0.00    +0.024 A 
ATOM     34  C   UNL     1       0.152  -9.897   8.393  0.00  0.00    +0.017 A 
BRANCH  32  35
ATOM     35  N   UNL     1       0.108  -7.941  11.498  0.00  0.00    -0.271 N 
ATOM     36  C   UNL     1       0.028  -8.934  12.576  0.00  0.00    +0.114 C 
ATOM     37  C   UNL     1       0.487  -8.194  13.852  0.00  0.00    +0.029 C 
ATOM     38  C   UNL     1       0.158  -6.725  13.501  0.00  0.00    +0.098 C 
ATOM     39  C   UNL     1       0.182  -6.692  11.989  0.00  0.00    +0.220 C 
ATOM     40  O   UNL     1       0.255  -5.685  11.317  0.00  0.00    -0.275 OA
ENDBRANCH  32  35
ENDBRANCH  27  29
ENDBRANCH  26  27
ENDBRANCH  25  26
ENDBRANCH  22  25
ENDBRANCH   3  21
TORSDOF 8
