REMARK  Name = ZINC09347366
REMARK  11 active torsions:
REMARK  status: ('A' for Active; 'I' for Inactive)
REMARK    1  A    between atoms: C_1  and  C_2
REMARK    2  A    between atoms: C_2  and  O_3
REMARK    3  A    between atoms: O_3  and  C_4
REMARK    4  A    between atoms: C_4  and  C_6
REMARK    5  A    between atoms: C_10  and  N_11
REMARK    6  A    between atoms: C_12  and  C_14
REMARK    7  A    between atoms: C_14  and  C_16
REMARK    8  A    between atoms: C_14  and  S_17
REMARK    9  A    between atoms: S_17  and  C_18
REMARK   10  A    between atoms: C_24  and  C_26
REMARK   11  A    between atoms: C_30  and  C_32
REMARK                            x       y       z     vdW  Elec       q    Type
REMARK                         _______ _______ _______ _____ _____    ______ ____
ROOT
ATOM      1  C   UNL     1       0.289  12.633   0.064  0.00  0.00    +0.136 C 
ATOM      2  C   UNL     1      -0.467  12.358  -1.238  0.00  0.00    +0.029 C 
ENDROOT
BRANCH   1   4
ATOM      3  N   UNL     1      -0.398  14.916   0.723  0.00  0.00    -0.278 N 
ATOM      4  C   UNL     1       0.545  14.112   0.193  0.00  0.00    +0.231 C 
ATOM      5  O   UNL     1       1.600  14.580  -0.180  0.00  0.00    -0.274 OA
ATOM      6  H   UNL     1      -1.242  14.542   1.021  0.00  0.00    +0.155 HD
BRANCH   3  11
ATOM      7  C   UNL     1      -1.003  17.254   1.349  0.00  0.00    +0.091 A 
ATOM      8  C   UNL     1      -0.506  18.631   1.365  0.00  0.00    -0.021 A 
ATOM      9  C   UNL     1       0.732  18.797   0.867  0.00  0.00    -0.004 A 
ATOM     10  S   UNL     1       1.249  17.168   0.385  0.00  0.00    -0.077 S 
ATOM     11  C   UNL     1      -0.163  16.276   0.842  0.00  0.00    +0.086 A 
ATOM     12  C   UNL     1       1.170  20.236   0.915  0.00  0.00    +0.043 C 
ATOM     13  C   UNL     1       0.202  20.905   1.915  0.00  0.00    +0.010 C 
ATOM     14  C   UNL     1      -1.038  19.994   1.809  0.00  0.00    +0.037 C 
BRANCH   7  15
ATOM     15  C   UNL     1      -2.336  16.922   1.854  0.00  0.00    +0.342 C 
ATOM     16  O   UNL     1      -2.488  16.631   3.026  0.00  0.00    -0.245 OA
BRANCH  15  17
ATOM     17  O   UNL     1      -3.397  16.939   1.021  0.00  0.00    -0.461 OA
BRANCH  17  19
ATOM     18  C   UNL     1      -5.761  16.672   0.502  0.00  0.00    +0.048 C 
ATOM     19  C   UNL     1      -4.688  16.599   1.590  0.00  0.00    +0.229 C 
ENDBRANCH  17  19
ENDBRANCH  15  17
ENDBRANCH   7  15
ENDBRANCH   3  11
ENDBRANCH   1   4
BRANCH   1  20
ATOM     20  S   UNL     1       1.871  11.745   0.043  0.00  0.00    -0.084 S 
BRANCH  20  21
ATOM     21  C   UNL     1       1.406  10.046   0.039  0.00  0.00    +0.161 A 
ATOM     22  N   UNL     1       0.202   9.492   0.048  0.00  0.00    -0.133 NA
ATOM     23  N   UNL     1       0.044   8.240   0.043  0.00  0.00    -0.125 NA
ATOM     24  C   UNL     1       1.069   7.404   0.028  0.00  0.00    +0.189 A 
ATOM     25  S   UNL     1       2.425   8.573   0.028  0.00  0.00    -0.024 S 
ATOM     26  N   UNL     1       1.088   6.012   0.022  0.00  0.00    -0.259 N 
ATOM     27  C   UNL     1      -0.070   5.323   0.029  0.00  0.00    +0.250 C 
ATOM     28  O   UNL     1      -1.131   5.916   0.042  0.00  0.00    -0.270 OA
ATOM     29  H   UNL     1       1.934   5.539   0.011  0.00  0.00    +0.157 HD
BRANCH  27  30
ATOM     30  C   UNL     1      -0.050   3.845   0.022  0.00  0.00    +0.037 A 
ATOM     31  C   UNL     1       1.167   3.160   0.007  0.00  0.00    +0.013 A 
ATOM     32  C   UNL     1       1.178   1.781   0.000  0.00  0.00    +0.001 A 
ATOM     33  C   UNL     1      -0.013   1.076   0.008  0.00  0.00    +0.003 A 
ATOM     34  C   UNL     1      -1.222   1.748   0.017  0.00  0.00    -0.050 A 
ATOM     35  C   UNL     1      -1.247   3.127   0.030  0.00  0.00    +0.016 A 
ATOM     36  C   UNL     1      -2.513   0.972   0.019  0.00  0.00    +0.044 C 
ENDBRANCH  27  30
ENDBRANCH  20  21
ENDBRANCH   1  20
TORSDOF 8
