REMARK  Name = ZINC59117880
REMARK  4 active torsions:
REMARK  status: ('A' for Active; 'I' for Inactive)
REMARK    1  A    between atoms: C_3  and  N_9
REMARK    2  A    between atoms: C_11  and  C_16
REMARK    3  A    between atoms: N_18  and  C_19
REMARK    4  A    between atoms: C_19  and  C_20
REMARK                            x       y       z     vdW  Elec       q    Type
REMARK                         _______ _______ _______ _____ _____    ______ ____
ROOT
ATOM      1  C   UNL     1       6.445   3.795  -1.773  0.00  0.00    +0.218 C 
ATOM      2  O   UNL     1       6.631   2.837  -2.493  0.00  0.00    -0.275 OA
ATOM      3  N   UNL     1       7.463   4.631  -1.488  0.00  0.00    -0.311 N 
ATOM      4  H   UNL     1       7.314   5.398  -0.912  0.00  0.00    +0.149 HD
ENDROOT
BRANCH   1   7
ATOM      5  N   UNL     1       3.190   2.741  -0.505  0.00  0.00    -0.268 N 
ATOM      6  C   UNL     1       4.073   2.970  -1.655  0.00  0.00    +0.127 C 
ATOM      7  C   UNL     1       5.076   4.051  -1.196  0.00  0.00    +0.101 C 
ATOM      8  C   UNL     1       5.075   3.851   0.337  0.00  0.00    +0.110 C 
ATOM      9  C   UNL     1       3.728   3.226   0.627  0.00  0.00    +0.221 C 
ATOM     10  O   UNL     1       3.210   3.169   1.722  0.00  0.00    -0.275 OA
BRANCH   5  13
ATOM     11  C   UNL     1      -0.431   2.217  -0.890  0.00  0.00    +0.040 A 
ATOM     12  C   UNL     1       0.797   2.847  -0.817  0.00  0.00    +0.029 A 
ATOM     13  C   UNL     1       1.944   2.104  -0.579  0.00  0.00    +0.072 A 
ATOM     14  C   UNL     1       1.856   0.726  -0.413  0.00  0.00    +0.147 A 
ATOM     15  C   UNL     1       0.625   0.100  -0.487  0.00  0.00    +0.078 A 
ATOM     16  C   UNL     1      -0.518   0.845  -0.725  0.00  0.00    +0.126 A 
ATOM     17  F   UNL     1      -1.720   0.232  -0.796  0.00  0.00    -0.205 F 
ATOM     18  F   UNL     1       2.971  -0.001  -0.182  0.00  0.00    -0.203 F 
ENDBRANCH   5  13
ENDBRANCH   1   7
BRANCH   3  19
ATOM     19  C   UNL     1       8.793   4.383  -2.049  0.00  0.00    +0.141 C 
BRANCH  19  20
ATOM     20  C   UNL     1       9.744   5.455  -1.581  0.00  0.00    -0.014 A 
ATOM     21  C   UNL     1       9.903   6.622  -2.317  0.00  0.00    +0.010 A 
ATOM     22  C   UNL     1      10.785   7.580  -1.852  0.00  0.00    +0.042 A 
ATOM     23  C   UNL     1      11.479   7.345  -0.670  0.00  0.00    +0.099 A 
ATOM     24  N   UNL     1      11.300   6.219   0.004  0.00  0.00    -0.349 N 
ATOM     25  C   UNL     1      10.461   5.290  -0.413  0.00  0.00    +0.089 A 
ATOM     26  N   UNL     1      12.369   8.299  -0.192  0.00  0.00    -0.317 N 
ATOM     27  C   UNL     1      12.440   9.579  -0.862  0.00  0.00    +0.106 C 
ATOM     28  C   UNL     1      13.487   9.511  -2.001  0.00  0.00    +0.019 C 
ATOM     29  C   UNL     1      14.846   9.451  -1.442  0.00  0.00    +0.002 C 
ATOM     30  C   UNL     1      15.125   8.211  -0.599  0.00  0.00    +0.002 C 
ATOM     31  C   UNL     1      14.655   8.450   0.815  0.00  0.00    +0.019 C 
ATOM     32  C   UNL     1      13.199   7.967   0.983  0.00  0.00    +0.106 C 
ATOM     33  H   UNL     1      11.795   6.075   0.825  0.00  0.00    +0.167 HD
ENDBRANCH  19  20
ENDBRANCH   3  19
TORSDOF 4
