REMARK  Name = ZINC39325536
REMARK  10 active torsions:
REMARK  status: ('A' for Active; 'I' for Inactive)
REMARK    1  A    between atoms: C_1  and  C_2
REMARK    2  A    between atoms: C_2  and  O_3
REMARK    3  A    between atoms: O_3  and  C_4
REMARK    4  A    between atoms: C_11  and  C_16
REMARK    5  A    between atoms: C_16  and  N_17
REMARK    6  A    between atoms: N_17  and  C_18
REMARK    7  A    between atoms: N_17  and  S_21
REMARK    8  A    between atoms: C_18  and  C_19
REMARK    9  A    between atoms: C_19  and  O_20
REMARK   10  A    between atoms: S_21  and  C_24
REMARK                            x       y       z     vdW  Elec       q    Type
REMARK                         _______ _______ _______ _____ _____    ______ ____
ROOT
ATOM      1  C   UNL     1       1.809  -6.535  -4.864  0.00  0.00    +0.126 C 
ENDROOT
BRANCH   1   9
ATOM      2  C   UNL     1       0.728  -3.471  -0.013  0.00  0.00    +0.121 A 
ATOM      3  C   UNL     1       0.130  -4.575   0.606  0.00  0.00    +0.047 A 
ATOM      4  C   UNL     1       0.223  -5.834   0.106  0.00  0.00    +0.027 A 
ATOM      5  C   UNL     1       0.941  -6.082  -1.079  0.00  0.00    +0.041 A 
ATOM      6  N   UNL     1       1.024  -7.323  -1.558  0.00  0.00    -0.284 N 
ATOM      7  C   UNL     1       1.681  -7.628  -2.664  0.00  0.00    +0.225 C 
ATOM      8  O   UNL     1       1.722  -8.780  -3.053  0.00  0.00    -0.275 OA
ATOM      9  C   UNL     1       2.382  -6.538  -3.445  0.00  0.00    +0.114 C 
ATOM     10  C   UNL     1       2.290  -5.125  -2.904  0.00  0.00    -0.003 C 
ATOM     11  C   UNL     1       1.582  -4.940  -1.754  0.00  0.00    -0.004 A 
ATOM     12  C   UNL     1       1.439  -3.607  -1.167  0.00  0.00    +0.055 A 
ATOM     13  H   UNL     1       0.582  -8.037  -1.072  0.00  0.00    +0.155 HD
BRANCH   2  14
ATOM     14  O   UNL     1       0.593  -2.239   0.545  0.00  0.00    -0.492 OA
BRANCH  14  16
ATOM     15  C   UNL     1      -0.205  -0.700   2.229  0.00  0.00    +0.048 C 
ATOM     16  C   UNL     1      -0.163  -2.154   1.755  0.00  0.00    +0.225 C 
ENDBRANCH  14  16
ENDBRANCH   2  14
ENDBRANCH   1   9
BRANCH   1  17
ATOM     17  N   UNL     1       2.128  -7.804  -5.522  0.00  0.00    -0.173 NA
BRANCH  17  18
ATOM     18  S   UNL     1       0.918  -8.871  -5.895  0.00  0.00    +0.062 S 
ATOM     19  O   UNL     1       1.479 -10.172  -5.799  0.00  0.00    -0.153 OA
ATOM     20  O   UNL     1      -0.220  -8.474  -5.142  0.00  0.00    -0.153 OA
BRANCH  18  21
ATOM     21  C   UNL     1       0.510  -8.622  -7.591  0.00  0.00    +0.124 A 
ATOM     22  C   UNL     1       0.780  -9.610  -8.520  0.00  0.00    +0.030 A 
ATOM     23  C   UNL     1       0.460  -9.415  -9.850  0.00  0.00    +0.002 A 
ATOM     24  C   UNL     1      -0.131  -8.232 -10.253  0.00  0.00    +0.002 A 
ATOM     25  C   UNL     1      -0.402  -7.244  -9.326  0.00  0.00    +0.022 A 
ATOM     26  C   UNL     1      -0.087  -7.440  -7.993  0.00  0.00    +0.067 A 
ATOM     27 CL   UNL     1      -0.433  -6.202  -6.827  0.00  0.00    -0.082 Cl
ENDBRANCH  18  21
ENDBRANCH  17  18
BRANCH  17  28
ATOM     28  C   UNL     1       3.518  -8.130  -5.849  0.00  0.00    +0.137 C 
BRANCH  28  29
ATOM     29  C   UNL     1       4.176  -8.822  -4.653  0.00  0.00    +0.173 C 
BRANCH  29  30
ATOM     30  O   UNL     1       3.552 -10.089  -4.434  0.00  0.00    -0.394 OA
ATOM     31  H   UNL     1       3.919 -10.584  -3.688  0.00  0.00    +0.209 HD
ENDBRANCH  29  30
ENDBRANCH  28  29
ENDBRANCH  17  28
ENDBRANCH   1  17
TORSDOF 9
