REMARK  Name = ZINC13023296
REMARK  10 active torsions:
REMARK  status: ('A' for Active; 'I' for Inactive)
REMARK    1  A    between atoms: C_1  and  C_2
REMARK    2  A    between atoms: C_2  and  C_3
REMARK    3  A    between atoms: C_10  and  C_15
REMARK    4  A    between atoms: C_15  and  C_17
REMARK    5  A    between atoms: C_15  and  N_72
REMARK    6  A    between atoms: N_21  and  C_22
REMARK    7  A    between atoms: C_22  and  C_23
REMARK    8  A    between atoms: N_30  and  C_33
REMARK    9  A    between atoms: C_35  and  C_40
REMARK   10  A    between atoms: C_38  and  C_39
REMARK                            x       y       z     vdW  Elec       q    Type
REMARK                         _______ _______ _______ _____ _____    ______ ____
ROOT
ATOM      1  C   UNL     1       6.159  -0.614  -0.059  0.00  0.00    +0.039 C 
ENDROOT
BRANCH   1   9
ATOM      2  C   UNL     1       1.378   2.713  -2.147  0.00  0.00    -0.047 A 
ATOM      3  C   UNL     1       0.619   2.639  -0.987  0.00  0.00    +0.005 A 
ATOM      4  C   UNL     1       1.083   1.954   0.115  0.00  0.00    +0.026 A 
ATOM      5  C   UNL     1       2.325   1.329   0.066  0.00  0.00    +0.049 A 
ATOM      6  C   UNL     1       3.091   1.405  -1.111  0.00  0.00    -0.001 A 
ATOM      7  C   UNL     1       2.600   2.107  -2.218  0.00  0.00    +0.013 A 
ATOM      8  C   UNL     1       4.397   0.744  -1.153  0.00  0.00    +0.017 A 
ATOM      9  C   UNL     1       4.821   0.078  -0.050  0.00  0.00    +0.011 A 
ATOM     10  C   UNL     1       4.013   0.031   1.107  0.00  0.00    +0.251 A 
ATOM     11  O   UNL     1       4.413  -0.572   2.087  0.00  0.00    -0.268 OA
ATOM     12  N   UNL     1       2.813   0.636   1.154  0.00  0.00    -0.322 N 
ATOM     13  H   UNL     1       2.283   0.584   1.964  0.00  0.00    +0.169 HD
BRANCH   2  15
ATOM     14  C   UNL     1       1.296   4.928  -3.258  0.00  0.00    +0.009 C 
ATOM     15  C   UNL     1       0.849   3.467  -3.340  0.00  0.00    +0.032 C 
ENDBRANCH   2  15
ENDBRANCH   1   9
BRANCH   1  21
ATOM     16  C   UNL     1       7.140   1.407   0.846  0.00  0.00    -0.058 C 
ATOM     17  C   UNL     1       7.965   1.966   2.008  0.00  0.00    +0.086 C 
ATOM     18  N   UNL     1       9.286   1.320   2.022  0.00  0.00    -0.333 N 
ATOM     19  C   UNL     1       9.155  -0.136   2.173  0.00  0.00    +0.086 C 
ATOM     20  C   UNL     1       8.330  -0.695   1.012  0.00  0.00    -0.058 C 
ATOM     21  N   UNL     1       6.998  -0.054   1.022  0.00  0.00    +0.391 N 
ATOM     22  H   UNL     1       6.546  -0.239   1.925  0.00  0.00    -0.080 HD
BRANCH  18  23
ATOM     23  C   UNL     1      10.094   1.857   3.027  0.00  0.00    +0.033 A 
ATOM     24  C   UNL     1       9.735   1.713   4.361  0.00  0.00    +0.026 A 
ATOM     25  C   UNL     1      10.537   2.245   5.351  0.00  0.00    -0.049 A 
ATOM     26  C   UNL     1      11.697   2.920   5.016  0.00  0.00    +0.004 A 
ATOM     27  C   UNL     1      12.057   3.065   3.689  0.00  0.00    +0.005 A 
ATOM     28  C   UNL     1      11.262   2.532   2.694  0.00  0.00    -0.029 A 
ATOM     29  C   UNL     1      11.659   2.685   1.248  0.00  0.00    +0.045 C 
ATOM     30  C   UNL     1      10.149   2.089   6.799  0.00  0.00    +0.044 C 
ENDBRANCH  18  23
ENDBRANCH   1  21
BRANCH   1  31
ATOM     31  C   UNL     1       6.820  -0.412  -1.398  0.00  0.00    +0.143 A 
ATOM     32  N   UNL     1       7.390   0.686  -1.831  0.00  0.00    -0.115 NA
ATOM     33  N   UNL     1       7.837   0.460  -3.019  0.00  0.00    -0.023 NA
ATOM     34  N   UNL     1       7.567  -0.753  -3.354  0.00  0.00    -0.044 NA
ATOM     35  N   UNL     1       6.945  -1.325  -2.379  0.00  0.00    -0.223 N 
BRANCH  35  36
ATOM     36  C   UNL     1       6.462  -2.708  -2.347  0.00  0.00    +0.221 C 
BRANCH  36  37
ATOM     37  C   UNL     1       5.056  -2.761  -2.885  0.00  0.00    +0.126 A 
ATOM     38  C   UNL     1       4.713  -2.944  -4.173  0.00  0.00    +0.046 A 
ATOM     39  C   UNL     1       3.300  -2.929  -4.227  0.00  0.00    +0.041 A 
ATOM     40  C   UNL     1       2.865  -2.730  -2.970  0.00  0.00    +0.195 A 
ATOM     41  O   UNL     1       3.932  -2.629  -2.162  0.00  0.00    -0.466 OA
ENDBRANCH  36  37
ENDBRANCH  35  36
ENDBRANCH   1  31
TORSDOF 7
