REMARK  Name = ZINC10002422
REMARK  11 active torsions:
REMARK  status: ('A' for Active; 'I' for Inactive)
REMARK    1  A    between atoms: C_1  and  C_2
REMARK    2  A    between atoms: C_2  and  C_3
REMARK    3  A    between atoms: C_2  and  C_4
REMARK    4  A    between atoms: C_4  and  C_6
REMARK    5  A    between atoms: C_4  and  N_24
REMARK    6  A    between atoms: C_9  and  S_12
REMARK    7  A    between atoms: N_10  and  C_11
REMARK    8  A    between atoms: S_12  and  C_13
REMARK    9  A    between atoms: C_13  and  C_14
REMARK   10  A    between atoms: N_16  and  C_17
REMARK   11  A    between atoms: C_25  and  C_27
REMARK                            x       y       z     vdW  Elec       q    Type
REMARK                         _______ _______ _______ _____ _____    ______ ____
ROOT
ATOM      1  C   UNL     1       3.645   3.131  -0.070  0.00  0.00    +0.155 A 
ATOM      2  N   UNL     1       3.811   1.838  -0.075  0.00  0.00    -0.132 NA
ATOM      3  N   UNL     1       2.671   1.246  -0.053  0.00  0.00    -0.122 NA
ATOM      4  C   UNL     1       1.706   2.137  -0.041  0.00  0.00    +0.192 A 
ATOM      5  N   UNL     1       2.298   3.367  -0.049  0.00  0.00    -0.308 N 
ATOM      6  C   UNL     1       1.629   4.670  -0.036  0.00  0.00    +0.152 C 
ENDROOT
BRANCH   1   7
ATOM      7  C   UNL     1       4.734   4.172  -0.086  0.00  0.00    +0.144 C 
BRANCH   7   8
ATOM      8  N   UNL     1       5.746   3.804  -1.080  0.00  0.00    -0.301 N 
ATOM      9  C   UNL     1       6.518   4.757  -1.640  0.00  0.00    +0.245 C 
ATOM     10  O   UNL     1       6.375   5.921  -1.320  0.00  0.00    -0.270 OA
ATOM     11  H   UNL     1       5.861   2.875  -1.335  0.00  0.00    +0.150 HD
BRANCH   9  12
ATOM     12  C   UNL     1       7.538   4.386  -2.641  0.00  0.00    +0.040 A 
ATOM     13  C   UNL     1       7.708   3.049  -3.005  0.00  0.00    +0.017 A 
ATOM     14  C   UNL     1       8.657   2.705  -3.943  0.00  0.00    +0.050 A 
ATOM     15  C   UNL     1       9.454   3.684  -4.521  0.00  0.00    +0.166 A 
ATOM     16  C   UNL     1       9.292   5.022  -4.158  0.00  0.00    +0.167 A 
ATOM     17  C   UNL     1       8.339   5.373  -3.222  0.00  0.00    +0.062 A 
ATOM     18  O   UNL     1      10.187   5.776  -4.862  0.00  0.00    -0.453 OA
ATOM     19  C   UNL     1      11.170   4.845  -5.353  0.00  0.00    +0.466 C 
ATOM     20  O   UNL     1      10.447   3.604  -5.452  0.00  0.00    -0.453 OA
ENDBRANCH   9  12
ENDBRANCH   7   8
BRANCH   7  22
ATOM     21  C   UNL     1       6.489   5.309   1.281  0.00  0.00    +0.009 C 
ATOM     22  C   UNL     1       5.383   4.252   1.297  0.00  0.00    +0.011 C 
ATOM     23  C   UNL     1       4.326   4.636   2.334  0.00  0.00    +0.009 C 
ENDBRANCH   7  22
ENDBRANCH   1   7
BRANCH   4  24
ATOM     24  S   UNL     1      -0.024   1.806  -0.013  0.00  0.00    -0.077 S 
BRANCH  24  25
ATOM     25  C   UNL     1       0.001  -0.003  -0.016  0.00  0.00    +0.173 C 
BRANCH  25  26
ATOM     26  C   UNL     1      -1.412  -0.526   0.006  0.00  0.00    +0.228 C 
ATOM     27  O   UNL     1      -2.345   0.250   0.023  0.00  0.00    -0.275 OA
ATOM     28  N   UNL     1      -1.640  -1.854   0.008  0.00  0.00    -0.284 N 
ATOM     29  H   UNL     1      -0.898  -2.473  -0.071  0.00  0.00    +0.155 HD
BRANCH  28  30
ATOM     30  C   UNL     1      -2.948  -2.340   0.123  0.00  0.00    +0.052 A 
ATOM     31  C   UNL     1      -4.002  -1.645  -0.454  0.00  0.00    +0.025 A 
ATOM     32  C   UNL     1      -5.290  -2.130  -0.343  0.00  0.00    +0.002 A 
ATOM     33  C   UNL     1      -5.533  -3.300   0.351  0.00  0.00    +0.002 A 
ATOM     34  C   UNL     1      -4.487  -3.993   0.933  0.00  0.00    +0.022 A 
ATOM     35  C   UNL     1      -3.194  -3.516   0.821  0.00  0.00    +0.062 A 
ATOM     36 CL   UNL     1      -1.881  -4.385   1.551  0.00  0.00    -0.082 Cl
ENDBRANCH  28  30
ENDBRANCH  25  26
ENDBRANCH  24  25
ENDBRANCH   4  24
TORSDOF 8
