REMARK  Name = ZINC15453310
REMARK  7 active torsions:
REMARK  status: ('A' for Active; 'I' for Inactive)
REMARK    1  A    between atoms: C_1  and  C_2
REMARK    2  A    between atoms: C_5  and  C_28
REMARK    3  A    between atoms: C_6  and  N_8
REMARK    4  A    between atoms: C_10  and  C_15
REMARK    5  A    between atoms: N_17  and  C_18
REMARK    6  A    between atoms: C_21  and  N_25
REMARK    7  A    between atoms: C_23  and  C_24
REMARK                            x       y       z     vdW  Elec       q    Type
REMARK                         _______ _______ _______ _____ _____    ______ ____
ROOT
ATOM      1  N   UNL     1       1.381   1.587   2.460  0.00  0.00    -0.270 N 
ATOM      2  C   UNL     1       2.019   0.312   2.808  0.00  0.00    +0.127 C 
ATOM      3  C   UNL     1       3.493   0.659   3.115  0.00  0.00    +0.102 C 
ATOM      4  C   UNL     1       3.690   1.953   2.292  0.00  0.00    +0.110 C 
ATOM      5  C   UNL     1       2.296   2.524   2.155  0.00  0.00    +0.221 C 
ATOM      6  O   UNL     1       2.040   3.661   1.820  0.00  0.00    -0.275 OA
ENDROOT
BRANCH   1  12
ATOM      7  C   UNL     1      -2.726   2.920   4.811  0.00  0.00    +0.044 C 
ATOM      8  C   UNL     1      -2.018   2.445   3.568  0.00  0.00    -0.049 A 
ATOM      9  C   UNL     1      -2.737   2.216   2.409  0.00  0.00    +0.004 A 
ATOM     10  C   UNL     1      -2.091   1.786   1.265  0.00  0.00    +0.005 A 
ATOM     11  C   UNL     1      -0.726   1.571   1.280  0.00  0.00    -0.029 A 
ATOM     12  C   UNL     1      -0.002   1.799   2.443  0.00  0.00    +0.039 A 
ATOM     13  C   UNL     1      -0.653   2.237   3.589  0.00  0.00    +0.027 A 
ATOM     14  C   UNL     1      -0.023   1.095   0.035  0.00  0.00    +0.045 C 
ENDBRANCH   1  12
BRANCH   3  15
ATOM     15  C   UNL     1       4.415  -0.431   2.634  0.00  0.00    +0.222 C 
ATOM     16  O   UNL     1       3.960  -1.415   2.089  0.00  0.00    -0.275 OA
ATOM     17  N   UNL     1       5.746  -0.315   2.810  0.00  0.00    -0.285 N 
ATOM     18  H   UNL     1       6.118   0.505   3.173  0.00  0.00    +0.155 HD
BRANCH  17  19
ATOM     19  C   UNL     1       6.593  -1.376   2.470  0.00  0.00    +0.036 A 
ATOM     20  C   UNL     1       6.105  -2.676   2.450  0.00  0.00    +0.026 A 
ATOM     21  C   UNL     1       6.942  -3.720   2.109  0.00  0.00    +0.034 A 
ATOM     22  C   UNL     1       8.267  -3.473   1.797  0.00  0.00    +0.127 A 
ATOM     23  C   UNL     1       8.756  -2.181   1.821  0.00  0.00    +0.038 A 
ATOM     24  C   UNL     1       7.923  -1.131   2.157  0.00  0.00    -0.027 A 
ATOM     25  C   UNL     1       8.458   0.278   2.183  0.00  0.00    +0.046 C 
BRANCH  22  26
ATOM     26  N   UNL     1       9.162  -4.596   1.437  0.00  0.00    +0.056 N 
ATOM     27  O   UNL     1      10.329  -4.380   1.162  0.00  0.00    -0.126 OA
ATOM     28  O   UNL     1       8.732  -5.735   1.415  0.00  0.00    -0.126 OA
ENDBRANCH  22  26
ENDBRANCH  17  19
ENDBRANCH   3  15
TORSDOF 4
