REMARK  Name = ZINC13064963
REMARK  14 active torsions:
REMARK  status: ('A' for Active; 'I' for Inactive)
REMARK    1  A    between atoms: C_1  and  C_2
REMARK    2  A    between atoms: C_2  and  C_3
REMARK    3  A    between atoms: C_3  and  C_5
REMARK    4  A    between atoms: C_3  and  N_70
REMARK    5  A    between atoms: N_9  and  C_10
REMARK    6  A    between atoms: C_10  and  C_11
REMARK    7  A    between atoms: C_16  and  C_17
REMARK    8  A    between atoms: C_16  and  N_70
REMARK    9  A    between atoms: C_22  and  O_23
REMARK   10  A    between atoms: O_23  and  C_24
REMARK   11  A    between atoms: C_25  and  C_26
REMARK   12  A    between atoms: C_25  and  N_70
REMARK   13  A    between atoms: C_29  and  C_39
REMARK   14  A    between atoms: C_31  and  C_38
REMARK                            x       y       z     vdW  Elec       q    Type
REMARK                         _______ _______ _______ _____ _____    ______ ____
ROOT
ATOM      1  N   UNL     1      -2.962   0.457  -1.465  0.00  0.00    +0.392 N 
ATOM      2  H   UNL     1      -3.253  -0.358  -2.018  0.00  0.00    -0.080 HD
ENDROOT
BRANCH   1   3
ATOM      3  C   UNL     1      -4.167   1.139  -0.946  0.00  0.00    +0.003 C 
BRANCH   3   4
ATOM      4  C   UNL     1      -5.126   0.099  -0.428  0.00  0.00    +0.139 A 
ATOM      5  N   UNL     1      -5.454  -1.026  -1.017  0.00  0.00    -0.115 NA
ATOM      6  N   UNL     1      -6.297  -1.640  -0.260  0.00  0.00    -0.023 NA
ATOM      7  N   UNL     1      -6.521  -0.932   0.792  0.00  0.00    -0.044 NA
ATOM      8  N   UNL     1      -5.818   0.147   0.725  0.00  0.00    -0.223 N 
BRANCH   8   9
ATOM      9  C   UNL     1      -5.781   1.224   1.718  0.00  0.00    +0.221 C 
BRANCH   9  10
ATOM     10  C   UNL     1      -6.837   2.247   1.390  0.00  0.00    +0.126 A 
ATOM     11  C   UNL     1      -8.108   2.235   1.830  0.00  0.00    +0.046 A 
ATOM     12  C   UNL     1      -8.742   3.375   1.284  0.00  0.00    +0.041 A 
ATOM     13  C   UNL     1      -7.823   4.010   0.535  0.00  0.00    +0.195 A 
ATOM     14  O   UNL     1      -6.671   3.323   0.603  0.00  0.00    -0.466 OA
ENDBRANCH   9  10
ENDBRANCH   8   9
ENDBRANCH   3   4
BRANCH   3  16
ATOM     15  C   UNL     1      -5.226   0.962  -3.202  0.00  0.00    +0.002 C 
ATOM     16  C   UNL     1      -4.828   1.924  -2.081  0.00  0.00    -0.011 C 
ENDBRANCH   3  16
ENDBRANCH   1   3
BRANCH   1  17
ATOM     17  C   UNL     1      -2.119  -0.002  -0.341  0.00  0.00    -0.038 C 
BRANCH  17  18
ATOM     18  C   UNL     1      -2.731  -1.249   0.244  0.00  0.00    -0.022 A 
ATOM     19  C   UNL     1      -3.325  -1.208   1.490  0.00  0.00    +0.005 A 
ATOM     20  C   UNL     1      -3.887  -2.352   2.027  0.00  0.00    +0.000 A 
ATOM     21  C   UNL     1      -3.856  -3.539   1.319  0.00  0.00    +0.004 A 
ATOM     22  C   UNL     1      -3.267  -3.584   0.070  0.00  0.00    +0.046 A 
ATOM     23  C   UNL     1      -2.697  -2.439  -0.469  0.00  0.00    +0.121 A 
BRANCH  23  24
ATOM     24  O   UNL     1      -2.113  -2.482  -1.695  0.00  0.00    -0.495 OA
ATOM     25  C   UNL     1      -2.018  -3.761  -2.324  0.00  0.00    +0.277 C 
ENDBRANCH  23  24
ENDBRANCH  17  18
ENDBRANCH   1  17
BRANCH   1  26
ATOM     26  C   UNL     1      -2.194   1.376  -2.330  0.00  0.00    -0.036 C 
BRANCH  26  27
ATOM     27  C   UNL     1      -1.076   0.607  -2.986  0.00  0.00    +0.001 A 
ATOM     28  C   UNL     1      -1.266   0.047  -4.206  0.00  0.00    +0.017 A 
ATOM     29  C   UNL     1      -0.161  -0.694  -4.816  0.00  0.00    +0.002 A 
ATOM     30  C   UNL     1      -0.297  -1.293  -6.072  0.00  0.00    -0.041 A 
ATOM     31  C   UNL     1       0.754  -1.977  -6.614  0.00  0.00    +0.007 A 
ATOM     32  C   UNL     1       1.957  -2.083  -5.928  0.00  0.00    -0.048 A 
ATOM     33  C   UNL     1       2.114  -1.501  -4.689  0.00  0.00    +0.029 A 
ATOM     34  C   UNL     1       1.057  -0.799  -4.118  0.00  0.00    +0.050 A 
ATOM     35  N   UNL     1       1.187  -0.205  -2.880  0.00  0.00    -0.322 N 
ATOM     36  H   UNL     1       2.026  -0.279  -2.400  0.00  0.00    +0.169 HD
ATOM     37  C   UNL     1       0.167   0.477  -2.330  0.00  0.00    +0.251 A 
ATOM     38  O   UNL     1       0.318   0.993  -1.236  0.00  0.00    -0.268 OA
ATOM     39  C   UNL     1       3.103  -2.842  -6.546  0.00  0.00    +0.044 C 
ATOM     40  C   UNL     1      -1.598  -1.185  -6.825  0.00  0.00    +0.044 C 
ENDBRANCH  26  27
ENDBRANCH   1  26
TORSDOF 10
