REMARK  Name = ZINC15016368
REMARK  4 active torsions:
REMARK  status: ('A' for Active; 'I' for Inactive)
REMARK    1  A    between atoms: C_1  and  S_2
REMARK    2  A    between atoms: S_2  and  C_3
REMARK    3  A    between atoms: C_16  and  C_19
REMARK    4  A    between atoms: C_25  and  C_27
REMARK                            x       y       z     vdW  Elec       q    Type
REMARK                         _______ _______ _______ _____ _____    ______ ____
ROOT
ATOM      1  C   UNL     1       4.544   5.069   0.079  0.00  0.00    +0.212 A 
ATOM      2  N   UNL     1       3.616   5.483   0.936  0.00  0.00    -0.184 NA
ATOM      3  C   UNL     1       2.450   4.862   0.976  0.00  0.00    +0.248 A 
ATOM      4  C   UNL     1       2.226   3.779   0.096  0.00  0.00    +0.156 A 
ATOM      5  N   UNL     1       3.193   3.414  -0.731  0.00  0.00    -0.141 NA
ATOM      6  N   UNL     1       4.317   4.045  -0.734  0.00  0.00    -0.122 NA
ATOM      7  C   UNL     1       0.924   3.080   0.115  0.00  0.00    +0.029 A 
ATOM      8  C   UNL     1       0.843   1.693   0.137  0.00  0.00    +0.012 A 
ATOM      9  C   UNL     1      -0.394   1.078   0.126  0.00  0.00    +0.001 A 
ATOM     10  C   UNL     1      -1.552   1.834   0.086  0.00  0.00    +0.002 A 
ATOM     11  C   UNL     1      -1.486   3.216   0.074  0.00  0.00    +0.024 A 
ATOM     12  C   UNL     1      -0.256   3.846   0.090  0.00  0.00    +0.050 A 
ATOM     13  N   UNL     1      -0.152   5.242   0.093  0.00  0.00    -0.226 N 
ATOM     14  C   UNL     1       0.343   5.908   1.294  0.00  0.00    +0.310 C 
ATOM     15  O   UNL     1       1.477   5.242   1.838  0.00  0.00    -0.448 OA
ATOM     16  C   UNL     1      -0.502   5.959  -0.994  0.00  0.00    +0.254 C 
ATOM     17  O   UNL     1      -0.507   7.173  -0.946  0.00  0.00    -0.270 OA
ENDROOT
BRANCH  14  18
ATOM     18  C   UNL     1      -0.754   5.934   2.328  0.00  0.00    +0.050 A 
ATOM     19  C   UNL     1      -0.982   6.844   3.306  0.00  0.00    +0.018 A 
ATOM     20  C   UNL     1      -2.065   6.666   4.147  0.00  0.00    +0.023 A 
ATOM     21  C   UNL     1      -2.860   5.581   3.975  0.00  0.00    +0.055 A 
ATOM     22  S   UNL     1      -2.084   4.772   2.585  0.00  0.00    -0.081 S 
ATOM     23 BR   UNL     1      -4.392   5.059   4.953  0.00  0.00    -0.043 Br
ENDBRANCH  14  18
BRANCH  16  24
ATOM     24  C   UNL     1      -0.882   5.267  -2.244  0.00  0.00    +0.037 A 
ATOM     25  C   UNL     1      -0.335   4.020  -2.549  0.00  0.00    +0.013 A 
ATOM     26  C   UNL     1      -0.696   3.378  -3.715  0.00  0.00    +0.001 A 
ATOM     27  C   UNL     1      -1.591   3.973  -4.587  0.00  0.00    +0.000 A 
ATOM     28  C   UNL     1      -2.134   5.211  -4.293  0.00  0.00    +0.001 A 
ATOM     29  C   UNL     1      -1.784   5.862  -3.128  0.00  0.00    +0.013 A 
ENDBRANCH  16  24
BRANCH   1  31
ATOM     30  C   UNL     1       6.918   4.930  -1.276  0.00  0.00    +0.093 C 
ATOM     31  S   UNL     1       6.101   5.892   0.021  0.00  0.00    -0.088 S 
ENDBRANCH   1  31
TORSDOF 3
