REMARK  Name = ZINC38604027
REMARK  4 active torsions:
REMARK  status: ('A' for Active; 'I' for Inactive)
REMARK    1  A    between atoms: C_1  and  C_2
REMARK    2  A    between atoms: N_13  and  N_14
REMARK    3  A    between atoms: C_15  and  C_16
REMARK    4  A    between atoms: C_21  and  C_22
REMARK                            x       y       z     vdW  Elec       q    Type
REMARK                         _______ _______ _______ _____ _____    ______ ____
ROOT
ATOM      1  N   UNL     1      -0.024  -0.744   2.361  0.00  0.00    -0.187 NA
ATOM      2  C   UNL     1       0.560  -1.255   3.379  0.00  0.00    +0.119 C 
ENDROOT
BRANCH   1  14
ATOM      3  C   UNL     1       2.461  -2.119   0.745  0.00  0.00    +0.051 C 
ATOM      4  C   UNL     1       2.152  -0.687   1.189  0.00  0.00    +0.181 C 
ATOM      5  N   UNL     1       2.793   0.257   0.265  0.00  0.00    -0.324 N 
ATOM      6  C   UNL     1       2.219   0.456  -0.985  0.00  0.00    +0.041 A 
ATOM      7  C   UNL     1       2.975   0.797  -2.093  0.00  0.00    +0.024 A 
ATOM      8  C   UNL     1       2.355   0.979  -3.314  0.00  0.00    +0.002 A 
ATOM      9  C   UNL     1       0.983   0.822  -3.439  0.00  0.00    +0.001 A 
ATOM     10  C   UNL     1       0.215   0.484  -2.344  0.00  0.00    +0.015 A 
ATOM     11  C   UNL     1       0.827   0.300  -1.106  0.00  0.00    +0.059 A 
ATOM     12  C   UNL     1       0.052  -0.051   0.097  0.00  0.00    +0.269 C 
ATOM     13  O   UNL     1      -1.160   0.048   0.100  0.00  0.00    -0.268 OA
ATOM     14  N   UNL     1       0.704  -0.483   1.193  0.00  0.00    -0.169 N 
ATOM     15  H   UNL     1       3.599   0.731   0.522  0.00  0.00    +0.148 HD
ENDBRANCH   1  14
BRANCH   2  16
ATOM     16  C   UNL     1      -0.242  -1.637   4.596  0.00  0.00    +0.125 C 
ATOM     17  C   UNL     1       0.294  -0.940   5.830  0.00  0.00    +0.123 C 
ATOM     18  N   UNL     1       0.680  -1.878   6.633  0.00  0.00    -0.161 NA
ATOM     19  N   UNL     1       0.475  -3.148   6.105  0.00  0.00    -0.153 NA
ATOM     20  C   UNL     1      -0.063  -3.109   4.914  0.00  0.00    +0.084 C 
BRANCH  20  21
ATOM     21  C   UNL     1      -0.421  -4.251   4.058  0.00  0.00    -0.001 A 
ATOM     22  C   UNL     1      -0.987  -4.035   2.798  0.00  0.00    +0.011 A 
ATOM     23  C   UNL     1      -1.319  -5.111   2.002  0.00  0.00    +0.016 A 
ATOM     24  C   UNL     1      -1.093  -6.402   2.447  0.00  0.00    +0.018 A 
ATOM     25  C   UNL     1      -0.532  -6.624   3.694  0.00  0.00    +0.016 A 
ATOM     26  C   UNL     1      -0.190  -5.558   4.499  0.00  0.00    +0.011 A 
ATOM     27 BR   UNL     1      -1.552  -7.871   1.348  0.00  0.00    -0.050 Br
ENDBRANCH  20  21
ENDBRANCH   2  16
TORSDOF 3
