REMARK  Name = ZINC39668337
REMARK  5 active torsions:
REMARK  status: ('A' for Active; 'I' for Inactive)
REMARK    1  A    between atoms: C_5  and  C_7
REMARK    2  A    between atoms: C_10  and  C_12
REMARK    3  A    between atoms: C_16  and  C_25
REMARK    4  A    between atoms: N_27  and  C_28
REMARK    5  A    between atoms: C_28  and  C_29
REMARK                            x       y       z     vdW  Elec       q    Type
REMARK                         _______ _______ _______ _____ _____    ______ ____
ROOT
ATOM      1  C   UNL     1       2.434  -5.350  -1.185  0.00  0.00    +0.282 C 
ATOM      2  O   UNL     1       1.986  -4.399  -0.572  0.00  0.00    -0.267 OA
ATOM      3  N   UNL     1       3.297  -5.151  -2.201  0.00  0.00    -0.294 N 
ATOM      4  C   UNL     1       3.892  -3.870  -2.649  0.00  0.00    +0.121 C 
ATOM      5  C   UNL     1       5.353  -4.224  -3.008  0.00  0.00    +0.100 C 
ATOM      6  C   UNL     1       5.327  -5.729  -3.320  0.00  0.00    -0.004 C 
ATOM      7  C   UNL     1       3.869  -6.165  -3.119  0.00  0.00    +0.115 C 
ATOM      8  C   UNL     1       6.235  -6.485  -2.353  0.00  0.00    -0.010 C 
ATOM      9  C   UNL     1       6.237  -7.972  -2.719  0.00  0.00    -0.082 C 
ATOM     10  N   UNL     1       6.712  -8.137  -4.098  0.00  0.00    +0.379 N 
ATOM     11  C   UNL     1       5.782  -7.486  -5.030  0.00  0.00    -0.082 C 
ATOM     12  C   UNL     1       5.761  -5.978  -4.761  0.00  0.00    -0.010 C 
ATOM     13  H   UNL     1       7.626  -7.720  -4.191  0.00  0.00    -0.086 HD
ATOM     14  H   UNL     1       6.770  -9.120  -4.317  0.00  0.00    -0.086 HD
ENDROOT
BRANCH   1  18
ATOM     15  C   UNL     1       1.929  -8.906  -0.770  0.00  0.00    +0.139 A 
ATOM     16  C   UNL     1       1.031  -8.448   0.151  0.00  0.00    +0.051 A 
ATOM     17  C   UNL     1       1.092  -7.051   0.126  0.00  0.00    +0.055 A 
ATOM     18  C   UNL     1       2.035  -6.711  -0.819  0.00  0.00    +0.190 A 
ATOM     19  O   UNL     1       2.532  -7.851  -1.344  0.00  0.00    -0.450 OA
BRANCH  15  24
ATOM     20  C   UNL     1       2.808 -12.532  -0.356  0.00  0.00    +0.001 A 
ATOM     21  C   UNL     1       2.704 -12.986  -1.659  0.00  0.00    +0.003 A 
ATOM     22  C   UNL     1       2.348 -12.118  -2.675  0.00  0.00    +0.039 A 
ATOM     23  C   UNL     1       2.094 -10.789  -2.394  0.00  0.00    +0.134 A 
ATOM     24  C   UNL     1       2.198 -10.324  -1.079  0.00  0.00    +0.052 A 
ATOM     25  C   UNL     1       2.558 -11.209  -0.060  0.00  0.00    +0.014 A 
ATOM     26  F   UNL     1       1.747  -9.941  -3.387  0.00  0.00    -0.205 F 
ENDBRANCH  15  24
ENDBRANCH   1  18
BRANCH   5  27
ATOM     27  C   UNL     1       6.263  -3.943  -1.840  0.00  0.00    +0.218 C 
ATOM     28  O   UNL     1       5.820  -3.951  -0.711  0.00  0.00    -0.275 OA
ATOM     29  N   UNL     1       7.569  -3.682  -2.050  0.00  0.00    -0.311 N 
ATOM     30  H   UNL     1       7.908  -3.603  -2.955  0.00  0.00    +0.149 HD
BRANCH  29  31
ATOM     31  C   UNL     1       8.475  -3.518  -0.911  0.00  0.00    +0.139 C 
BRANCH  31  32
ATOM     32  C   UNL     1       9.840  -3.117  -1.409  0.00  0.00    -0.030 A 
ATOM     33  C   UNL     1      10.740  -4.082  -1.822  0.00  0.00    +0.009 A 
ATOM     34  C   UNL     1      11.988  -3.720  -2.282  0.00  0.00    +0.046 A 
ATOM     35  C   UNL     1      12.354  -2.377  -2.336  0.00  0.00    +0.124 A 
ATOM     36  C   UNL     1      11.444  -1.417  -1.911  0.00  0.00    -0.002 A 
ATOM     37  C   UNL     1      10.194  -1.780  -1.460  0.00  0.00    +0.012 A 
ATOM     38  C   UNL     1      12.120  -0.068  -2.060  0.00  0.00    +0.080 C 
ATOM     39  C   UNL     1      13.604  -0.470  -2.230  0.00  0.00    +0.234 C 
ATOM     40  O   UNL     1      13.513  -1.804  -2.760  0.00  0.00    -0.491 OA
ENDBRANCH  31  32
ENDBRANCH  29  31
ENDBRANCH   5  27
TORSDOF 5
