REMARK  Name = ZINC43225316
REMARK  8 active torsions:
REMARK  status: ('A' for Active; 'I' for Inactive)
REMARK    1  A    between atoms: C_1  and  C_2
REMARK    2  A    between atoms: C_2  and  C_3
REMARK    3  A    between atoms: C_4  and  C_20
REMARK    4  A    between atoms: C_5  and  C_17
REMARK    5  A    between atoms: C_6  and  C_16
REMARK    6  A    between atoms: N_7  and  C_8
REMARK    7  A    between atoms: C_8  and  C_9
REMARK    8  A    between atoms: C_9  and  C_10
REMARK                            x       y       z     vdW  Elec       q    Type
REMARK                         _______ _______ _______ _____ _____    ______ ____
ROOT
ATOM      1  C   UNL     1       0.731  -0.503   1.223  0.00  0.00    +0.027 A 
ATOM      2  C   UNL     1       2.064  -0.744   1.305  0.00  0.00    +0.015 A 
ATOM      3  C   UNL     1       2.309  -1.213   2.681  0.00  0.00    +0.065 A 
ATOM      4  C   UNL     1       1.093  -1.211   3.303  0.00  0.00    +0.029 A 
ATOM      5  N   UNL     1       0.162  -0.782   2.429  0.00  0.00    -0.346 N 
ATOM      6  C   UNL     1       0.836  -1.616   4.732  0.00  0.00    +0.064 C 
ENDROOT
BRANCH   2   7
ATOM      7  C   UNL     1       3.070  -0.571   0.230  0.00  0.00    -0.013 A 
ATOM      8  C   UNL     1       3.009  -1.359  -0.919  0.00  0.00    +0.009 A 
ATOM      9  C   UNL     1       3.947  -1.194  -1.918  0.00  0.00    +0.003 A 
ATOM     10  C   UNL     1       4.948  -0.250  -1.782  0.00  0.00    +0.038 A 
ATOM     11  C   UNL     1       5.015   0.537  -0.643  0.00  0.00    +0.124 A 
ATOM     12  C   UNL     1       4.077   0.384   0.361  0.00  0.00    +0.047 A 
ATOM     13  F   UNL     1       5.995   1.457  -0.516  0.00  0.00    -0.205 F 
ENDBRANCH   2   7
BRANCH   3  14
ATOM     14  C   UNL     1       3.602  -1.604   3.266  0.00  0.00    +0.244 C 
ATOM     15  O   UNL     1       4.296  -0.772   3.817  0.00  0.00    -0.270 OA
ATOM     16  N   UNL     1       4.015  -2.885   3.190  0.00  0.00    -0.325 N 
ATOM     17  H   UNL     1       3.461  -3.548   2.750  0.00  0.00    +0.145 HD
ATOM     18  H   UNL     1       4.867  -3.143   3.575  0.00  0.00    +0.145 HD
ENDBRANCH   3  14
BRANCH   1  20
ATOM     19  C   UNL     1      -0.019   1.526   0.010  0.00  0.00    +0.010 C 
ATOM     20  C   UNL     1       0.002  -0.004   0.002  0.00  0.00    +0.050 C 
ENDBRANCH   1  20
BRANCH   5  21
ATOM     21  C   UNL     1      -1.264  -0.639   2.732  0.00  0.00    +0.128 C 
BRANCH  21  22
ATOM     22  C   UNL     1      -1.987  -1.950   2.415  0.00  0.00    +0.076 C 
BRANCH  22  23
ATOM     23  C   UNL     1      -3.454  -1.804   2.727  0.00  0.00    +0.037 A 
ATOM     24  C   UNL     1      -4.040  -1.972   3.928  0.00  0.00    +0.133 A 
ATOM     25  N   UNL     1      -5.355  -1.750   3.782  0.00  0.00    -0.244 NA
ATOM     26  C   UNL     1      -5.606  -1.451   2.536  0.00  0.00    +0.196 A 
ATOM     27  N   UNL     1      -4.445  -1.467   1.845  0.00  0.00    -0.348 N 
ATOM     28  H   UNL     1      -4.336  -1.278   0.900  0.00  0.00    +0.166 HD
ENDBRANCH  22  23
ENDBRANCH  21  22
ENDBRANCH   5  21
TORSDOF 6
