REMARK  Name = ZINC38700710
REMARK  9 active torsions:
REMARK  status: ('A' for Active; 'I' for Inactive)
REMARK    1  A    between atoms: C_1  and  C_2
REMARK    2  A    between atoms: C_10  and  C_11
REMARK    3  A    between atoms: C_11  and  O_13
REMARK    4  A    between atoms: O_13  and  C_14
REMARK    5  A    between atoms: C_21  and  N_35
REMARK    6  A    between atoms: C_22  and  C_33
REMARK    7  A    between atoms: C_23  and  C_25
REMARK    8  A    between atoms: C_28  and  S_31
REMARK    9  A    between atoms: S_31  and  C_32
REMARK                            x       y       z     vdW  Elec       q    Type
REMARK                         _______ _______ _______ _____ _____    ______ ____
ROOT
ATOM      1  C   UNL     1       0.026  -0.746   4.722  0.00  0.00    +0.136 A 
ATOM      2  C   UNL     1      -0.068   0.631   4.874  0.00  0.00    +0.047 A 
ATOM      3  C   UNL     1      -0.098   1.185   6.138  0.00  0.00    +0.012 A 
ATOM      4  C   UNL     1      -0.033   0.373   7.257  0.00  0.00    +0.008 A 
ATOM      5  C   UNL     1       0.062  -1.002   7.111  0.00  0.00    +0.138 A 
ATOM      6  C   UNL     1       0.085  -1.562   5.840  0.00  0.00    +0.093 A 
ATOM      7  O   UNL     1       0.126  -1.814   8.195  0.00  0.00    -0.441 OA
ATOM      8  C   UNL     1      -0.280  -1.364   9.395  0.00  0.00    +0.199 C 
ATOM      9  C   UNL     1      -0.393  -0.042   9.663  0.00  0.00    +0.098 C 
ATOM     10  C   UNL     1      -0.066   0.997   8.627  0.00  0.00    +0.098 C 
ENDROOT
BRANCH  10  11
ATOM     11  C   UNL     1       1.280   1.601   8.933  0.00  0.00    -0.035 A 
ATOM     12  C   UNL     1       2.408   0.801   8.949  0.00  0.00    +0.005 A 
ATOM     13  C   UNL     1       3.643   1.351   9.229  0.00  0.00    +0.015 A 
ATOM     14  C   UNL     1       3.752   2.711   9.494  0.00  0.00    +0.008 A 
ATOM     15  C   UNL     1       2.617   3.512   9.477  0.00  0.00    +0.015 A 
ATOM     16  C   UNL     1       1.386   2.956   9.191  0.00  0.00    +0.005 A 
BRANCH  14  17
ATOM     17  S   UNL     1       5.327   3.417   9.853  0.00  0.00    -0.129 S 
ATOM     18  C   UNL     1       4.967   5.175  10.123  0.00  0.00    +0.090 C 
ENDBRANCH  14  17
ENDBRANCH  10  11
BRANCH   8  19
ATOM     19  N   UNL     1      -0.589  -2.272  10.376  0.00  0.00    -0.328 N 
ATOM     20  H   UNL     1      -0.513  -3.222  10.199  0.00  0.00    +0.145 HD
ATOM     21  H   UNL     1      -0.883  -1.963  11.247  0.00  0.00    +0.145 HD
ENDBRANCH   8  19
BRANCH   9  22
ATOM     22  C   UNL     1      -0.832   0.376  10.961  0.00  0.00    +0.101 C 
ATOM     23  N   UNL     1      -1.181   0.707  11.990  0.00  0.00    -0.191 NA
ENDBRANCH   9  22
BRANCH   1  24
ATOM     24  O   UNL     1       0.054  -1.293   3.478  0.00  0.00    -0.420 OA
BRANCH  24  25
ATOM     25  C   UNL     1      -1.073  -1.869   3.014  0.00  0.00    +0.380 C 
ATOM     26  O   UNL     1      -2.047  -1.967   3.735  0.00  0.00    -0.241 OA
BRANCH  25  36
ATOM     27  C   UNL     1      -3.542  -3.234   1.704  0.00  0.00    +0.048 C 
ATOM     28  C   UNL     1      -2.203  -2.974   1.064  0.00  0.00    +0.010 A 
ATOM     29  C   UNL     1      -1.802  -3.306  -0.302  0.00  0.00    +0.025 A 
ATOM     30  C   UNL     1      -2.443  -3.916  -1.384  0.00  0.00    +0.032 A 
ATOM     31  C   UNL     1      -1.771  -4.084  -2.562  0.00  0.00    +0.042 A 
ATOM     32  C   UNL     1      -0.456  -3.654  -2.690  0.00  0.00    +0.023 A 
ATOM     33  C   UNL     1       0.193  -3.051  -1.635  0.00  0.00    +0.048 A 
ATOM     34  C   UNL     1      -0.471  -2.868  -0.427  0.00  0.00    +0.136 A 
ATOM     35  O   UNL     1      -0.108  -2.325   0.752  0.00  0.00    -0.448 OA
ATOM     36  C   UNL     1      -1.125  -2.377   1.638  0.00  0.00    +0.216 A 
ATOM     37 CL   UNL     1      -2.565  -4.842  -3.907  0.00  0.00    -0.084 Cl
ENDBRANCH  25  36
ENDBRANCH  24  25
ENDBRANCH   1  24
TORSDOF 7
