REMARK  Name = ZINC07321259
REMARK  9 active torsions:
REMARK  status: ('A' for Active; 'I' for Inactive)
REMARK    1  A    between atoms: C_1  and  C_2
REMARK    2  A    between atoms: C_2  and  N_3
REMARK    3  A    between atoms: N_3  and  C_4
REMARK    4  A    between atoms: C_4  and  C_5
REMARK    5  A    between atoms: C_11  and  C_13
REMARK    6  A    between atoms: C_13  and  S_14
REMARK    7  A    between atoms: S_14  and  C_15
REMARK    8  A    between atoms: C_19  and  C_25
REMARK    9  A    between atoms: C_21  and  C_24
REMARK                            x       y       z     vdW  Elec       q    Type
REMARK                         _______ _______ _______ _____ _____    ______ ____
ROOT
ATOM      1  C   UNL     1       4.548  -1.862  -3.491  0.00  0.00    +0.173 C 
ENDROOT
BRANCH   1   3
ATOM      2  N   UNL     1       4.242  -0.538  -1.424  0.00  0.00    -0.296 N 
ATOM      3  C   UNL     1       4.084  -1.713  -2.064  0.00  0.00    +0.226 C 
ATOM      4  O   UNL     1       3.570  -2.651  -1.493  0.00  0.00    -0.275 OA
BRANCH   2   6
ATOM      5  C   UNL     1       6.376   0.562  -1.888  0.00  0.00    +0.024 C 
ATOM      6  C   UNL     1       4.863   0.595  -2.114  0.00  0.00    +0.105 C 
ENDBRANCH   2   6
BRANCH   2   7
ATOM      7  C   UNL     1       3.792  -0.394  -0.037  0.00  0.00    +0.150 C 
BRANCH   7   8
ATOM      8  C   UNL     1       2.360   0.077  -0.020  0.00  0.00    +0.008 A 
ATOM      9  C   UNL     1       1.221  -0.657  -0.013  0.00  0.00    +0.014 A 
ATOM     10  C   UNL     1       0.002  -0.004   0.002  0.00  0.00    +0.028 A 
ATOM     11  C   UNL     1      -0.016   1.352   0.009  0.00  0.00    +0.078 A 
ATOM     12  S   UNL     1       1.725   1.745  -0.005  0.00  0.00    -0.080 S 
ATOM     13 CL   UNL     1      -1.379   2.427   0.022  0.00  0.00    -0.076 Cl
ENDBRANCH   7   8
ENDBRANCH   2   7
ENDBRANCH   1   3
BRANCH   1  14
ATOM     14  S   UNL     1       4.199  -3.546  -4.067  0.00  0.00    -0.075 S 
BRANCH  14  15
ATOM     15  C   UNL     1       4.791  -3.559  -5.727  0.00  0.00    +0.211 A 
ATOM     16  N   UNL     1       5.350  -2.525  -6.352  0.00  0.00    -0.183 NA
ATOM     17  C   UNL     1       5.684  -2.877  -7.589  0.00  0.00    +0.254 A 
ATOM     18  N   UNL     1       6.264  -2.207  -8.592  0.00  0.00    -0.216 NA
ATOM     19  C   UNL     1       6.488  -2.787  -9.750  0.00  0.00    +0.044 A 
ATOM     20  C   UNL     1       6.121  -4.122  -9.954  0.00  0.00    +0.046 A 
ATOM     21  C   UNL     1       5.532  -4.810  -8.941  0.00  0.00    +0.045 A 
ATOM     22  N   UNL     1       5.314  -4.182  -7.756  0.00  0.00    -0.200 N 
ATOM     23  N   UNL     1       4.744  -4.592  -6.544  0.00  0.00    -0.137 NA
ATOM     24  C   UNL     1       5.126  -6.249  -9.130  0.00  0.00    +0.066 C 
ATOM     25  C   UNL     1       7.143  -2.010 -10.863  0.00  0.00    +0.066 C 
ENDBRANCH  14  15
ENDBRANCH   1  14
TORSDOF 6
