REMARK  Name = ZINC18136470
REMARK  7 active torsions:
REMARK  status: ('A' for Active; 'I' for Inactive)
REMARK    1  A    between atoms: C_1  and  C_2
REMARK    2  A    between atoms: C_7  and  C_8
REMARK    3  A    between atoms: C_12  and  C_15
REMARK    4  A    between atoms: C_18  and  N_21
REMARK    5  A    between atoms: C_22  and  C_24
REMARK    6  A    between atoms: C_28  and  C_30
REMARK    7  A    between atoms: C_28  and  C_31
REMARK                            x       y       z     vdW  Elec       q    Type
REMARK                         _______ _______ _______ _____ _____    ______ ____
ROOT
ATOM      1  C   UNL     1      -0.037   1.474  -0.013  0.00  0.00    +0.044 C 
ATOM      2  C   UNL     1      -0.009  -0.032  -0.019  0.00  0.00    -0.046 A 
ATOM      3  C   UNL     1       0.003  -0.716  -1.223  0.00  0.00    +0.028 A 
ATOM      4  C   UNL     1       0.019  -2.100  -1.219  0.00  0.00    +0.050 A 
ATOM      5  C   UNL     1      -0.003  -2.793  -0.017  0.00  0.00    +0.053 A 
ATOM      6  C   UNL     1       0.012  -2.109   1.185  0.00  0.00    +0.028 A 
ATOM      7  C   UNL     1       0.012  -0.724   1.178  0.00  0.00    -0.046 A 
ATOM      8  C   UNL     1       0.029   0.033   2.481  0.00  0.00    +0.044 C 
ATOM      9  N   UNL     1      -0.105  -4.177  -0.082  0.00  0.00    -0.316 N 
ATOM     10  C   UNL     1       0.841  -5.003  -0.597  0.00  0.00    +0.017 C 
ATOM     11  C   UNL     1       1.473  -4.804  -1.767  0.00  0.00    +0.036 C 
ATOM     12  C   UNL     1       1.252  -3.644  -2.707  0.00  0.00    +0.136 C 
ATOM     13  N   UNL     1       0.091  -2.833  -2.403  0.00  0.00    -0.331 N 
ATOM     14  C   UNL     1       2.455  -5.722  -2.209  0.00  0.00    +0.163 C 
ATOM     15  O   UNL     1       2.993  -5.532  -3.282  0.00  0.00    -0.292 OA
ATOM     16  C   UNL     1       2.855  -6.920  -1.402  0.00  0.00    +0.086 C 
ATOM     17  C   UNL     1       2.622  -6.612   0.082  0.00  0.00    -0.023 C 
ATOM     18  C   UNL     1       1.153  -6.225   0.250  0.00  0.00    +0.058 C 
ATOM     19  C   UNL     1       2.930  -7.852   0.924  0.00  0.00    +0.011 C 
ATOM     20  C   UNL     1       3.518  -5.451   0.518  0.00  0.00    +0.011 C 
ATOM     21  H   UNL     1      -0.913  -4.584   0.267  0.00  0.00    +0.152 HD
ATOM     22  H   UNL     1      -0.646  -2.800  -3.032  0.00  0.00    +0.147 HD
ENDROOT
BRANCH  12  23
ATOM     23  C   UNL     1       2.471  -2.760  -2.667  0.00  0.00    -0.023 A 
ATOM     24  C   UNL     1       3.251  -2.607  -3.799  0.00  0.00    +0.007 A 
ATOM     25  C   UNL     1       4.369  -1.797  -3.765  0.00  0.00    +0.023 A 
ATOM     26  C   UNL     1       4.710  -1.135  -2.593  0.00  0.00    +0.033 A 
ATOM     27  C   UNL     1       3.925  -1.289  -1.458  0.00  0.00    +0.023 A 
ATOM     28  C   UNL     1       2.805  -2.097  -1.500  0.00  0.00    +0.007 A 
BRANCH  26  29
ATOM     29  N   UNL     1       5.842  -0.313  -2.556  0.00  0.00    -0.286 N 
ATOM     30  C   UNL     1       6.194   0.399  -3.644  0.00  0.00    +0.214 C 
ATOM     31  O   UNL     1       5.477   0.406  -4.622  0.00  0.00    -0.276 OA
ATOM     32  C   UNL     1       7.478   1.188  -3.645  0.00  0.00    +0.109 C 
ATOM     33  H   UNL     1       6.374  -0.257  -1.746  0.00  0.00    +0.155 HD
ENDBRANCH  26  29
ENDBRANCH  12  23
TORSDOF 2
