REMARK  Name = ZINC02245068
REMARK  6 active torsions:
REMARK  status: ('A' for Active; 'I' for Inactive)
REMARK    1  A    between atoms: C_9  and  C_24
REMARK    2  A    between atoms: C_10  and  N_23
REMARK    3  A    between atoms: N_11  and  N_14
REMARK    4  A    between atoms: C_15  and  C_16
REMARK    5  A    between atoms: N_26  and  C_27
REMARK    6  A    between atoms: C_27  and  C_28
REMARK                            x       y       z     vdW  Elec       q    Type
REMARK                         _______ _______ _______ _____ _____    ______ ____
ROOT
ATOM      1  C   UNL     1      -9.719   5.921  -3.821  0.00  0.00    +0.002 A 
ATOM      2  C   UNL     1     -10.867   5.888  -3.031  0.00  0.00    +0.002 A 
ATOM      3  C   UNL     1     -10.998   4.983  -2.024  0.00  0.00    +0.030 A 
ATOM      4  C   UNL     1      -9.963   4.063  -1.770  0.00  0.00    +0.092 A 
ATOM      5  C   UNL     1      -8.796   4.097  -2.573  0.00  0.00    +0.090 A 
ATOM      6  C   UNL     1      -8.697   5.049  -3.605  0.00  0.00    +0.030 A 
ATOM      7  N   UNL     1      -7.798   3.233  -2.352  0.00  0.00    -0.241 NA
ATOM      8  C   UNL     1      -7.903   2.353  -1.377  0.00  0.00    +0.124 A 
ATOM      9  C   UNL     1      -7.040   1.278  -0.861  0.00  0.00    +0.105 A 
ATOM     10  C   UNL     1      -7.730   0.688   0.193  0.00  0.00    +0.134 A 
ATOM     11  N   UNL     1      -8.938   1.295   0.370  0.00  0.00    -0.198 N 
ATOM     12  C   UNL     1      -9.112   2.312  -0.549  0.00  0.00    +0.183 A 
ATOM     13  N   UNL     1     -10.084   3.169  -0.781  0.00  0.00    -0.224 NA
ENDROOT
BRANCH   9  14
ATOM     14  C   UNL     1      -5.716   0.907  -1.355  0.00  0.00    +0.250 C 
ATOM     15  O   UNL     1      -5.606   0.070  -2.232  0.00  0.00    -0.270 OA
ATOM     16  N   UNL     1      -4.617   1.492  -0.839  0.00  0.00    -0.309 N 
ATOM     17  H   UNL     1      -4.704   2.158  -0.140  0.00  0.00    +0.149 HD
BRANCH  16  18
ATOM     18  C   UNL     1      -3.289   1.120  -1.334  0.00  0.00    +0.136 C 
BRANCH  18  19
ATOM     19  C   UNL     1      -2.223   1.924  -0.587  0.00  0.00    +0.135 C 
ATOM     20  C   UNL     1      -0.833   1.634  -1.185  0.00  0.00    +0.035 C 
ATOM     21  C   UNL     1      -0.013   1.086   0.008  0.00  0.00    +0.031 C 
ATOM     22  C   UNL     1      -0.810   1.621   1.224  0.00  0.00    +0.160 C 
ATOM     23  O   UNL     1      -2.186   1.524   0.793  0.00  0.00    -0.375 OA
ENDBRANCH  18  19
ENDBRANCH  16  18
ENDBRANCH   9  14
BRANCH  10  24
ATOM     24  N   UNL     1      -7.263  -0.358   0.947  0.00  0.00    -0.342 N 
ATOM     25  H   UNL     1      -6.390  -0.739   0.759  0.00  0.00    +0.144 HD
ATOM     26  H   UNL     1      -7.804  -0.717   1.667  0.00  0.00    +0.144 HD
ENDBRANCH  10  24
BRANCH  11  27
ATOM     27  N   UNL     1      -9.874   0.937   1.349  0.00  0.00    -0.171 NA
ATOM     28  C   UNL     1      -9.837   1.499   2.518  0.00  0.00    +0.141 C 
BRANCH  28  29
ATOM     29  C   UNL     1     -10.822   1.122   3.548  0.00  0.00    -0.005 A 
ATOM     30  C   UNL     1     -11.800   0.165   3.267  0.00  0.00    +0.012 A 
ATOM     31  C   UNL     1     -12.716  -0.186   4.236  0.00  0.00    +0.039 A 
ATOM     32  C   UNL     1     -12.674   0.415   5.484  0.00  0.00    +0.123 A 
ATOM     33  C   UNL     1     -11.709   1.369   5.768  0.00  0.00    +0.039 A 
ATOM     34  C   UNL     1     -10.785   1.725   4.808  0.00  0.00    +0.012 A 
ATOM     35  F   UNL     1     -13.577   0.071   6.428  0.00  0.00    -0.205 F 
ENDBRANCH  28  29
ENDBRANCH  11  27
TORSDOF 6
