REMARK  Name = ZINC11855180
REMARK  7 active torsions:
REMARK  status: ('A' for Active; 'I' for Inactive)
REMARK    1  A    between atoms: C_1  and  C_2
REMARK    2  A    between atoms: C_2  and  C_3
REMARK    3  A    between atoms: C_4  and  C_38
REMARK    4  A    between atoms: C_12  and  N_21
REMARK    5  A    between atoms: C_14  and  C_16
REMARK    6  A    between atoms: C_22  and  C_24
REMARK    7  A    between atoms: N_29  and  C_31
REMARK                            x       y       z     vdW  Elec       q    Type
REMARK                         _______ _______ _______ _____ _____    ______ ____
ROOT
ATOM      1  C   UNL     1      10.068   6.710   3.196  0.00  0.00    +0.038 A 
ATOM      2  C   UNL     1       9.009   6.469   2.370  0.00  0.00    +0.050 A 
ATOM      3  N   UNL     1       7.768   6.486   2.852  0.00  0.00    -0.217 NA
ATOM      4  C   UNL     1       7.530   6.732   4.122  0.00  0.00    +0.234 A 
ATOM      5  N   UNL     1       8.543   6.986   4.993  0.00  0.00    -0.291 N 
ATOM      6  H   UNL     1       8.349   7.169   5.925  0.00  0.00    +0.172 HD
ATOM      7  C   UNL     1       9.821   6.975   4.556  0.00  0.00    +0.256 A 
ATOM      8  O   UNL     1      10.742   7.196   5.324  0.00  0.00    -0.267 OA
ATOM      9  N   UNL     1       6.226   6.740   4.579  0.00  0.00    -0.185 N 
ATOM     10  C   UNL     1       5.110   6.510   3.825  0.00  0.00    +0.132 A 
ATOM     11  C   UNL     1       4.033   6.601   4.645  0.00  0.00    +0.074 A 
ATOM     12  C   UNL     1       4.502   6.902   5.941  0.00  0.00    +0.102 A 
ATOM     13  N   UNL     1       5.816   6.987   5.895  0.00  0.00    -0.162 NA
ATOM     14  C   UNL     1       9.245   6.182   0.909  0.00  0.00    +0.066 C 
ENDROOT
BRANCH  12  15
ATOM     15  C   UNL     1       3.663   7.090   7.144  0.00  0.00    +0.039 A 
ATOM     16  C   UNL     1       4.047   7.382   8.426  0.00  0.00    +0.018 A 
ATOM     17  C   UNL     1       3.075   7.512   9.394  0.00  0.00    +0.008 A 
ATOM     18  C   UNL     1       1.772   7.348   9.050  0.00  0.00    +0.046 A 
ATOM     19  S   UNL     1       1.887   7.003   7.302  0.00  0.00    -0.095 S 
ENDBRANCH  12  15
BRANCH  10  20
ATOM     20  N   UNL     1       5.083   6.226   2.461  0.00  0.00    -0.270 N 
ATOM     21  C   UNL     1       3.906   6.013   1.840  0.00  0.00    +0.223 C 
ATOM     22  O   UNL     1       2.870   6.069   2.469  0.00  0.00    -0.275 OA
ATOM     23  H   UNL     1       5.912   6.182   1.959  0.00  0.00    +0.156 HD
BRANCH  21  24
ATOM     24  C   UNL     1       3.877   5.707   0.365  0.00  0.00    +0.102 C 
ATOM     25  C   UNL     1       4.643   4.399   0.057  0.00  0.00    +0.110 C 
ATOM     26  C   UNL     1       3.575   3.328   0.083  0.00  0.00    +0.221 C 
ATOM     27  O   UNL     1       3.788   2.137   0.167  0.00  0.00    -0.275 OA
ATOM     28  N   UNL     1       2.356   3.889   0.000  0.00  0.00    -0.271 N 
ATOM     29  C   UNL     1       2.447   5.350  -0.104  0.00  0.00    +0.127 C 
BRANCH  28  30
ATOM     30  C   UNL     1       1.155   3.171   0.008  0.00  0.00    +0.036 A 
ATOM     31  C   UNL     1       1.174   1.782  -0.015  0.00  0.00    +0.025 A 
ATOM     32  C   UNL     1      -0.013   1.076  -0.007  0.00  0.00    +0.022 A 
ATOM     33  C   UNL     1      -1.221   1.751   0.017  0.00  0.00    +0.041 A 
ATOM     34  C   UNL     1      -1.243   3.134   0.045  0.00  0.00    +0.022 A 
ATOM     35  C   UNL     1      -0.059   3.845   0.038  0.00  0.00    +0.025 A 
ATOM     36 CL   UNL     1      -2.711   0.860   0.019  0.00  0.00    -0.084 Cl
ENDBRANCH  28  30
ENDBRANCH  21  24
ENDBRANCH  10  20
BRANCH   1  38
ATOM     37  C   UNL     1      11.903   8.120   2.305  0.00  0.00    +0.009 C 
ATOM     38  C   UNL     1      11.476   6.695   2.661  0.00  0.00    +0.039 C 
ENDBRANCH   1  38
TORSDOF 5
