REMARK  Name = ZINC63753252
REMARK  5 active torsions:
REMARK  status: ('A' for Active; 'I' for Inactive)
REMARK    1  A    between atoms: C_3  and  S_23
REMARK    2  A    between atoms: C_6  and  N_7
REMARK    3  A    between atoms: C_8  and  C_10
REMARK    4  A    between atoms: C_14  and  C_17
REMARK    5  A    between atoms: S_23  and  N_26
REMARK                            x       y       z     vdW  Elec       q    Type
REMARK                         _______ _______ _______ _____ _____    ______ ____
ROOT
ATOM      1  N   UNL     1      -1.206  -0.720   0.038  0.00  0.00    -0.282 N 
ATOM      2  C   UNL     1      -1.187  -2.065  -0.051  0.00  0.00    +0.243 C 
ATOM      3  O   UNL     1      -0.127  -2.663  -0.004  0.00  0.00    -0.270 OA
ATOM      4  H   UNL     1      -2.053  -0.248   0.071  0.00  0.00    +0.155 HD
ENDROOT
BRANCH   2   5
ATOM      5  C   UNL     1      -2.397  -2.781  -0.197  0.00  0.00    +0.086 C 
ATOM      6  C   UNL     1      -2.386  -4.130  -0.205  0.00  0.00    +0.020 C 
ATOM      7  C   UNL     1      -3.675  -4.937  -0.197  0.00  0.00    +0.121 C 
ATOM      8  S   UNL     1      -3.022  -6.658  -0.096  0.00  0.00    -0.130 S 
ATOM      9  C   UNL     1      -1.277  -6.210   0.302  0.00  0.00    +0.157 C 
ATOM     10  N   UNL     1      -1.230  -4.827  -0.226  0.00  0.00    -0.333 N 
ATOM     11  H   UNL     1      -0.409  -4.439  -0.567  0.00  0.00    +0.147 HD
BRANCH   9  12
ATOM     12  C   UNL     1      -0.291  -7.117  -0.437  0.00  0.00    +0.158 C 
ATOM     13  C   UNL     1      -0.506  -8.560  -0.039  0.00  0.00    +0.004 C 
ATOM     14  C   UNL     1      -0.835  -9.203  -1.158  0.00  0.00    +0.017 C 
ATOM     15  C   UNL     1      -0.849  -8.259  -2.276  0.00  0.00    +0.105 C 
ATOM     16  N   UNL     1      -0.540  -7.067  -1.883  0.00  0.00    -0.282 NA
ENDBRANCH   9  12
ENDBRANCH   2   5
BRANCH   1  22
ATOM     17  C   UNL     1       0.090   1.237  -0.530  0.00  0.00    +0.025 A 
ATOM     18  C   UNL     1       1.277   1.941  -0.482  0.00  0.00    +0.030 A 
ATOM     19  C   UNL     1       2.371   1.410   0.176  0.00  0.00    +0.105 A 
ATOM     20  C   UNL     1       2.281   0.173   0.788  0.00  0.00    +0.030 A 
ATOM     21  C   UNL     1       1.097  -0.536   0.744  0.00  0.00    +0.025 A 
ATOM     22  C   UNL     1      -0.005  -0.005   0.084  0.00  0.00    +0.034 A 
BRANCH  19  23
ATOM     23  S   UNL     1       3.885   2.311   0.233  0.00  0.00    +0.056 S 
ATOM     24  O   UNL     1       4.917   1.357   0.440  0.00  0.00    -0.153 OA
ATOM     25  O   UNL     1       3.874   3.193  -0.880  0.00  0.00    -0.153 OA
BRANCH  23  26
ATOM     26  N   UNL     1       3.838   3.259   1.590  0.00  0.00    -0.204 NA
ATOM     27  H   UNL     1       3.062   3.236   2.171  0.00  0.00    +0.144 HD
ATOM     28  H   UNL     1       4.587   3.838   1.803  0.00  0.00    +0.144 HD
ENDBRANCH  23  26
ENDBRANCH  19  23
ENDBRANCH   1  22
TORSDOF 5
