REMARK  Name = ZINC43781658
REMARK  18 active torsions:
REMARK  status: ('A' for Active; 'I' for Inactive)
REMARK    1  A    between atoms: C_1  and  C_2
REMARK    2  A    between atoms: C_2  and  C_3
REMARK    3  A    between atoms: C_2  and  P_4
REMARK    4  A    between atoms: P_4  and  C_6
REMARK    5  A    between atoms: P_4  and  C_29
REMARK    6  A    between atoms: C_6  and  C_8
REMARK    7  A    between atoms: C_6  and  N_23
REMARK    8  A    between atoms: C_10  and  C_19
REMARK    9  A    between atoms: C_11  and  O_18
REMARK   10  A    between atoms: C_12  and  C_14
REMARK   11  A    between atoms: C_14  and  C_15
REMARK   12  A    between atoms: C_14  and  C_16
REMARK   13  A    between atoms: C_14  and  C_17
REMARK   14  A    between atoms: C_19  and  C_20
REMARK   15  A    between atoms: C_19  and  C_21
REMARK   16  A    between atoms: C_19  and  C_22
REMARK   17  A    between atoms: C_29  and  C_30
REMARK   18  A    between atoms: C_29  and  C_31
REMARK                            x       y       z     vdW  Elec       q    Type
REMARK                         _______ _______ _______ _____ _____    ______ ____
ROOT
ATOM      1  C   UNL     1      -1.587   0.232  -1.248  0.00  0.00    +0.026 C 
ENDROOT
BRANCH   1   2
ATOM      2  N   UNL     1      -1.225   1.604  -0.866  0.00  0.00    +0.389 N 
ATOM      3  C   UNL     1      -1.712   2.539  -1.886  0.00  0.00    -0.077 C 
ATOM      4  C   UNL     1      -1.409   3.975  -1.453  0.00  0.00    -0.019 C 
ATOM      5  C   UNL     1       0.103   4.144  -1.285  0.00  0.00    -0.004 C 
ATOM      6  C   UNL     1       0.613   3.113  -0.273  0.00  0.00    -0.019 C 
ATOM      7  C   UNL     1       0.235   1.709  -0.750  0.00  0.00    -0.077 C 
ATOM      8  H   UNL     1      -1.649   1.827   0.022  0.00  0.00    -0.080 HD
ENDBRANCH   1   2
BRANCH   1   9
ATOM      9  C   UNL     1      -3.079   0.141  -1.439  0.00  0.00    -0.053 A 
ATOM     10  C   UNL     1      -3.908   1.078  -0.851  0.00  0.00    +0.010 A 
ATOM     11  C   UNL     1      -5.276   0.996  -1.023  0.00  0.00    -0.000 A 
ATOM     12  C   UNL     1      -5.818  -0.027  -1.789  0.00  0.00    +0.124 A 
ATOM     13  C   UNL     1      -4.983  -0.965  -2.379  0.00  0.00    -0.000 A 
ATOM     14  C   UNL     1      -3.615  -0.876  -2.207  0.00  0.00    +0.010 A 
BRANCH  13  15
ATOM     15  C   UNL     1      -5.568  -2.077  -3.211  0.00  0.00    -0.009 C 
ATOM     16  C   UNL     1      -4.440  -2.965  -3.740  0.00  0.00    +0.015 C 
ATOM     17  C   UNL     1      -6.515  -2.915  -2.349  0.00  0.00    +0.015 C 
ATOM     18  C   UNL     1      -6.343  -1.480  -4.387  0.00  0.00    +0.015 C 
ENDBRANCH  13  15
BRANCH  11  19
ATOM     19  C   UNL     1      -6.180   2.017  -0.381  0.00  0.00    -0.009 C 
ATOM     20  C   UNL     1      -5.336   3.025   0.401  0.00  0.00    +0.015 C 
ATOM     21  C   UNL     1      -6.975   2.748  -1.464  0.00  0.00    +0.015 C 
ATOM     22  C   UNL     1      -7.147   1.313   0.574  0.00  0.00    +0.015 C 
ENDBRANCH  11  19
BRANCH  12  23
ATOM     23  O   UNL     1      -7.163  -0.109  -1.960  0.00  0.00    -0.506 OA
ATOM     24  H   UNL     1      -7.492   0.374  -2.730  0.00  0.00    +0.292 HD
ENDBRANCH  12  23
ENDBRANCH   1   9
BRANCH   1  25
ATOM     25  P   UNL     1      -1.070  -0.921   0.065  0.00  0.00    +0.085 P 
ATOM     26  O   UNL     1       0.376  -0.751   0.331  0.00  0.00    -0.322 OA
BRANCH  25  28
ATOM     27  C   UNL     1      -0.519  -2.963  -1.681  0.00  0.00    +0.015 C 
ATOM     28  C   UNL     1      -1.393  -2.634  -0.469  0.00  0.00    +0.043 C 
ATOM     29  C   UNL     1      -1.062  -3.596   0.674  0.00  0.00    +0.015 C 
ENDBRANCH  25  28
BRANCH  25  30
ATOM     30  C   UNL     1      -2.013  -0.572   1.586  0.00  0.00    +0.043 C 
ATOM     31  C   UNL     1      -1.928   0.922   1.906  0.00  0.00    +0.015 C 
ATOM     32  C   UNL     1      -3.476  -0.968   1.381  0.00  0.00    +0.015 C 
ENDBRANCH  25  30
ENDBRANCH   1  25
TORSDOF 8
