REMARK  Name = ZINC08846194
REMARK  11 active torsions:
REMARK  status: ('A' for Active; 'I' for Inactive)
REMARK    1  A    between atoms: C_1  and  C_2
REMARK    2  A    between atoms: C_2  and  C_3
REMARK    3  A    between atoms: C_3  and  C_4
REMARK    4  A    between atoms: C_4  and  C_5
REMARK    5  A    between atoms: C_5  and  C_6
REMARK    6  A    between atoms: C_6  and  O_7
REMARK    7  A    between atoms: O_7  and  C_8
REMARK    8  A    between atoms: C_13  and  C_14
REMARK    9  A    between atoms: C_19  and  N_28
REMARK   10  A    between atoms: C_23  and  N_27
REMARK   11  A    between atoms: C_24  and  C_25
REMARK                            x       y       z     vdW  Elec       q    Type
REMARK                         _______ _______ _______ _____ _____    ______ ____
ROOT
ATOM      1  C   UNL     1       2.466   3.918  -0.002  0.00  0.00    +0.101 C 
ATOM      2  C   UNL     1       1.161   3.167   0.007  0.00  0.00    +0.008 A 
ATOM      3  C   UNL     1       1.173   1.783   0.000  0.00  0.00    +0.010 A 
ATOM      4  C   UNL     1      -0.013   1.076   0.008  0.00  0.00    +0.023 A 
ATOM      5  C   UNL     1      -1.225   1.755   0.017  0.00  0.00    +0.028 A 
ATOM      6  C   UNL     1      -1.240   3.142   0.030  0.00  0.00    +0.069 A 
ATOM      7  C   UNL     1      -0.045   3.849   0.022  0.00  0.00    +0.136 A 
ATOM      8  O   UNL     1      -0.077   5.205   0.027  0.00  0.00    -0.441 OA
ATOM      9  C   UNL     1       1.002   5.902  -0.365  0.00  0.00    +0.199 C 
ATOM     10  C   UNL     1       2.238   5.349  -0.401  0.00  0.00    +0.098 C 
ENDROOT
BRANCH   1  16
ATOM     11  C   UNL     1       4.321   3.301   1.568  0.00  0.00    +0.125 A 
ATOM     12  C   UNL     1       4.881   3.271   2.837  0.00  0.00    +0.046 A 
ATOM     13  C   UNL     1       4.191   3.804   3.908  0.00  0.00    +0.004 A 
ATOM     14  C   UNL     1       2.945   4.373   3.716  0.00  0.00    +0.001 A 
ATOM     15  C   UNL     1       2.388   4.410   2.451  0.00  0.00    +0.008 A 
ATOM     16  C   UNL     1       3.074   3.878   1.376  0.00  0.00    +0.007 A 
BRANCH  11  17
ATOM     17  O   UNL     1       4.996   2.772   0.513  0.00  0.00    -0.492 OA
BRANCH  17  18
ATOM     18  C   UNL     1       6.275   2.196   0.785  0.00  0.00    +0.229 C 
BRANCH  18  19
ATOM     19  C   UNL     1       6.877   1.656  -0.514  0.00  0.00    +0.041 C 
BRANCH  19  20
ATOM     20  C   UNL     1       8.246   1.038  -0.223  0.00  0.00    +0.003 C 
BRANCH  20  21
ATOM     21  C   UNL     1       8.848   0.499  -1.522  0.00  0.00    -0.000 C 
BRANCH  21  23
ATOM     22  C   UNL     1      10.820  -0.658  -2.531  0.00  0.00    +0.004 C 
ATOM     23  C   UNL     1      10.218  -0.119  -1.232  0.00  0.00    -0.003 C 
ENDBRANCH  21  23
ENDBRANCH  20  21
ENDBRANCH  19  20
ENDBRANCH  18  19
ENDBRANCH  17  18
ENDBRANCH  11  17
ENDBRANCH   1  16
BRANCH   9  24
ATOM     24  N   UNL     1       0.849   7.214  -0.739  0.00  0.00    -0.328 N 
ATOM     25  H   UNL     1       1.619   7.730  -1.023  0.00  0.00    +0.145 HD
ATOM     26  H   UNL     1      -0.030   7.624  -0.718  0.00  0.00    +0.145 HD
ENDBRANCH   9  24
BRANCH   5  27
ATOM     27  N   UNL     1      -2.426   1.042   0.019  0.00  0.00    -0.358 N 
ATOM     28  H   UNL     1      -2.415   0.072   0.014  0.00  0.00    +0.142 HD
ATOM     29  H   UNL     1      -3.272   1.517   0.026  0.00  0.00    +0.142 HD
ENDBRANCH   5  27
BRANCH  10  30
ATOM     30  C   UNL     1       3.350   6.144  -0.827  0.00  0.00    +0.101 C 
ATOM     31  N   UNL     1       4.232   6.774  -1.166  0.00  0.00    -0.191 NA
ENDBRANCH  10  30
TORSDOF 10
