REMARK  Name = ZINC37604744
REMARK  14 active torsions:
REMARK  status: ('A' for Active; 'I' for Inactive)
REMARK    1  A    between atoms: C_1  and  C_2
REMARK    2  A    between atoms: C_2  and  C_3
REMARK    3  A    between atoms: C_2  and  C_4
REMARK    4  A    between atoms: C_4  and  C_5
REMARK    5  A    between atoms: C_13  and  O_25
REMARK    6  A    between atoms: C_16  and  C_18
REMARK    7  A    between atoms: O_25  and  C_26
REMARK    8  A    between atoms: C_26  and  C_27
REMARK    9  A    between atoms: C_30  and  C_32
REMARK   10  A    between atoms: N_34  and  C_35
REMARK   11  A    between atoms: C_35  and  C_36
REMARK   12  A    between atoms: C_36  and  N_37
REMARK   13  A    between atoms: N_37  and  C_38
REMARK   14  A    between atoms: N_37  and  C_39
REMARK                            x       y       z     vdW  Elec       q    Type
REMARK                         _______ _______ _______ _____ _____    ______ ____
ROOT
ATOM      1  C   UNL     1      -0.862  -0.769   2.669  0.00  0.00    +0.217 C 
ATOM      2  O   UNL     1      -1.853  -0.072   2.729  0.00  0.00    -0.276 OA
ATOM      3  N   UNL     1      -0.035  -0.856   3.730  0.00  0.00    -0.290 N 
ATOM      4  C   UNL     1       1.109  -1.784   3.735  0.00  0.00    +0.113 C 
ATOM      5  C   UNL     1       2.388  -0.951   3.800  0.00  0.00    +0.054 C 
ATOM      6  C   UNL     1       2.288   0.104   4.870  0.00  0.00    -0.040 A 
ATOM      7  C   UNL     1       3.473   0.649   5.349  0.00  0.00    +0.007 A 
ATOM      8  C   UNL     1       3.455   1.626   6.321  0.00  0.00    +0.046 A 
ATOM      9  C   UNL     1       2.243   2.072   6.827  0.00  0.00    +0.121 A 
ATOM     10  C   UNL     1       1.062   1.527   6.353  0.00  0.00    +0.051 A 
ATOM     11  C   UNL     1       1.084   0.540   5.378  0.00  0.00    -0.016 A 
ATOM     12  C   UNL     1      -0.233  -0.025   4.922  0.00  0.00    +0.137 C 
ENDROOT
BRANCH  12  13
ATOM     13  C   UNL     1      -1.176   1.104   4.596  0.00  0.00    -0.022 A 
ATOM     14  C   UNL     1      -0.849   2.013   3.607  0.00  0.00    +0.008 A 
ATOM     15  C   UNL     1      -1.713   3.048   3.306  0.00  0.00    +0.038 A 
ATOM     16  C   UNL     1      -2.907   3.175   3.995  0.00  0.00    +0.123 A 
ATOM     17  C   UNL     1      -3.234   2.264   4.986  0.00  0.00    +0.038 A 
ATOM     18  C   UNL     1      -2.370   1.227   5.281  0.00  0.00    +0.008 A 
ATOM     19  F   UNL     1      -3.752   4.188   3.703  0.00  0.00    -0.205 F 
ENDBRANCH  12  13
BRANCH   1  20
ATOM     20  C   UNL     1      -0.557  -1.539   1.410  0.00  0.00    +0.099 C 
BRANCH  20  22
ATOM     21  C   UNL     1      -1.605   0.207  -0.037  0.00  0.00    +0.008 C 
ATOM     22  C   UNL     1      -1.645  -1.267   0.370  0.00  0.00    -0.008 C 
ATOM     23  C   UNL     1      -1.403  -2.143  -0.862  0.00  0.00    +0.008 C 
ENDBRANCH  20  22
ENDBRANCH   1  20
BRANCH   9  24
ATOM     24  O   UNL     1       2.214   3.039   7.782  0.00  0.00    -0.484 OA
BRANCH  24  25
ATOM     25  C   UNL     1       3.473   3.553   8.222  0.00  0.00    +0.303 C 
BRANCH  25  26
ATOM     26  C   UNL     1       3.244   4.607   9.275  0.00  0.00    +0.143 A 
ATOM     27  C   UNL     1       3.172   4.387  10.606  0.00  0.00    +0.049 A 
ATOM     28  C   UNL     1       2.952   5.630  11.219  0.00  0.00    +0.055 A 
ATOM     29  C   UNL     1       2.900   6.557  10.218  0.00  0.00    +0.190 A 
ATOM     30  O   UNL     1       3.085   5.917   9.046  0.00  0.00    -0.452 OA
BRANCH  29  31
ATOM     31  C   UNL     1       2.686   7.998  10.389  0.00  0.00    +0.279 C 
ATOM     32  O   UNL     1       2.535   8.463  11.503  0.00  0.00    -0.267 OA
ATOM     33  N   UNL     1       2.657   8.807   9.311  0.00  0.00    -0.311 N 
ATOM     34  H   UNL     1       2.777   8.437   8.423  0.00  0.00    +0.149 HD
BRANCH  33  35
ATOM     35  C   UNL     1       2.443  10.246   9.482  0.00  0.00    +0.086 C 
BRANCH  35  36
ATOM     36  C   UNL     1       2.454  10.929   8.112  0.00  0.00    -0.061 C 
BRANCH  36  37
ATOM     37  N   UNL     1       2.239  12.372   8.283  0.00  0.00    +0.377 N 
ATOM     38  C   UNL     1       3.372  12.953   9.016  0.00  0.00    -0.097 C 
ATOM     39  C   UNL     1       2.130  13.011   6.965  0.00  0.00    -0.097 C 
ATOM     40  H   UNL     1       1.388  12.527   8.803  0.00  0.00    -0.083 HD
ENDBRANCH  36  37
ENDBRANCH  35  36
ENDBRANCH  33  35
ENDBRANCH  29  31
ENDBRANCH  25  26
ENDBRANCH  24  25
ENDBRANCH   9  24
TORSDOF 10
