REMARK  Name = ZINC10216198
REMARK  6 active torsions:
REMARK  status: ('A' for Active; 'I' for Inactive)
REMARK    1  A    between atoms: C_1  and  C_2
REMARK    2  A    between atoms: C_2  and  C_4
REMARK    3  A    between atoms: C_2  and  N_14
REMARK    4  A    between atoms: C_15  and  C_17
REMARK    5  A    between atoms: C_17  and  N_60
REMARK    6  A    between atoms: C_20  and  N_23
REMARK                            x       y       z     vdW  Elec       q    Type
REMARK                         _______ _______ _______ _____ _____    ______ ____
ROOT
ATOM      1  C   UNL     1      -5.387  -1.163  -3.469  0.00  0.00    -0.076 C 
ATOM      2  C   UNL     1      -6.777  -1.605  -3.932  0.00  0.00    +0.006 C 
ATOM      3  C   UNL     1      -6.632  -2.688  -5.005  0.00  0.00    +0.089 C 
ATOM      4  C   UNL     1      -5.828  -3.859  -4.432  0.00  0.00    +0.006 C 
ATOM      5  C   UNL     1      -4.466  -3.350  -3.955  0.00  0.00    -0.076 C 
ATOM      6  N   UNL     1      -4.674  -2.329  -2.907  0.00  0.00    +0.386 N 
ATOM      7  H   UNL     1      -5.243  -2.736  -2.154  0.00  0.00    -0.081 HD
ENDROOT
BRANCH   3   8
ATOM      8  N   UNL     1      -7.959  -3.158  -5.411  0.00  0.00    -0.289 N 
ATOM      9  C   UNL     1      -8.486  -3.097  -6.699  0.00  0.00    +0.070 A 
ATOM     10  C   UNL     1      -7.995  -2.626  -7.907  0.00  0.00    +0.028 A 
ATOM     11  C   UNL     1      -8.775  -2.704  -9.043  0.00  0.00    +0.002 A 
ATOM     12  C   UNL     1     -10.045  -3.253  -8.982  0.00  0.00    +0.002 A 
ATOM     13  C   UNL     1     -10.542  -3.726  -7.784  0.00  0.00    +0.028 A 
ATOM     14  C   UNL     1      -9.766  -3.651  -6.637  0.00  0.00    +0.067 A 
ATOM     15  N   UNL     1      -9.978  -4.030  -5.314  0.00  0.00    -0.306 N 
ATOM     16  H   UNL     1     -10.781  -4.446  -4.964  0.00  0.00    +0.170 HD
ATOM     17  C   UNL     1      -8.874  -3.727  -4.604  0.00  0.00    +0.328 A 
ATOM     18  O   UNL     1      -8.728  -3.932  -3.414  0.00  0.00    -0.247 OA
ENDBRANCH   3   8
BRANCH   6  19
ATOM     19  C   UNL     1      -3.373  -1.905  -2.349  0.00  0.00    +0.019 C 
BRANCH  19  21
ATOM     20  N   UNL     1      -1.536  -2.951  -1.066  0.00  0.00    -0.310 N 
ATOM     21  C   UNL     1      -2.777  -3.056  -1.581  0.00  0.00    +0.197 C 
ATOM     22  O   UNL     1      -3.413  -4.077  -1.426  0.00  0.00    -0.278 OA
ATOM     23  H   UNL     1      -1.027  -2.134  -1.190  0.00  0.00    +0.149 HD
BRANCH  20  25
ATOM     24  C   UNL     1      -0.308  -5.054  -1.295  0.00  0.00    +0.033 C 
ATOM     25  C   UNL     1      -0.956  -4.069  -0.319  0.00  0.00    +0.100 C 
BRANCH  25  26
ATOM     26  C   UNL     1       0.088  -3.549   0.635  0.00  0.00    -0.024 A 
ATOM     27  C   UNL     1       0.944  -2.539   0.238  0.00  0.00    +0.009 A 
ATOM     28  C   UNL     1       1.900  -2.055   1.112  0.00  0.00    +0.050 A 
ATOM     29  C   UNL     1       2.006  -2.587   2.388  0.00  0.00    +0.162 A 
ATOM     30  C   UNL     1       1.147  -3.604   2.787  0.00  0.00    +0.162 A 
ATOM     31  C   UNL     1       0.191  -4.085   1.905  0.00  0.00    +0.055 A 
ATOM     32  O   UNL     1       1.231  -4.136   4.037  0.00  0.00    -0.485 OA
ATOM     33  C   UNL     1       2.442  -3.892   4.760  0.00  0.00    +0.270 C 
ATOM     34  C   UNL     1       2.790  -2.403   4.626  0.00  0.00    +0.270 C 
ATOM     35  O   UNL     1       2.957  -2.106   3.235  0.00  0.00    -0.485 OA
ENDBRANCH  25  26
ENDBRANCH  20  25
ENDBRANCH  19  21
ENDBRANCH   6  19
TORSDOF 5
