REMARK  Name = ZINC40325607
REMARK  10 active torsions:
REMARK  status: ('A' for Active; 'I' for Inactive)
REMARK    1  A    between atoms: C_1  and  C_2
REMARK    2  A    between atoms: C_5  and  C_8
REMARK    3  A    between atoms: C_8  and  C_9
REMARK    4  A    between atoms: C_9  and  N_10
REMARK    5  A    between atoms: C_12  and  C_17
REMARK    6  A    between atoms: N_19  and  C_20
REMARK    7  A    between atoms: C_20  and  C_21
REMARK    8  A    between atoms: C_21  and  C_23
REMARK    9  A    between atoms: C_21  and  N_30
REMARK   10  A    between atoms: C_26  and  C_29
REMARK                            x       y       z     vdW  Elec       q    Type
REMARK                         _______ _______ _______ _____ _____    ______ ____
ROOT
ATOM      1  C   UNL     1       1.103  -9.550   1.288  0.00  0.00    +0.218 C 
ATOM      2  O   UNL     1       0.155  -9.262   1.987  0.00  0.00    -0.275 OA
ATOM      3  N   UNL     1       1.454 -10.841   1.127  0.00  0.00    -0.316 N 
ATOM      4  H   UNL     1       2.212 -11.072   0.568  0.00  0.00    +0.149 HD
ENDROOT
BRANCH   1   7
ATOM      5  N   UNL     1       1.451  -6.288  -0.309  0.00  0.00    -0.300 N 
ATOM      6  C   UNL     1       1.308  -7.070   0.924  0.00  0.00    +0.121 C 
ATOM      7  C   UNL     1       1.888  -8.464   0.598  0.00  0.00    +0.101 C 
ATOM      8  C   UNL     1       1.700  -8.533  -0.935  0.00  0.00    +0.110 C 
ATOM      9  C   UNL     1       1.661  -7.085  -1.371  0.00  0.00    +0.216 C 
ATOM     10  O   UNL     1       1.801  -6.699  -2.512  0.00  0.00    -0.276 OA
BRANCH   5  11
ATOM     11  C   UNL     1       1.370  -4.827  -0.375  0.00  0.00    +0.112 C 
BRANCH  11  12
ATOM     12  C   UNL     1      -0.082  -4.407  -0.613  0.00  0.00    +0.054 C 
BRANCH  12  17
ATOM     13  C   UNL     1      -0.406   1.357  -0.874  0.00  0.00    +0.044 C 
ATOM     14  C   UNL     1      -0.321  -0.146  -0.806  0.00  0.00    -0.050 A 
ATOM     15  C   UNL     1      -0.100  -0.879  -1.957  0.00  0.00    +0.003 A 
ATOM     16  C   UNL     1      -0.023  -2.258  -1.895  0.00  0.00    +0.004 A 
ATOM     17  C   UNL     1      -0.166  -2.904  -0.681  0.00  0.00    -0.046 A 
ATOM     18  C   UNL     1      -0.386  -2.171   0.470  0.00  0.00    +0.004 A 
ATOM     19  C   UNL     1      -0.459  -0.792   0.408  0.00  0.00    +0.003 A 
ENDBRANCH  12  17
ENDBRANCH  11  12
ENDBRANCH   5  11
ENDBRANCH   1   7
BRANCH   3  20
ATOM     20  C   UNL     1       0.691 -11.897   1.798  0.00  0.00    +0.093 C 
BRANCH  20  21
ATOM     21  C   UNL     1       1.210 -13.265   1.349  0.00  0.00    -0.020 C 
BRANCH  21  22
ATOM     22  C   UNL     1       0.963 -13.436  -0.128  0.00  0.00    -0.059 A 
ATOM     23  C   UNL     1      -0.293 -13.795  -0.582  0.00  0.00    +0.002 A 
ATOM     24  C   UNL     1      -0.519 -13.952  -1.936  0.00  0.00    +0.003 A 
ATOM     25  C   UNL     1       0.509 -13.749  -2.837  0.00  0.00    -0.050 A 
ATOM     26  C   UNL     1       1.764 -13.389  -2.384  0.00  0.00    +0.003 A 
ATOM     27  C   UNL     1       1.990 -13.228  -1.029  0.00  0.00    +0.002 A 
ATOM     28  C   UNL     1       0.262 -13.921  -4.314  0.00  0.00    +0.044 C 
ENDBRANCH  21  22
BRANCH  21  29
ATOM     29  N   UNL     1       0.507 -14.322   2.088  0.00  0.00    +0.385 N 
ATOM     30  C   UNL     1       0.789 -14.184   3.522  0.00  0.00    -0.078 C 
ATOM     31  C   UNL     1      -0.004 -15.232   4.305  0.00  0.00    -0.019 C 
ATOM     32  C   UNL     1       0.405 -16.631   3.835  0.00  0.00    -0.004 C 
ATOM     33  C   UNL     1       0.176 -16.738   2.325  0.00  0.00    -0.019 C 
ATOM     34  C   UNL     1       0.963 -15.634   1.615  0.00  0.00    -0.078 C 
ATOM     35  H   UNL     1      -0.486 -14.236   1.934  0.00  0.00    -0.081 HD
ENDBRANCH  21  29
ENDBRANCH  20  21
ENDBRANCH   3  20
TORSDOF 8
