REMARK  Name = ZINC44960220
REMARK  6 active torsions:
REMARK  status: ('A' for Active; 'I' for Inactive)
REMARK    1  A    between atoms: C_1  and  C_2
REMARK    2  A    between atoms: C_2  and  C_3
REMARK    3  A    between atoms: C_2  and  C_4
REMARK    4  A    between atoms: C_2  and  N_6
REMARK    5  A    between atoms: C_4  and  O_5
REMARK    6  A    between atoms: C_7  and  C_9
REMARK                            x       y       z     vdW  Elec       q    Type
REMARK                         _______ _______ _______ _____ _____    ______ ____
ROOT
ATOM      1  C   UNL     1       2.677  -0.618  -2.667  0.00  0.00    +0.016 C 
ATOM      2  C   UNL     1       2.272   0.254  -3.857  0.00  0.00    -0.003 C 
ATOM      3  C   UNL     1       2.991  -0.250  -5.115  0.00  0.00    -0.011 C 
ATOM      4  C   UNL     1       2.535  -1.681  -5.410  0.00  0.00    +0.004 C 
ATOM      5  C   UNL     1       3.273  -2.212  -6.640  0.00  0.00    +0.000 C 
ATOM      6  C   UNL     1       4.779  -2.208  -6.370  0.00  0.00    +0.000 C 
ATOM      7  C   UNL     1       5.239  -0.778  -6.081  0.00  0.00    +0.002 C 
ATOM      8  C   UNL     1       4.501  -0.221  -4.864  0.00  0.00    -0.025 C 
ATOM      9  C   UNL     1       4.827  -1.077  -3.640  0.00  0.00    -0.078 C 
ATOM     10  N   UNL     1       4.128  -0.538  -2.466  0.00  0.00    +0.387 N 
ATOM     11  H   UNL     1       4.395   0.425  -2.329  0.00  0.00    -0.085 HD
ATOM     12  H   UNL     1       4.384  -1.074  -1.650  0.00  0.00    -0.085 HD
ENDROOT
BRANCH   1  14
ATOM     13  N   UNL     1       0.688  -0.476  -1.203  0.00  0.00    -0.309 N 
ATOM     14  C   UNL     1       1.972  -0.132  -1.427  0.00  0.00    +0.199 C 
ATOM     15  O   UNL     1       2.559   0.569  -0.630  0.00  0.00    -0.278 OA
ATOM     16  H   UNL     1       0.218  -1.037  -1.840  0.00  0.00    +0.149 HD
BRANCH  13  18
ATOM     17  C   UNL     1      -0.019   1.526   0.010  0.00  0.00    +0.033 C 
ATOM     18  C   UNL     1       0.002  -0.004   0.002  0.00  0.00    +0.052 C 
ATOM     19  C   UNL     1       0.742  -0.511   1.242  0.00  0.00    +0.033 C 
BRANCH  18  20
ATOM     20  C   UNL     1      -1.433  -0.534   0.013  0.00  0.00    +0.181 C 
BRANCH  20  21
ATOM     21  O   UNL     1      -2.102  -0.073   1.189  0.00  0.00    -0.393 OA
ATOM     22  H   UNL     1      -3.019  -0.371   1.262  0.00  0.00    +0.209 HD
ENDBRANCH  20  21
ENDBRANCH  18  20
ENDBRANCH  13  18
ENDBRANCH   1  14
TORSDOF 4
