REMARK  Name = ZINC27432959
REMARK  5 active torsions:
REMARK  status: ('A' for Active; 'I' for Inactive)
REMARK    1  A    between atoms: C_3  and  C_15
REMARK    2  A    between atoms: C_6  and  C_7
REMARK    3  A    between atoms: N_8  and  N_9
REMARK    4  A    between atoms: C_19  and  C_24
REMARK    5  A    between atoms: N_25  and  N_26
REMARK                            x       y       z     vdW  Elec       q    Type
REMARK                         _______ _______ _______ _____ _____    ______ ____
ROOT
ATOM      1  C   UNL     1      -3.321   2.405   0.030  0.00  0.00    +0.090 A 
ATOM      2  C   UNL     1      -2.561   3.537   0.044  0.00  0.00    +0.121 A 
ATOM      3  N   UNL     1      -1.252   3.141   0.030  0.00  0.00    -0.305 N 
ATOM      4  C   UNL     1      -0.083   3.843   0.022  0.00  0.00    +0.102 A 
ATOM      5  C   UNL     1       1.115   3.191   0.008  0.00  0.00    +0.011 A 
ATOM      6  C   UNL     1       1.150   1.774   0.001  0.00  0.00    +0.014 A 
ATOM      7  C   UNL     1      -0.013   1.076   0.008  0.00  0.00    +0.047 A 
ATOM      8  C   UNL     1      -1.242   1.770   0.018  0.00  0.00    +0.138 A 
ATOM      9  N   UNL     1      -2.497   1.345   0.021  0.00  0.00    -0.228 NA
ENDROOT
BRANCH   1  12
ATOM     10  C   UNL     1      -6.832   1.073   0.039  0.00  0.00    +0.010 A 
ATOM     11  C   UNL     1      -5.457   1.122   0.033  0.00  0.00    +0.011 A 
ATOM     12  C   UNL     1      -4.802   2.354   0.036  0.00  0.00    +0.002 A 
ATOM     13  C   UNL     1      -5.541   3.538   0.052  0.00  0.00    +0.011 A 
ATOM     14  C   UNL     1      -6.916   3.492   0.052  0.00  0.00    +0.010 A 
ATOM     15  C   UNL     1      -7.574   2.258   0.049  0.00  0.00    -0.005 A 
BRANCH  15  16
ATOM     16  C   UNL     1      -9.046   2.207   0.056  0.00  0.00    +0.138 C 
ATOM     17  N   UNL     1      -9.734   3.308   0.065  0.00  0.00    -0.188 NA
BRANCH  17  18
ATOM     18  N   UNL     1     -11.134   3.260   0.071  0.00  0.00    -0.217 N 
ATOM     19  C   UNL     1     -11.863   4.428   0.081  0.00  0.00    +0.148 C 
ATOM     20  N   UNL     1     -11.399   5.638   0.085  0.00  0.00    -0.366 N 
ATOM     21  C   UNL     1     -12.267   6.793   0.095  0.00  0.00    +0.125 C 
ATOM     22  C   UNL     1     -13.765   6.414   0.100  0.00  0.00    +0.098 C 
ATOM     23  S   UNL     1     -13.638   4.584   0.083  0.00  0.00    -0.089 S 
ATOM     24  H   UNL     1     -11.651   2.289   0.069  0.00  0.00    +0.176 HD
ATOM     25  H   UNL     1     -10.312   5.810   0.081  0.00  0.00    +0.161 HD
ENDBRANCH  17  18
ENDBRANCH  15  16
ENDBRANCH   1  12
BRANCH   5  26
ATOM     26  C   UNL     1       2.374   3.960  -0.000  0.00  0.00    +0.139 C 
ATOM     27  N   UNL     1       3.513   3.340  -0.015  0.00  0.00    -0.188 NA
BRANCH  27  28
ATOM     28  N   UNL     1       4.709   4.071  -0.022  0.00  0.00    -0.216 N 
ATOM     29  C   UNL     1       5.918   3.413  -0.037  0.00  0.00    +0.169 C 
ATOM     30  N   UNL     1       6.108   2.131  -0.046  0.00  0.00    -0.261 NA
ATOM     31  C   UNL     1       7.432   1.552  -0.062  0.00  0.00    +0.155 C 
ATOM     32  C   UNL     1       8.550   2.618  -0.067  0.00  0.00    +0.100 C 
ATOM     33  S   UNL     1       7.540   4.149  -0.057  0.00  0.00    -0.088 S 
ATOM     34  H   UNL     1       4.681   5.170  -0.017  0.00  0.00    +0.176 HD
ENDBRANCH  27  28
ENDBRANCH   5  26
TORSDOF 5
