REMARK  Name = ZINC16647604
REMARK  14 active torsions:
REMARK  status: ('A' for Active; 'I' for Inactive)
REMARK    1  A    between atoms: C_1  and  C_2
REMARK    2  A    between atoms: C_2  and  C_3
REMARK    3  A    between atoms: C_3  and  C_4
REMARK    4  A    between atoms: C_4  and  C_5
REMARK    5  A    between atoms: C_5  and  C_6
REMARK    6  A    between atoms: C_9  and  C_12
REMARK    7  A    between atoms: N_22  and  C_31
REMARK    8  A    between atoms: N_24  and  C_25
REMARK    9  A    between atoms: C_31  and  C_32
REMARK   10  A    between atoms: N_34  and  C_35
REMARK   11  A    between atoms: C_35  and  C_36
REMARK   12  A    between atoms: C_36  and  C_38
REMARK   13  A    between atoms: C_36  and  C_39
REMARK   14  A    between atoms: C_39  and  C_40
REMARK                            x       y       z     vdW  Elec       q    Type
REMARK                         _______ _______ _______ _____ _____    ______ ____
ROOT
ATOM      1  C   UNL     1       1.355   5.877  -0.862  0.00  0.00    +0.247 C 
ATOM      2  O   UNL     1       1.976   6.027  -1.896  0.00  0.00    -0.270 OA
ATOM      3  N   UNL     1       0.506   4.838  -0.730  0.00  0.00    -0.297 N 
ATOM      4  C   UNL     1       0.416   3.809  -1.774  0.00  0.00    +0.110 C 
ATOM      5  C   UNL     1       0.635   2.435  -1.131  0.00  0.00    +0.054 C 
ATOM      6  C   UNL     1      -0.342   2.258   0.028  0.00  0.00    +0.115 C 
ATOM      7  C   UNL     1      -0.122   3.334   1.086  0.00  0.00    +0.054 C 
ATOM      8  C   UNL     1      -0.346   4.716   0.461  0.00  0.00    +0.110 C 
ATOM      9  C   UNL     1      -1.765   2.297  -0.473  0.00  0.00    +0.241 C 
ATOM     10  O   UNL     1      -2.382   3.294  -0.780  0.00  0.00    -0.273 OA
ATOM     11  N   UNL     1      -2.231   1.031  -0.528  0.00  0.00    -0.275 N 
ATOM     12  C   UNL     1      -1.180   0.101  -0.097  0.00  0.00    +0.217 C 
ATOM     13  N   UNL     1      -0.178   0.917   0.627  0.00  0.00    -0.300 N 
ENDROOT
BRANCH   1  17
ATOM     14  C   UNL     1       1.859   8.626   2.337  0.00  0.00    -0.047 A 
ATOM     15  C   UNL     1       1.940   9.069   1.028  0.00  0.00    +0.004 A 
ATOM     16  C   UNL     1       1.778   8.181  -0.015  0.00  0.00    +0.013 A 
ATOM     17  C   UNL     1       1.531   6.834   0.252  0.00  0.00    +0.037 A 
ATOM     18  C   UNL     1       1.445   6.394   1.574  0.00  0.00    +0.013 A 
ATOM     19  C   UNL     1       1.615   7.292   2.608  0.00  0.00    +0.004 A 
BRANCH  14  20
ATOM     20  C   UNL     1       2.039   9.601   3.471  0.00  0.00    +0.035 C 
BRANCH  20  21
ATOM     21  C   UNL     1       0.681  10.192   3.856  0.00  0.00    +0.005 C 
BRANCH  21  22
ATOM     22  C   UNL     1       0.863  11.182   5.008  0.00  0.00    +0.000 C 
BRANCH  22  24
ATOM     23  C   UNL     1      -0.312  12.763   6.545  0.00  0.00    +0.004 C 
ATOM     24  C   UNL     1      -0.495  11.773   5.393  0.00  0.00    -0.003 C 
ENDBRANCH  22  24
ENDBRANCH  21  22
ENDBRANCH  20  21
ENDBRANCH  14  20
ENDBRANCH   1  17
BRANCH  13  25
ATOM     25  C   UNL     1       1.113   0.428   0.416  0.00  0.00    +0.032 A 
ATOM     26  C   UNL     1       1.301  -0.775  -0.253  0.00  0.00    +0.023 A 
ATOM     27  C   UNL     1       2.580  -1.253  -0.465  0.00  0.00    +0.002 A 
ATOM     28  C   UNL     1       3.671  -0.541  -0.003  0.00  0.00    +0.000 A 
ATOM     29  C   UNL     1       3.487   0.654   0.668  0.00  0.00    +0.002 A 
ATOM     30  C   UNL     1       2.212   1.141   0.879  0.00  0.00    +0.023 A 
ENDBRANCH  13  25
BRANCH  11  31
ATOM     31  C   UNL     1      -3.579   0.645  -0.952  0.00  0.00    +0.205 C 
BRANCH  31  32
ATOM     32  C   UNL     1      -3.588   0.404  -2.440  0.00  0.00    +0.230 C 
ATOM     33  O   UNL     1      -2.569   0.541  -3.083  0.00  0.00    -0.274 OA
ATOM     34  N   UNL     1      -4.729   0.036  -3.056  0.00  0.00    -0.314 N 
ATOM     35  H   UNL     1      -5.544  -0.073  -2.542  0.00  0.00    +0.149 HD
BRANCH  34  36
ATOM     36  C   UNL     1      -4.738  -0.198  -4.502  0.00  0.00    +0.107 C 
BRANCH  36  37
ATOM     37  C   UNL     1      -6.146  -0.601  -4.945  0.00  0.00    +0.003 C 
ATOM     38  C   UNL     1      -6.513  -1.946  -4.315  0.00  0.00    +0.009 C 
BRANCH  37  39
ATOM     39  C   UNL     1      -6.185  -0.724  -6.470  0.00  0.00    +0.001 C 
ATOM     40  C   UNL     1      -7.619  -1.005  -6.922  0.00  0.00    +0.004 C 
ENDBRANCH  37  39
ENDBRANCH  36  37
ENDBRANCH  34  36
ENDBRANCH  31  32
ENDBRANCH  11  31
TORSDOF 11
