REMARK  Name = ZINC12662631
REMARK  2 active torsions:
REMARK  status: ('A' for Active; 'I' for Inactive)
REMARK    1  A    between atoms: C_14  and  C_16
REMARK    2  A    between atoms: C_16  and  C_18
REMARK                            x       y       z     vdW  Elec       q    Type
REMARK                         _______ _______ _______ _____ _____    ______ ____
ROOT
ATOM      1  C   UNL     1      -6.561   1.421   0.150  0.00  0.00    +0.000 A 
ATOM      2  C   UNL     1      -6.893   1.422   1.492  0.00  0.00    +0.002 A 
ATOM      3  C   UNL     1      -6.220   0.601   2.372  0.00  0.00    +0.023 A 
ATOM      4  C   UNL     1      -5.194  -0.225   1.919  0.00  0.00    +0.038 A 
ATOM      5  C   UNL     1      -4.845  -0.196   0.572  0.00  0.00    -0.012 A 
ATOM      6  C   UNL     1      -5.548   0.596  -0.307  0.00  0.00    +0.006 A 
ATOM      7  C   UNL     1      -3.702  -1.166   0.415  0.00  0.00    +0.071 C 
ATOM      8  C   UNL     1      -4.052  -2.237  -0.608  0.00  0.00    -0.046 C 
ATOM      9  C   UNL     1      -3.924  -3.663  -0.047  0.00  0.00    -0.016 C 
ATOM     10  C   UNL     1      -3.347  -4.452  -1.258  0.00  0.00    -0.020 C 
ATOM     11  C   UNL     1      -2.361  -3.397  -1.839  0.00  0.00    -0.076 C 
ATOM     12  C   UNL     1      -2.252  -0.953  -1.535  0.00  0.00    +0.052 C 
ATOM     13  C   UNL     1      -2.422  -0.483  -0.084  0.00  0.00    +0.081 C 
ATOM     14  C   UNL     1      -0.793  -1.196  -1.823  0.00  0.00    -0.027 A 
ATOM     15  C   UNL     1       0.164  -2.015  -1.266  0.00  0.00    +0.004 A 
ATOM     16  C   UNL     1       1.453  -2.026  -1.768  0.00  0.00    +0.000 A 
ATOM     17  C   UNL     1       1.791  -1.193  -2.819  0.00  0.00    +0.002 A 
ATOM     18  C   UNL     1       0.848  -0.342  -3.357  0.00  0.00    +0.023 A 
ATOM     19  C   UNL     1      -0.452  -0.332  -2.859  0.00  0.00    +0.036 A 
ATOM     20  N   UNL     1      -1.552   0.447  -3.221  0.00  0.00    -0.286 N 
ATOM     21  C   UNL     1      -2.651   0.129  -2.512  0.00  0.00    +0.212 C 
ATOM     22  O   UNL     1      -3.754   0.606  -2.672  0.00  0.00    -0.277 OA
ATOM     23  C   UNL     1      -3.479  -1.713   1.800  0.00  0.00    +0.227 C 
ATOM     24  O   UNL     1      -2.610  -2.483   2.151  0.00  0.00    -0.275 OA
ATOM     25  N   UNL     1      -4.402  -1.149   2.602  0.00  0.00    -0.285 N 
ATOM     26  H   UNL     1      -1.533   1.134  -3.905  0.00  0.00    +0.155 HD
ATOM     27  H   UNL     1      -4.501  -1.356   3.545  0.00  0.00    +0.155 HD
ATOM     28  N   UNL     1      -3.135  -2.129  -1.735  0.00  0.00    +0.395 N 
ATOM     29  H   UNL     1      -3.671  -1.995  -2.600  0.00  0.00    -0.079 HD
ENDROOT
BRANCH  13  30
ATOM     30  C   UNL     1      -2.499   1.014   0.019  0.00  0.00    +0.168 C 
ATOM     31  O   UNL     1      -3.204   1.639  -0.745  0.00  0.00    -0.292 OA
BRANCH  30  32
ATOM     32  C   UNL     1      -1.720   1.721   1.046  0.00  0.00    +0.036 A 
ATOM     33  C   UNL     1      -0.916   1.002   1.938  0.00  0.00    +0.014 A 
ATOM     34  C   UNL     1      -0.184   1.672   2.893  0.00  0.00    +0.021 A 
ATOM     35  C   UNL     1      -0.247   3.054   2.978  0.00  0.00    +0.042 A 
ATOM     36  C   UNL     1      -1.045   3.773   2.104  0.00  0.00    +0.040 A 
ATOM     37  C   UNL     1      -1.784   3.117   1.140  0.00  0.00    +0.053 A 
ATOM     38 CL   UNL     1      -2.783   4.019   0.044  0.00  0.00    -0.083 Cl
ATOM     39 CL   UNL     1       0.678   3.889   4.186  0.00  0.00    -0.083 Cl
ENDBRANCH  30  32
ENDBRANCH  13  30
TORSDOF 2
