REMARK  Name = ZINC24877429
REMARK  8 active torsions:
REMARK  status: ('A' for Active; 'I' for Inactive)
REMARK    1  A    between atoms: C_1  and  C_2
REMARK    2  A    between atoms: C_2  and  C_4
REMARK    3  A    between atoms: C_2  and  O_19
REMARK    4  A    between atoms: N_6  and  C_7
REMARK    5  A    between atoms: C_10  and  N_13
REMARK    6  A    between atoms: O_19  and  C_20
REMARK    7  A    between atoms: C_20  and  C_22
REMARK    8  A    between atoms: C_23  and  C_24
REMARK                            x       y       z     vdW  Elec       q    Type
REMARK                         _______ _______ _______ _____ _____    ______ ____
ROOT
ATOM      1  C   UNL     1      -8.873  -1.218  -1.406  0.00  0.00    +0.062 C 
ATOM      2  C   UNL     1      -8.437  -0.957   0.037  0.00  0.00    +0.259 C 
ENDROOT
BRANCH   2   3
ATOM      3  C   UNL     1      -9.529  -0.217   0.766  0.00  0.00    +0.258 C 
ATOM      4  O   UNL     1      -9.336   0.913   1.162  0.00  0.00    -0.271 OA
ATOM      5  N   UNL     1     -10.719  -0.812   0.979  0.00  0.00    -0.282 N 
ATOM      6  H   UNL     1     -10.921  -1.807   0.555  0.00  0.00    +0.155 HD
BRANCH   5   7
ATOM      7  C   UNL     1     -11.701  -0.163   1.740  0.00  0.00    +0.034 A 
ATOM      8  C   UNL     1     -12.546  -0.902   2.557  0.00  0.00    +0.025 A 
ATOM      9  C   UNL     1     -13.510  -0.262   3.311  0.00  0.00    +0.025 A 
ATOM     10  C   UNL     1     -13.640   1.119   3.245  0.00  0.00    +0.030 A 
ATOM     11  C   UNL     1     -12.797   1.857   2.424  0.00  0.00    +0.025 A 
ATOM     12  C   UNL     1     -11.831   1.218   1.674  0.00  0.00    +0.025 A 
BRANCH  10  13
ATOM     13  N   UNL     1     -14.619   1.767   4.005  0.00  0.00    -0.330 N 
ATOM     14  C   UNL     1     -14.023   2.800   4.862  0.00  0.00    +0.105 C 
ATOM     15  C   UNL     1     -15.132   3.583   5.567  0.00  0.00    +0.019 C 
ATOM     16  C   UNL     1     -15.975   2.619   6.409  0.00  0.00    +0.003 C 
ATOM     17  C   UNL     1     -16.545   1.526   5.500  0.00  0.00    +0.019 C 
ATOM     18  C   UNL     1     -15.394   0.803   4.797  0.00  0.00    +0.105 C 
ENDBRANCH  10  13
ENDBRANCH   5   7
ENDBRANCH   2   3
BRANCH   2  19
ATOM     19  O   UNL     1      -7.245  -0.169   0.039  0.00  0.00    -0.449 OA
BRANCH  19  20
ATOM     20  C   UNL     1      -6.071  -0.834   0.020  0.00  0.00    +0.333 C 
ATOM     21  O   UNL     1      -6.061  -2.050   0.003  0.00  0.00    -0.246 OA
BRANCH  20  22
ATOM     22  C   UNL     1      -4.849  -0.115   0.021  0.00  0.00    +0.092 C 
ATOM     23  C   UNL     1      -3.673  -0.781   0.002  0.00  0.00    +0.015 C 
BRANCH  23  24
ATOM     24  C   UNL     1      -2.407  -0.036   0.003  0.00  0.00    -0.021 A 
ATOM     25  C   UNL     1      -2.415   1.364   0.022  0.00  0.00    +0.012 A 
ATOM     26  C   UNL     1      -1.226   2.058   0.018  0.00  0.00    +0.050 A 
ATOM     27  C   UNL     1      -0.015   1.375   0.001  0.00  0.00    +0.162 A 
ATOM     28  C   UNL     1       0.001  -0.018  -0.016  0.00  0.00    +0.163 A 
ATOM     29  C   UNL     1      -1.188  -0.723  -0.016  0.00  0.00    +0.057 A 
ATOM     30  O   UNL     1       1.179  -0.700  -0.032  0.00  0.00    -0.485 OA
ATOM     31  C   UNL     1       2.346   0.039  -0.409  0.00  0.00    +0.270 C 
ATOM     32  C   UNL     1       2.336   1.371   0.352  0.00  0.00    +0.270 C 
ATOM     33  O   UNL     1       1.146   2.083  -0.004  0.00  0.00    -0.485 OA
ENDBRANCH  23  24
ENDBRANCH  20  22
ENDBRANCH  19  20
ENDBRANCH   2  19
TORSDOF 7
