REMARK  Name = ZINC20686508
REMARK  9 active torsions:
REMARK  status: ('A' for Active; 'I' for Inactive)
REMARK    1  A    between atoms: C_1  and  N_2
REMARK    2  A    between atoms: N_2  and  C_3
REMARK    3  A    between atoms: N_2  and  C_14
REMARK    4  A    between atoms: C_3  and  C_4
REMARK    5  A    between atoms: C_7  and  O_10
REMARK    6  A    between atoms: O_10  and  C_11
REMARK    7  A    between atoms: C_11  and  C_12
REMARK    8  A    between atoms: C_14  and  C_15
REMARK    9  A    between atoms: C_21  and  C_26
REMARK                            x       y       z     vdW  Elec       q    Type
REMARK                         _______ _______ _______ _____ _____    ______ ____
ROOT
ATOM      1  C   UNL     1       2.137  -0.060  -1.158  0.00  0.00    +0.094 A 
ATOM      2  N   UNL     1       2.962  -0.390  -2.184  0.00  0.00    -0.312 N 
ATOM      3  H   UNL     1       2.608  -0.891  -2.936  0.00  0.00    +0.170 HD
ATOM      4  C   UNL     1       4.260  -0.036  -2.180  0.00  0.00    +0.260 A 
ATOM      5  O   UNL     1       4.988  -0.340  -3.109  0.00  0.00    -0.267 OA
ATOM      6  C   UNL     1       4.773   0.704  -1.067  0.00  0.00    +0.080 A 
ATOM      7  C   UNL     1       6.125   1.198  -0.832  0.00  0.00    +0.004 A 
ATOM      8  C   UNL     1       6.379   1.884   0.308  0.00  0.00    +0.056 A 
ATOM      9  S   UNL     1       4.801   1.904   1.138  0.00  0.00    -0.076 S 
ATOM     10  C   UNL     1       3.847   1.000  -0.054  0.00  0.00    +0.116 A 
ATOM     11  N   UNL     1       2.574   0.619  -0.131  0.00  0.00    -0.229 NA
ENDROOT
BRANCH   7  12
ATOM     12  C   UNL     1       7.201   0.955  -1.823  0.00  0.00    -0.016 A 
ATOM     13  C   UNL     1       7.417  -0.330  -2.318  0.00  0.00    +0.011 A 
ATOM     14  C   UNL     1       8.419  -0.552  -3.240  0.00  0.00    +0.039 A 
ATOM     15  C   UNL     1       9.210   0.500  -3.673  0.00  0.00    +0.123 A 
ATOM     16  C   UNL     1       8.999   1.779  -3.183  0.00  0.00    +0.039 A 
ATOM     17  C   UNL     1       7.995   2.011  -2.266  0.00  0.00    +0.011 A 
ATOM     18  F   UNL     1      10.191   0.279  -4.576  0.00  0.00    -0.205 F 
ENDBRANCH   7  12
BRANCH   1  19
ATOM     19  C   UNL     1       0.690  -0.478  -1.207  0.00  0.00    -0.003 C 
BRANCH  19  21
ATOM     20  C   UNL     1      -0.018   1.465   0.010  0.00  0.00    -0.095 C 
ATOM     21  N   UNL     1       0.002  -0.004   0.002  0.00  0.00    +0.385 N 
ATOM     22  H   UNL     1       0.490  -0.338   0.820  0.00  0.00    -0.081 HD
BRANCH  21  23
ATOM     23  C   UNL     1      -1.376  -0.512   0.012  0.00  0.00    -0.043 C 
BRANCH  23  24
ATOM     24  C   UNL     1      -2.043  -0.130   1.309  0.00  0.00    -0.064 A 
ATOM     25  C   UNL     1      -1.963  -0.974   2.401  0.00  0.00    +0.005 A 
ATOM     26  C   UNL     1      -2.574  -0.625   3.590  0.00  0.00    +0.046 A 
ATOM     27  C   UNL     1      -3.267   0.572   3.688  0.00  0.00    +0.121 A 
ATOM     28  C   UNL     1      -3.346   1.417   2.590  0.00  0.00    +0.046 A 
ATOM     29  C   UNL     1      -2.729   1.067   1.405  0.00  0.00    +0.005 A 
BRANCH  27  30
ATOM     30  O   UNL     1      -3.869   0.917   4.857  0.00  0.00    -0.488 OA
BRANCH  30  31
ATOM     31  C   UNL     1      -4.566   2.164   4.884  0.00  0.00    +0.256 C 
BRANCH  31  32
ATOM     32  C   UNL     1      -5.164   2.375   6.251  0.00  0.00    +0.006 C 
ATOM     33  C   UNL     1      -5.055   3.539   6.842  0.00  0.00    +0.007 C 
ENDBRANCH  31  32
ENDBRANCH  30  31
ENDBRANCH  27  30
ENDBRANCH  23  24
ENDBRANCH  21  23
ENDBRANCH  19  21
ENDBRANCH   1  19
TORSDOF 8
