REMARK  Name = ZINC15680215
REMARK  8 active torsions:
REMARK  status: ('A' for Active; 'I' for Inactive)
REMARK    1  A    between atoms: C_1  and  C_2
REMARK    2  A    between atoms: C_2  and  C_3
REMARK    3  A    between atoms: C_3  and  S_4
REMARK    4  A    between atoms: S_4  and  N_7
REMARK    5  A    between atoms: N_11  and  C_26
REMARK    6  A    between atoms: C_12  and  C_14
REMARK    7  A    between atoms: C_12  and  C_15
REMARK    8  A    between atoms: N_17  and  C_18
REMARK                            x       y       z     vdW  Elec       q    Type
REMARK                         _______ _______ _______ _____ _____    ______ ____
ROOT
ATOM      1  N   UNL     1      -0.658   1.919   0.510  0.00  0.00    -0.170 NA
ATOM      2  C   UNL     1      -0.057   1.927  -0.832  0.00  0.00    +0.205 C 
ATOM      3  C   UNL     1      -1.134   2.187  -1.849  0.00  0.00    +0.237 C 
ATOM      4  O   UNL     1      -0.805   2.463  -2.983  0.00  0.00    -0.274 OA
ATOM      5  N   UNL     1      -2.435   2.129  -1.561  0.00  0.00    -0.252 N 
ATOM      6  C   UNL     1      -2.978   1.899  -0.229  0.00  0.00    +0.129 C 
ATOM      7  C   UNL     1      -1.944   1.215   0.667  0.00  0.00    +0.145 C 
ATOM      8  C   UNL     1      -4.219   1.011  -0.337  0.00  0.00    +0.043 C 
ENDROOT
BRANCH   5   9
ATOM      9  C   UNL     1      -3.344   2.300  -2.614  0.00  0.00    +0.073 A 
ATOM     10  C   UNL     1      -3.927   1.194  -3.216  0.00  0.00    +0.029 A 
ATOM     11  C   UNL     1      -4.827   1.365  -4.250  0.00  0.00    +0.040 A 
ATOM     12  C   UNL     1      -5.140   2.639  -4.695  0.00  0.00    +0.126 A 
ATOM     13  C   UNL     1      -4.556   3.744  -4.100  0.00  0.00    +0.078 A 
ATOM     14  C   UNL     1      -3.659   3.579  -3.061  0.00  0.00    +0.147 A 
ATOM     15  F   UNL     1      -3.089   4.657  -2.481  0.00  0.00    -0.203 F 
ATOM     16  F   UNL     1      -6.015   2.803  -5.710  0.00  0.00    -0.205 F 
ENDBRANCH   5   9
BRANCH   6  17
ATOM     17  C   UNL     1      -3.367   3.221   0.382  0.00  0.00    +0.238 C 
ATOM     18  O   UNL     1      -2.982   4.257  -0.118  0.00  0.00    -0.273 OA
ATOM     19  N   UNL     1      -4.141   3.251   1.485  0.00  0.00    -0.311 N 
ATOM     20  H   UNL     1      -4.405   2.423   1.915  0.00  0.00    +0.149 HD
BRANCH  19  21
ATOM     21  C   UNL     1      -4.585   4.535   2.033  0.00  0.00    +0.073 C 
ATOM     22  C   UNL     1      -3.817   4.833   3.321  0.00  0.00    +0.022 C 
ATOM     23  C   UNL     1      -3.973   6.313   3.678  0.00  0.00    +0.002 C 
ATOM     24  C   UNL     1      -3.798   7.163   2.418  0.00  0.00    +0.000 C 
ATOM     25  C   UNL     1      -5.128   7.832   2.065  0.00  0.00    +0.000 C 
ATOM     26  C   UNL     1      -6.064   6.800   1.433  0.00  0.00    +0.000 C 
ATOM     27  C   UNL     1      -6.628   5.887   2.524  0.00  0.00    +0.002 C 
ATOM     28  C   UNL     1      -6.084   4.470   2.336  0.00  0.00    +0.022 C 
ENDBRANCH  19  21
ENDBRANCH   6  17
BRANCH   1  29
ATOM     29  S   UNL     1       0.079   2.671   1.788  0.00  0.00    +0.032 S 
ATOM     30  O   UNL     1      -0.489   2.066   2.942  0.00  0.00    -0.158 OA
ATOM     31  O   UNL     1       1.471   2.559   1.522  0.00  0.00    -0.158 OA
BRANCH  29  32
ATOM     32  C   UNL     1      -0.441   4.405   1.672  0.00  0.00    +0.185 C 
BRANCH  32  34
ATOM     33  C   UNL     1      -0.229   6.672   2.702  0.00  0.00    +0.005 C 
ATOM     34  C   UNL     1       0.209   5.209   2.800  0.00  0.00    +0.021 C 
ENDBRANCH  32  34
ENDBRANCH  29  32
ENDBRANCH   1  29
TORSDOF 6
