REMARK  Name = ZINC22061956
REMARK  11 active torsions:
REMARK  status: ('A' for Active; 'I' for Inactive)
REMARK    1  A    between atoms: C_1  and  C_2
REMARK    2  A    between atoms: C_5  and  C_8
REMARK    3  A    between atoms: C_8  and  C_9
REMARK    4  A    between atoms: C_9  and  C_10
REMARK    5  A    between atoms: C_16  and  C_18
REMARK    6  A    between atoms: C_18  and  C_19
REMARK    7  A    between atoms: C_19  and  N_20
REMARK    8  A    between atoms: N_20  and  C_21
REMARK    9  A    between atoms: C_24  and  S_30
REMARK   10  A    between atoms: C_26  and  N_27
REMARK   11  A    between atoms: S_30  and  N_33
REMARK                            x       y       z     vdW  Elec       q    Type
REMARK                         _______ _______ _______ _____ _____    ______ ____
ROOT
ATOM      1  C   UNL     1      -0.260   6.284  -2.594  0.00  0.00    +0.114 C 
ENDROOT
BRANCH   1   8
ATOM      2  C   UNL     1      -0.876   3.000   1.141  0.00  0.00    -0.008 C 
ATOM      3  C   UNL     1      -1.499   3.287  -0.227  0.00  0.00    +0.022 C 
ATOM      4  C   UNL     1      -1.474   4.796  -0.488  0.00  0.00    +0.108 C 
ATOM      5  N   UNL     1      -0.095   5.279  -0.339  0.00  0.00    -0.301 N 
ATOM      6  C   UNL     1       0.629   4.978   0.903  0.00  0.00    +0.108 C 
ATOM      7  C   UNL     1       0.581   3.467   1.149  0.00  0.00    +0.022 C 
ATOM      8  C   UNL     1       0.496   5.984  -1.325  0.00  0.00    +0.217 C 
ATOM      9  O   UNL     1       1.635   6.377  -1.190  0.00  0.00    -0.276 OA
BRANCH   2  10
ATOM     10  C   UNL     1      -0.931   1.496   1.421  0.00  0.00    +0.008 C 
BRANCH  10  11
ATOM     11  C   UNL     1      -2.390   1.052   1.537  0.00  0.00    +0.035 C 
BRANCH  11  16
ATOM     12  C   UNL     1      -2.595  -4.626   2.592  0.00  0.00    +0.044 C 
ATOM     13  C   UNL     1      -2.543  -3.145   2.317  0.00  0.00    -0.050 A 
ATOM     14  C   UNL     1      -2.490  -2.249   3.368  0.00  0.00    +0.003 A 
ATOM     15  C   UNL     1      -2.441  -0.890   3.115  0.00  0.00    +0.004 A 
ATOM     16  C   UNL     1      -2.444  -0.429   1.812  0.00  0.00    -0.047 A 
ATOM     17  C   UNL     1      -2.502  -1.325   0.762  0.00  0.00    +0.004 A 
ATOM     18  C   UNL     1      -2.547  -2.684   1.014  0.00  0.00    +0.003 A 
ENDBRANCH  11  16
ENDBRANCH  10  11
ENDBRANCH   2  10
ENDBRANCH   1   8
BRANCH   1  19
ATOM     19  C   UNL     1       0.632   7.091  -3.539  0.00  0.00    +0.111 C 
BRANCH  19  20
ATOM     20  N   UNL     1      -0.103   7.383  -4.773  0.00  0.00    -0.342 N 
ATOM     21  H   UNL     1      -1.137   7.027  -4.895  0.00  0.00    +0.146 HD
BRANCH  20  22
ATOM     22  C   UNL     1       0.509   8.114  -5.794  0.00  0.00    +0.058 A 
ATOM     23  C   UNL     1       1.767   8.668  -5.596  0.00  0.00    +0.027 A 
ATOM     24  C   UNL     1       2.369   9.390  -6.607  0.00  0.00    +0.030 A 
ATOM     25  C   UNL     1       1.721   9.561  -7.817  0.00  0.00    +0.107 A 
ATOM     26  C   UNL     1       0.469   9.011  -8.018  0.00  0.00    +0.063 A 
ATOM     27  C   UNL     1      -0.137   8.283  -7.012  0.00  0.00    +0.149 A 
BRANCH  27  28
ATOM     28  N   UNL     1      -1.475   7.689  -7.230  0.00  0.00    +0.058 N 
ATOM     29  O   UNL     1      -1.738   6.593  -6.766  0.00  0.00    -0.126 OA
ATOM     30  O   UNL     1      -2.313   8.295  -7.873  0.00  0.00    -0.126 OA
ENDBRANCH  27  28
BRANCH  25  31
ATOM     31  S   UNL     1       2.493  10.483  -9.105  0.00  0.00    +0.056 S 
ATOM     32  O   UNL     1       1.450  10.960  -9.944  0.00  0.00    -0.153 OA
ATOM     33  O   UNL     1       3.424  11.354  -8.479  0.00  0.00    -0.153 OA
BRANCH  31  34
ATOM     34  N   UNL     1       3.377   9.415 -10.009  0.00  0.00    -0.204 NA
ATOM     35  H   UNL     1       3.877   9.954 -10.828  0.00  0.00    +0.144 HD
ATOM     36  H   UNL     1       2.709   8.649 -10.429  0.00  0.00    +0.144 HD
ENDBRANCH  31  34
ENDBRANCH  25  31
ENDBRANCH  20  22
ENDBRANCH  19  20
ENDBRANCH   1  19
TORSDOF 10
