REMARK  Name = ZINC00308342
REMARK  4 active torsions:
REMARK  status: ('A' for Active; 'I' for Inactive)
REMARK    1  A    between atoms: C_3  and  N_12
REMARK    2  A    between atoms: C_4  and  C_8
REMARK    3  A    between atoms: C_13  and  C_15
REMARK    4  A    between atoms: C_18  and  N_20
REMARK                            x       y       z     vdW  Elec       q    Type
REMARK                         _______ _______ _______ _____ _____    ______ ____
ROOT
ATOM      1  N   UNL     1      -3.516   2.319   0.029  0.00  0.00    -0.278 N 
ATOM      2  C   UNL     1      -2.558   1.564   0.602  0.00  0.00    +0.284 C 
ATOM      3  O   UNL     1      -2.851   0.507   1.130  0.00  0.00    -0.266 OA
ATOM      4  H   UNL     1      -3.297   3.196  -0.321  0.00  0.00    +0.155 HD
ENDROOT
BRANCH   1   7
ATOM      5  C   UNL     1      -6.360  -0.005  -0.148  0.00  0.00    +0.022 A 
ATOM      6  C   UNL     1      -5.066   0.469  -0.060  0.00  0.00    +0.025 A 
ATOM      7  C   UNL     1      -4.826   1.837  -0.061  0.00  0.00    +0.046 A 
ATOM      8  C   UNL     1      -5.891   2.725  -0.146  0.00  0.00    +0.077 A 
ATOM      9  C   UNL     1      -7.182   2.247  -0.240  0.00  0.00    +0.034 A 
ATOM     10  C   UNL     1      -7.418   0.883  -0.238  0.00  0.00    +0.042 A 
ATOM     11 CL   UNL     1      -9.044   0.285  -0.349  0.00  0.00    -0.084 Cl
BRANCH   8  12
ATOM     12  C   UNL     1      -5.635   4.211  -0.141  0.00  0.00    +0.419 C 
ATOM     13  F   UNL     1      -6.852   4.894  -0.235  0.00  0.00    -0.166 F 
ATOM     14  F   UNL     1      -4.990   4.569   1.048  0.00  0.00    -0.166 F 
ATOM     15  F   UNL     1      -4.826   4.548  -1.231  0.00  0.00    -0.166 F 
ENDBRANCH   8  12
ENDBRANCH   1   7
BRANCH   2  16
ATOM     16  C   UNL     1      -1.163   2.015   0.589  0.00  0.00    +0.192 A 
ATOM     17  C   UNL     1      -0.100   1.351   1.129  0.00  0.00    +0.057 A 
ATOM     18  C   UNL     1       1.036   2.138   0.882  0.00  0.00    +0.076 A 
ATOM     19  C   UNL     1       0.620   3.237   0.215  0.00  0.00    +0.280 A 
ATOM     20  O   UNL     1      -0.706   3.161   0.043  0.00  0.00    -0.429 OA
BRANCH  19  21
ATOM     21  N   UNL     1       1.488   4.343  -0.250  0.00  0.00    +0.093 N 
ATOM     22  O   UNL     1       2.687   4.306  -0.038  0.00  0.00    -0.123 OA
ATOM     23  O   UNL     1       1.003   5.288  -0.845  0.00  0.00    -0.123 OA
ENDBRANCH  19  21
ENDBRANCH   2  16
TORSDOF 4
