REMARK  Name = ZINC29154862
REMARK  13 active torsions:
REMARK  status: ('A' for Active; 'I' for Inactive)
REMARK    1  A    between atoms: C_1  and  C_2
REMARK    2  A    between atoms: C_8  and  C_20
REMARK    3  A    between atoms: C_12  and  C_13
REMARK    4  A    between atoms: C_13  and  O_15
REMARK    5  A    between atoms: O_15  and  C_16
REMARK    6  A    between atoms: C_16  and  C_17
REMARK    7  A    between atoms: C_17  and  O_18
REMARK    8  A    between atoms: O_18  and  C_19
REMARK    9  A    between atoms: C_20  and  N_21
REMARK   10  A    between atoms: N_21  and  C_22
REMARK   11  A    between atoms: N_21  and  C_23
REMARK   12  A    between atoms: C_23  and  C_24
REMARK   13  A    between atoms: C_29  and  N_30
REMARK                            x       y       z     vdW  Elec       q    Type
REMARK                         _______ _______ _______ _____ _____    ______ ____
ROOT
ATOM      1  C   UNL     1       4.729   1.600  -0.689  0.00  0.00    +0.046 C 
ATOM      2  C   UNL     1       3.320   2.122  -0.798  0.00  0.00    -0.015 A 
ATOM      3  C   UNL     1       2.239   1.277  -0.536  0.00  0.00    +0.076 A 
ATOM      4  C   UNL     1       2.241  -0.149  -0.139  0.00  0.00    +0.260 A 
ATOM      5  O   UNL     1       3.287  -0.757   0.004  0.00  0.00    -0.267 OA
ATOM      6  N   UNL     1       1.055  -0.758   0.060  0.00  0.00    -0.312 N 
ATOM      7  H   UNL     1       1.023  -1.817   0.356  0.00  0.00    +0.170 HD
ATOM      8  C   UNL     1      -0.115  -0.092  -0.096  0.00  0.00    +0.094 A 
ATOM      9  N   UNL     1      -0.152   1.166  -0.444  0.00  0.00    -0.229 NA
ATOM     10  C   UNL     1       0.957   1.859  -0.665  0.00  0.00    +0.116 A 
ATOM     11  S   UNL     1       1.315   3.532  -1.139  0.00  0.00    -0.062 S 
ATOM     12  C   UNL     1       3.096   3.421  -1.153  0.00  0.00    +0.102 A 
ENDROOT
BRANCH  12  13
ATOM     13  C   UNL     1       4.075   4.464  -1.467  0.00  0.00    +0.346 C 
ATOM     14  O   UNL     1       5.264   4.213  -1.427  0.00  0.00    -0.244 OA
BRANCH  13  15
ATOM     15  O   UNL     1       3.657   5.702  -1.801  0.00  0.00    -0.458 OA
BRANCH  15  16
ATOM     16  C   UNL     1       4.683   6.686  -2.099  0.00  0.00    +0.260 C 
BRANCH  16  17
ATOM     17  C   UNL     1       4.022   8.020  -2.454  0.00  0.00    +0.200 C 
BRANCH  17  18
ATOM     18  O   UNL     1       3.332   8.528  -1.310  0.00  0.00    -0.380 OA
ATOM     19  C   UNL     1       2.677   9.778  -1.535  0.00  0.00    +0.194 C 
ENDBRANCH  17  18
ENDBRANCH  16  17
ENDBRANCH  15  16
ENDBRANCH  13  15
ENDBRANCH  12  13
BRANCH   8  20
ATOM     20  C   UNL     1      -1.411  -0.824   0.141  0.00  0.00    -0.003 C 
BRANCH  20  21
ATOM     21  N   UNL     1      -2.538   0.090  -0.086  0.00  0.00    +0.385 N 
ATOM     22  C   UNL     1      -2.616   0.491  -1.497  0.00  0.00    -0.095 C 
ATOM     23  H   UNL     1      -2.365   0.996   0.514  0.00  0.00    -0.081 HD
BRANCH  21  24
ATOM     24  C   UNL     1      -3.802  -0.512   0.360  0.00  0.00    -0.041 C 
BRANCH  24  25
ATOM     25  C   UNL     1      -4.854   0.561   0.481  0.00  0.00    -0.043 A 
ATOM     26  C   UNL     1      -5.832   0.682  -0.486  0.00  0.00    +0.003 A 
ATOM     27  C   UNL     1      -6.801   1.662  -0.373  0.00  0.00    +0.000 A 
ATOM     28  C   UNL     1      -6.787   2.531   0.703  0.00  0.00    +0.002 A 
ATOM     29  C   UNL     1      -5.809   2.419   1.671  0.00  0.00    +0.023 A 
ATOM     30  C   UNL     1      -4.837   1.432   1.563  0.00  0.00    +0.031 A 
BRANCH  30  31
ATOM     31  N   UNL     1      -3.846   1.316   2.540  0.00  0.00    -0.330 N 
ATOM     32  C   UNL     1      -4.433   1.017   3.853  0.00  0.00    +0.105 C 
ATOM     33  C   UNL     1      -3.316   0.754   4.865  0.00  0.00    +0.019 C 
ATOM     34  C   UNL     1      -2.415   1.989   4.957  0.00  0.00    +0.003 C 
ATOM     35  C   UNL     1      -1.855   2.307   3.567  0.00  0.00    +0.019 C 
ATOM     36  C   UNL     1      -3.015   2.525   2.593  0.00  0.00    +0.105 C 
ENDBRANCH  30  31
ENDBRANCH  24  25
ENDBRANCH  21  24
ENDBRANCH  20  21
ENDBRANCH   8  20
TORSDOF 10
