REMARK  Name = ZINC36391776
REMARK  9 active torsions:
REMARK  status: ('A' for Active; 'I' for Inactive)
REMARK    1  A    between atoms: C_1  and  C_2
REMARK    2  A    between atoms: C_2  and  C_3
REMARK    3  A    between atoms: C_3  and  N_4
REMARK    4  A    between atoms: N_4  and  C_5
REMARK    5  A    between atoms: N_4  and  C_17
REMARK    6  A    between atoms: C_5  and  C_6
REMARK    7  A    between atoms: N_8  and  C_9
REMARK    8  A    between atoms: C_17  and  N_18
REMARK    9  A    between atoms: C_26  and  C_27
REMARK                            x       y       z     vdW  Elec       q    Type
REMARK                         _______ _______ _______ _____ _____    ______ ____
ROOT
ATOM      1  N   UNL     1       0.828  -1.944  -1.162  0.00  0.00    +0.396 N 
ATOM      2  H   UNL     1       1.180  -2.172  -0.245  0.00  0.00    -0.079 HD
ENDROOT
BRANCH   1   3
ATOM      3  C   UNL     1       0.706  -0.485  -1.291  0.00  0.00    -0.076 C 
BRANCH   3   5
ATOM      4  C   UNL     1      -0.170   1.587  -0.204  0.00  0.00    +0.002 C 
ATOM      5  C   UNL     1      -0.153   0.058  -0.147  0.00  0.00    -0.022 C 
ENDBRANCH   3   5
ENDBRANCH   1   3
BRANCH   1   6
ATOM      6  C   UNL     1      -0.492  -2.563  -1.347  0.00  0.00    +0.021 C 
BRANCH   6   7
ATOM      7  C   UNL     1      -0.403  -4.035  -1.038  0.00  0.00    +0.201 C 
ATOM      8  O   UNL     1       0.666  -4.532  -0.756  0.00  0.00    -0.278 OA
ATOM      9  N   UNL     1      -1.513  -4.800  -1.076  0.00  0.00    -0.286 N 
ATOM     10  H   UNL     1      -2.356  -4.416  -1.363  0.00  0.00    +0.155 HD
BRANCH   9  11
ATOM     11  C   UNL     1      -1.447  -6.147  -0.701  0.00  0.00    +0.053 A 
ATOM     12  C   UNL     1      -0.561  -6.552   0.287  0.00  0.00    +0.044 A 
ATOM     13  C   UNL     1      -0.499  -7.883   0.656  0.00  0.00    +0.043 A 
ATOM     14  C   UNL     1      -1.320  -8.811   0.040  0.00  0.00    +0.021 A 
ATOM     15  C   UNL     1      -2.204  -8.411  -0.946  0.00  0.00    +0.023 A 
ATOM     16  C   UNL     1      -2.274  -7.081  -1.314  0.00  0.00    +0.062 A 
ATOM     17 CL   UNL     1      -3.389  -6.578  -2.546  0.00  0.00    -0.082 Cl
ATOM     18 CL   UNL     1       0.609  -8.390   1.892  0.00  0.00    -0.083 Cl
ENDBRANCH   9  11
ENDBRANCH   6   7
ENDBRANCH   1   6
BRANCH   1  19
ATOM     19  C   UNL     1       1.754  -2.450  -2.183  0.00  0.00    +0.043 C 
BRANCH  19  20
ATOM     20  N   UNL     1       3.098  -1.925  -1.927  0.00  0.00    -0.241 N 
ATOM     21  C   UNL     1       3.568  -0.766  -2.432  0.00  0.00    +0.245 C 
ATOM     22  O   UNL     1       2.982   0.011  -3.156  0.00  0.00    -0.273 OA
ATOM     23  C   UNL     1       4.978  -0.638  -1.904  0.00  0.00    +0.115 C 
ATOM     24  C   UNL     1       5.976  -0.612  -3.057  0.00  0.00    +0.035 C 
ATOM     25  C   UNL     1       5.735   0.633  -3.913  0.00  0.00    +0.003 C 
ATOM     26  C   UNL     1       5.895   1.885  -3.048  0.00  0.00    +0.000 C 
ATOM     27  C   UNL     1       4.875   1.855  -1.909  0.00  0.00    +0.006 C 
ATOM     28  C   UNL     1       5.113   0.614  -1.045  0.00  0.00    +0.018 C 
ATOM     29  C   UNL     1       4.080   0.572   0.083  0.00  0.00    +0.010 C 
ATOM     30  N   UNL     1       5.165  -1.845  -1.089  0.00  0.00    -0.285 N 
ATOM     31  C   UNL     1       4.009  -2.534  -1.159  0.00  0.00    +0.308 C 
ATOM     32  O   UNL     1       3.817  -3.591  -0.590  0.00  0.00    -0.252 OA
ATOM     33  H   UNL     1       5.961  -2.095  -0.595  0.00  0.00    +0.151 HD
ENDBRANCH  19  20
ENDBRANCH   1  19
TORSDOF 7
