REMARK  Name = ZINC25507249
REMARK  10 active torsions:
REMARK  status: ('A' for Active; 'I' for Inactive)
REMARK    1  A    between atoms: C_1  and  C_2
REMARK    2  A    between atoms: C_5  and  N_9
REMARK    3  A    between atoms: C_7  and  C_8
REMARK    4  A    between atoms: C_10  and  C_29
REMARK    5  A    between atoms: C_13  and  S_14
REMARK    6  A    between atoms: S_14  and  C_15
REMARK    7  A    between atoms: C_15  and  C_17
REMARK    8  A    between atoms: C_15  and  C_18
REMARK    9  A    between atoms: N_23  and  C_24
REMARK   10  A    between atoms: C_24  and  C_25
REMARK                            x       y       z     vdW  Elec       q    Type
REMARK                         _______ _______ _______ _____ _____    ______ ____
ROOT
ATOM      1  N   UNL     1       2.404   1.105  -0.015  0.00  0.00    -0.270 N 
ATOM      2  C   UNL     1       2.918   0.293   0.973  0.00  0.00    +0.169 A 
ATOM      3  N   UNL     1       4.082  -0.142   0.547  0.00  0.00    -0.128 NA
ATOM      4  N   UNL     1       4.332   0.341  -0.617  0.00  0.00    -0.122 NA
ATOM      5  C   UNL     1       3.342   1.110  -1.011  0.00  0.00    +0.197 A 
ENDROOT
BRANCH   1  10
ATOM      6  C   UNL     1      -2.553   3.867   0.045  0.00  0.00    +0.044 C 
ATOM      7  C   UNL     1      -1.237   3.134   0.030  0.00  0.00    -0.047 A 
ATOM      8  C   UNL     1      -1.217   1.751   0.017  0.00  0.00    +0.005 A 
ATOM      9  C   UNL     1      -0.013   1.076   0.008  0.00  0.00    +0.026 A 
ATOM     10  C   UNL     1       1.180   1.787   0.000  0.00  0.00    +0.051 A 
ATOM     11  C   UNL     1       1.157   3.175   0.008  0.00  0.00    +0.030 A 
ATOM     12  C   UNL     1      -0.051   3.844   0.022  0.00  0.00    -0.046 A 
ATOM     13  C   UNL     1      -0.077   5.351   0.030  0.00  0.00    +0.044 C 
ENDBRANCH   1  10
BRANCH   2  14
ATOM     14  C   UNL     1       2.280  -0.029   2.266  0.00  0.00    +0.020 A 
ATOM     15  C   UNL     1       1.206   0.735   2.728  0.00  0.00    +0.011 A 
ATOM     16  C   UNL     1       0.611   0.425   3.933  0.00  0.00    +0.001 A 
ATOM     17  C   UNL     1       1.083  -0.633   4.689  0.00  0.00    +0.000 A 
ATOM     18  C   UNL     1       2.150  -1.391   4.241  0.00  0.00    +0.001 A 
ATOM     19  C   UNL     1       2.751  -1.095   3.034  0.00  0.00    +0.011 A 
ENDBRANCH   2  14
BRANCH   5  20
ATOM     20  S   UNL     1       3.241   1.986  -2.537  0.00  0.00    -0.073 S 
BRANCH  20  21
ATOM     21  C   UNL     1       4.816   1.498  -3.284  0.00  0.00    +0.137 C 
ATOM     22  C   UNL     1       4.806  -0.008  -3.556  0.00  0.00    +0.029 C 
BRANCH  21  23
ATOM     23  C   UNL     1       5.009   2.241  -4.581  0.00  0.00    +0.233 C 
ATOM     24  O   UNL     1       4.054   2.729  -5.147  0.00  0.00    -0.274 OA
ATOM     25  N   UNL     1       6.242   2.363  -5.111  0.00  0.00    -0.239 N 
ATOM     26  C   UNL     1       6.414   3.028  -6.270  0.00  0.00    +0.306 C 
ATOM     27  O   UNL     1       5.458   3.518  -6.838  0.00  0.00    -0.252 OA
ATOM     28  N   UNL     1       7.647   3.150  -6.800  0.00  0.00    -0.291 N 
ATOM     29  H   UNL     1       7.108   1.920  -4.596  0.00  0.00    +0.159 HD
ATOM     30  H   UNL     1       8.513   2.707  -6.286  0.00  0.00    +0.151 HD
BRANCH  28  31
ATOM     31  C   UNL     1       7.835   3.873  -8.060  0.00  0.00    +0.219 C 
BRANCH  31  32
ATOM     32  C   UNL     1       9.318   3.865  -8.438  0.00  0.00    +0.405 C 
ATOM     33  F   UNL     1       9.753   2.544  -8.588  0.00  0.00    -0.169 F 
ATOM     34  F   UNL     1       9.496   4.555  -9.641  0.00  0.00    -0.169 F 
ATOM     35  F   UNL     1      10.059   4.488  -7.428  0.00  0.00    -0.169 F 
ENDBRANCH  31  32
ENDBRANCH  28  31
ENDBRANCH  21  23
ENDBRANCH  20  21
ENDBRANCH   5  20
TORSDOF 7
