REMARK  Name = ZINC06281007
REMARK  5 active torsions:
REMARK  status: ('A' for Active; 'I' for Inactive)
REMARK    1  A    between atoms: C_1  and  C_2
REMARK    2  A    between atoms: C_9  and  C_11
REMARK    3  A    between atoms: C_12  and  C_32
REMARK    4  A    between atoms: C_16  and  C_18
REMARK    5  A    between atoms: C_28  and  C_31
REMARK                            x       y       z     vdW  Elec       q    Type
REMARK                         _______ _______ _______ _____ _____    ______ ____
ROOT
ATOM      1  C   UNL     1      -0.018   1.600   0.019  0.00  0.00    +0.043 C 
ATOM      2  C   UNL     1       1.178   2.210  -0.017  0.00  0.00    +0.014 C 
ATOM      3  N   UNL     1       2.331   1.474  -0.061  0.00  0.00    -0.321 N 
ATOM      4  C   UNL     1       2.307   0.167  -0.465  0.00  0.00    +0.016 C 
ATOM      5  C   UNL     1       1.155  -0.536  -0.445  0.00  0.00    +0.024 C 
ATOM      6  C   UNL     1      -0.129   0.103   0.022  0.00  0.00    +0.090 C 
ATOM      7  C   UNL     1       1.117  -1.880  -0.856  0.00  0.00    +0.162 C 
ATOM      8  O   UNL     1       0.060  -2.479  -0.841  0.00  0.00    -0.292 OA
ATOM      9  C   UNL     1       2.362  -2.589  -1.315  0.00  0.00    +0.083 C 
ATOM     10  C   UNL     1       3.576  -1.963  -0.620  0.00  0.00    -0.001 C 
ATOM     11  C   UNL     1       3.595  -0.465  -0.933  0.00  0.00    +0.055 C 
ATOM     12  C   UNL     1       4.859  -2.614  -1.142  0.00  0.00    +0.008 C 
ATOM     13  C   UNL     1       1.251   3.715  -0.010  0.00  0.00    +0.061 C 
ATOM     14  H   UNL     1       3.287   1.933   0.229  0.00  0.00    +0.152 HD
ENDROOT
BRANCH   1  23
ATOM     15  C   UNL     1      -7.008   5.000  -0.330  0.00  0.00    +0.045 C 
ATOM     16  C   UNL     1      -5.796   4.108  -0.256  0.00  0.00    -0.032 A 
ATOM     17  C   UNL     1      -5.929   2.732  -0.378  0.00  0.00    +0.008 A 
ATOM     18  C   UNL     1      -4.790   1.950  -0.304  0.00  0.00    +0.044 A 
ATOM     19  C   UNL     1      -3.558   2.565  -0.111  0.00  0.00    +0.125 A 
ATOM     20  N   UNL     1      -3.473   3.881   0.006  0.00  0.00    -0.240 NA
ATOM     21  C   UNL     1      -4.541   4.652  -0.065  0.00  0.00    +0.116 A 
ATOM     22  N   UNL     1      -2.404   1.790  -0.034  0.00  0.00    -0.267 N 
ATOM     23  C   UNL     1      -1.197   2.384   0.050  0.00  0.00    +0.248 C 
ATOM     24  O   UNL     1      -1.120   3.595   0.152  0.00  0.00    -0.270 OA
ATOM     25  H   UNL     1      -2.477   0.692  -0.041  0.00  0.00    +0.157 HD
ENDBRANCH   1  23
BRANCH   6  26
ATOM     26  C   UNL     1      -0.436  -0.367   1.420  0.00  0.00    -0.035 A 
ATOM     27  C   UNL     1       0.446  -0.097   2.449  0.00  0.00    +0.005 A 
ATOM     28  C   UNL     1       0.162  -0.524   3.733  0.00  0.00    +0.015 A 
ATOM     29  C   UNL     1      -0.999  -1.232   3.985  0.00  0.00    +0.018 A 
ATOM     30  C   UNL     1      -1.878  -1.508   2.954  0.00  0.00    +0.015 A 
ATOM     31  C   UNL     1      -1.596  -1.075   1.671  0.00  0.00    +0.005 A 
ATOM     32 BR   UNL     1      -1.383  -1.824   5.739  0.00  0.00    -0.050 Br
ENDBRANCH   6  26
TORSDOF 2
