REMARK  Name = ZINC35750036
REMARK  8 active torsions:
REMARK  status: ('A' for Active; 'I' for Inactive)
REMARK    1  A    between atoms: C_4  and  C_7
REMARK    2  A    between atoms: C_7  and  N_8
REMARK    3  A    between atoms: C_9  and  C_30
REMARK    4  A    between atoms: C_11  and  C_16
REMARK    5  A    between atoms: C_19  and  N_22
REMARK    6  A    between atoms: C_23  and  C_25
REMARK    7  A    between atoms: N_32  and  C_33
REMARK    8  A    between atoms: C_33  and  C_34
REMARK                            x       y       z     vdW  Elec       q    Type
REMARK                         _______ _______ _______ _____ _____    ______ ____
ROOT
ATOM      1  N   UNL     1       4.163  -0.922   1.323  0.00  0.00    -0.248 N 
ATOM      2  C   UNL     1       4.998  -0.025   2.146  0.00  0.00    +0.210 C 
ATOM      3  C   UNL     1       5.441  -0.956   3.300  0.00  0.00    +0.238 C 
ATOM      4  O   UNL     1       4.398  -1.950   3.301  0.00  0.00    -0.440 OA
ATOM      5  C   UNL     1       3.877  -2.010   2.064  0.00  0.00    +0.405 C 
ATOM      6  O   UNL     1       3.220  -2.947   1.656  0.00  0.00    -0.226 OA
ENDROOT
BRANCH   3   7
ATOM      7  C   UNL     1       5.478  -0.211   4.609  0.00  0.00    -0.005 A 
ATOM      8  C   UNL     1       4.326  -0.083   5.362  0.00  0.00    +0.009 A 
ATOM      9  C   UNL     1       4.356   0.599   6.563  0.00  0.00    +0.024 A 
ATOM     10  C   UNL     1       5.546   1.156   7.014  0.00  0.00    +0.034 A 
ATOM     11  C   UNL     1       6.702   1.025   6.255  0.00  0.00    +0.024 A 
ATOM     12  C   UNL     1       6.665   0.338   5.057  0.00  0.00    +0.009 A 
BRANCH  10  13
ATOM     13  N   UNL     1       5.580   1.847   8.229  0.00  0.00    -0.281 N 
ATOM     14  C   UNL     1       6.674   1.778   9.013  0.00  0.00    +0.255 C 
ATOM     15  O   UNL     1       7.664   1.184   8.626  0.00  0.00    -0.269 OA
ATOM     16  H   UNL     1       4.816   2.376   8.508  0.00  0.00    +0.155 HD
BRANCH  14  17
ATOM     17  C   UNL     1       6.673   2.419  10.331  0.00  0.00    +0.074 A 
ATOM     18  C   UNL     1       7.684   2.470  11.279  0.00  0.00    +0.021 A 
ATOM     19  C   UNL     1       7.385   3.152  12.434  0.00  0.00    +0.008 A 
ATOM     20  C   UNL     1       6.158   3.714  12.569  0.00  0.00    +0.046 A 
ATOM     21  S   UNL     1       5.374   3.341  11.131  0.00  0.00    -0.092 S 
ENDBRANCH  14  17
ENDBRANCH  10  13
ENDBRANCH   3   7
BRANCH   2  22
ATOM     22  C   UNL     1       4.187   1.133   2.668  0.00  0.00    +0.238 C 
ATOM     23  O   UNL     1       2.976   1.066   2.688  0.00  0.00    -0.274 OA
ATOM     24  N   UNL     1       4.808   2.244   3.113  0.00  0.00    -0.311 N 
ATOM     25  H   UNL     1       5.776   2.298   3.097  0.00  0.00    +0.149 HD
BRANCH  24  26
ATOM     26  C   UNL     1       4.019   3.370   3.620  0.00  0.00    +0.135 C 
BRANCH  26  27
ATOM     27  C   UNL     1       4.960   4.495   4.058  0.00  0.00    +0.135 C 
ATOM     28  C   UNL     1       4.146   5.636   4.705  0.00  0.00    +0.035 C 
ATOM     29  C   UNL     1       4.867   6.902   4.166  0.00  0.00    +0.031 C 
ATOM     30  C   UNL     1       5.288   6.422   2.754  0.00  0.00    +0.160 C 
ATOM     31  O   UNL     1       5.635   5.035   2.916  0.00  0.00    -0.375 OA
ENDBRANCH  26  27
ENDBRANCH  24  26
ENDBRANCH   2  22
BRANCH   1  32
ATOM     32  C   UNL     1       3.721  -0.672  -0.050  0.00  0.00    +0.147 C 
BRANCH  32  36
ATOM     33  C   UNL     1      -0.018   1.393   0.010  0.00  0.00    +0.000 A 
ATOM     34  C   UNL     1       1.166   2.107   0.006  0.00  0.00    +0.000 A 
ATOM     35  C   UNL     1       2.376   1.438  -0.014  0.00  0.00    +0.005 A 
ATOM     36  C   UNL     1       2.402   0.057  -0.028  0.00  0.00    -0.030 A 
ATOM     37  C   UNL     1       1.218  -0.657  -0.023  0.00  0.00    +0.005 A 
ATOM     38  C   UNL     1       0.008   0.011  -0.005  0.00  0.00    +0.000 A 
ENDBRANCH  32  36
ENDBRANCH   1  32
TORSDOF 8
