REMARK  Name = ZINC10754850
REMARK  10 active torsions:
REMARK  status: ('A' for Active; 'I' for Inactive)
REMARK    1  A    between atoms: C_1  and  C_2
REMARK    2  A    between atoms: N_11  and  C_15
REMARK    3  A    between atoms: C_15  and  C_16
REMARK    4  A    between atoms: C_16  and  O_18
REMARK    5  A    between atoms: O_18  and  C_19
REMARK    6  A    between atoms: C_19  and  C_21
REMARK    7  A    between atoms: C_19  and  C_22
REMARK    8  A    between atoms: N_24  and  C_25
REMARK    9  A    between atoms: C_25  and  C_27
REMARK   10  A    between atoms: C_25  and  C_28
REMARK                            x       y       z     vdW  Elec       q    Type
REMARK                         _______ _______ _______ _____ _____    ______ ____
ROOT
ATOM      1  C   UNL     1       0.169   2.100  -0.769  0.00  0.00    +0.326 C 
ATOM      2  O   UNL     1       0.043   0.905  -0.899  0.00  0.00    -0.249 OA
ENDROOT
BRANCH   1   3
ATOM      3  C   UNL     1      -1.039   2.998  -0.843  0.00  0.00    +0.238 C 
BRANCH   3  13
ATOM      4  C   UNL     1      -5.474   3.003  -0.777  0.00  0.00    +0.010 C 
ATOM      5  C   UNL     1      -5.465   1.510  -0.443  0.00  0.00    +0.018 C 
ATOM      6  C   UNL     1      -5.723   1.321   1.054  0.00  0.00    +0.006 C 
ATOM      7  C   UNL     1      -5.693  -0.171   1.391  0.00  0.00    +0.000 C 
ATOM      8  C   UNL     1      -4.320  -0.748   1.042  0.00  0.00    +0.003 C 
ATOM      9  C   UNL     1      -4.058  -0.567  -0.455  0.00  0.00    +0.035 C 
ATOM     10  C   UNL     1      -4.109   0.916  -0.805  0.00  0.00    +0.115 C 
ATOM     11  C   UNL     1      -3.001   1.663  -0.097  0.00  0.00    +0.247 C 
ATOM     12  O   UNL     1      -2.836   1.769   1.099  0.00  0.00    -0.273 OA
ATOM     13  N   UNL     1      -2.236   2.187  -1.077  0.00  0.00    -0.213 N 
ATOM     14  C   UNL     1      -2.711   1.879  -2.291  0.00  0.00    +0.310 C 
ATOM     15  O   UNL     1      -2.195   2.241  -3.330  0.00  0.00    -0.252 OA
ATOM     16  N   UNL     1      -3.821   1.119  -2.231  0.00  0.00    -0.285 N 
ATOM     17  H   UNL     1      -4.332   0.777  -2.981  0.00  0.00    +0.151 HD
ENDBRANCH   3  13
ENDBRANCH   1   3
BRANCH   1  18
ATOM     18  O   UNL     1       1.386   2.627  -0.564  0.00  0.00    -0.451 OA
BRANCH  18  19
ATOM     19  C   UNL     1       2.505   1.703  -0.510  0.00  0.00    +0.258 C 
ATOM     20  C   UNL     1       3.079   1.515  -1.916  0.00  0.00    +0.062 C 
BRANCH  19  21
ATOM     21  C   UNL     1       3.572   2.259   0.397  0.00  0.00    +0.254 C 
ATOM     22  O   UNL     1       3.406   3.328   0.945  0.00  0.00    -0.272 OA
ATOM     23  N   UNL     1       4.711   1.567   0.600  0.00  0.00    -0.306 N 
ATOM     24  H   UNL     1       4.844   0.712   0.162  0.00  0.00    +0.149 HD
BRANCH  23  25
ATOM     25  C   UNL     1       5.748   2.107   1.483  0.00  0.00    +0.102 C 
ATOM     26  C   UNL     1       5.462   1.684   2.925  0.00  0.00    +0.033 C 
BRANCH  25  27
ATOM     27  C   UNL     1       7.094   1.576   1.060  0.00  0.00    -0.009 A 
ATOM     28  C   UNL     1       7.183   0.358   0.412  0.00  0.00    +0.008 A 
ATOM     29  C   UNL     1       8.416  -0.128   0.020  0.00  0.00    +0.020 A 
ATOM     30  C   UNL     1       9.563   0.599   0.285  0.00  0.00    +0.042 A 
ATOM     31  C   UNL     1       9.475   1.815   0.939  0.00  0.00    +0.040 A 
ATOM     32  C   UNL     1       8.239   2.304   1.326  0.00  0.00    +0.047 A 
ATOM     33 CL   UNL     1       8.128   3.829   2.147  0.00  0.00    -0.083 Cl
ATOM     34 CL   UNL     1      11.112  -0.014  -0.202  0.00  0.00    -0.083 Cl
ENDBRANCH  25  27
ENDBRANCH  23  25
ENDBRANCH  19  21
ENDBRANCH  18  19
ENDBRANCH   1  18
TORSDOF 7
