REMARK  Name = ZINC62766956
REMARK  7 active torsions:
REMARK  status: ('A' for Active; 'I' for Inactive)
REMARK    1  A    between atoms: C_1  and  C_2
REMARK    2  A    between atoms: C_2  and  C_3
REMARK    3  A    between atoms: C_3  and  C_4
REMARK    4  A    between atoms: C_8  and  C_22
REMARK    5  A    between atoms: C_10  and  S_13
REMARK    6  A    between atoms: S_13  and  C_14
REMARK    7  A    between atoms: C_18  and  N_20
REMARK                            x       y       z     vdW  Elec       q    Type
REMARK                         _______ _______ _______ _____ _____    ______ ____
ROOT
ATOM      1  S   UNL     1       2.350  -0.449   2.728  0.00  0.00    -0.082 S 
ENDROOT
BRANCH   1   2
ATOM      2  C   UNL     1       1.106   0.715   2.276  0.00  0.00    +0.192 A 
ATOM      3  N   UNL     1       0.521   0.607   1.092  0.00  0.00    -0.207 NA
ATOM      4  C   UNL     1      -0.423   1.467   0.717  0.00  0.00    +0.122 A 
ATOM      5  C   UNL     1      -0.793   2.488   1.587  0.00  0.00    +0.086 A 
ATOM      6  C   UNL     1      -0.157   2.570   2.822  0.00  0.00    +0.122 A 
ATOM      7  N   UNL     1       0.775   1.671   3.131  0.00  0.00    -0.207 NA
ATOM      8  N   UNL     1      -1.029   1.347  -0.524  0.00  0.00    -0.343 N 
ATOM      9  H   UNL     1      -0.766   0.633  -1.126  0.00  0.00    +0.144 HD
ATOM     10  H   UNL     1      -1.716   1.978  -0.791  0.00  0.00    +0.144 HD
BRANCH   6  11
ATOM     11  N   UNL     1      -0.493   3.570   3.720  0.00  0.00    -0.343 N 
ATOM     12  H   UNL     1      -1.175   4.220   3.490  0.00  0.00    +0.144 HD
ATOM     13  H   UNL     1      -0.046   3.621   4.580  0.00  0.00    +0.144 HD
ENDBRANCH   6  11
ENDBRANCH   1   2
BRANCH   1  18
ATOM     14  C   UNL     1       1.081  -3.431   0.192  0.00  0.00    -0.010 C 
ATOM     15  C   UNL     1       2.269  -4.381   0.351  0.00  0.00    +0.004 C 
ATOM     16  C   UNL     1       3.570  -3.577   0.349  0.00  0.00    +0.016 C 
ATOM     17  C   UNL     1       3.555  -2.580   1.510  0.00  0.00    +0.115 C 
ATOM     18  C   UNL     1       2.367  -1.630   1.351  0.00  0.00    +0.068 C 
ATOM     19  C   UNL     1       1.066  -2.435   1.353  0.00  0.00    +0.019 C 
BRANCH  17  20
ATOM     20  C   UNL     1       4.837  -1.788   1.509  0.00  0.00    +0.360 C 
ATOM     21  O   UNL     1       5.139  -1.119   0.535  0.00  0.00    -0.246 OA
ATOM     22  O   UNL     1       5.572  -1.815   2.481  0.00  0.00    -0.246 OA
ENDBRANCH  17  20
BRANCH  14  23
ATOM     23  C   UNL     1       1.209  -2.671  -1.130  0.00  0.00    +0.003 C 
BRANCH  23  25
ATOM     24  C   UNL     1       1.227  -2.896  -3.618  0.00  0.00    +0.004 C 
ATOM     25  C   UNL     1       1.099  -3.655  -2.296  0.00  0.00    -0.003 C 
ENDBRANCH  23  25
ENDBRANCH  14  23
ENDBRANCH   1  18
TORSDOF 6
