REMARK  Name = ZINC22133127
REMARK  10 active torsions:
REMARK  status: ('A' for Active; 'I' for Inactive)
REMARK    1  A    between atoms: C_1  and  C_2
REMARK    2  A    between atoms: C_2  and  O_3
REMARK    3  A    between atoms: O_3  and  C_4
REMARK    4  A    between atoms: C_4  and  C_6
REMARK    5  A    between atoms: C_7  and  N_17
REMARK    6  A    between atoms: C_9  and  C_11
REMARK    7  A    between atoms: C_18  and  C_20
REMARK    8  A    between atoms: C_20  and  N_21
REMARK    9  A    between atoms: C_24  and  C_28
REMARK   10  A    between atoms: C_24  and  C_29
REMARK                            x       y       z     vdW  Elec       q    Type
REMARK                         _______ _______ _______ _____ _____    ______ ____
ROOT
ATOM      1  N   UNL     1       0.546   2.975  -5.539  0.00  0.00    -0.283 N 
ATOM      2  C   UNL     1       0.609   2.545  -4.264  0.00  0.00    +0.235 C 
ATOM      3  O   UNL     1       0.976   1.414  -4.023  0.00  0.00    -0.274 OA
ATOM      4  H   UNL     1       0.127   3.967  -5.765  0.00  0.00    +0.155 HD
ENDROOT
BRANCH   1   6
ATOM      5  C   UNL     1       0.530   2.315  -7.875  0.00  0.00    +0.118 A 
ATOM      6  C   UNL     1       1.012   2.163  -6.574  0.00  0.00    +0.055 A 
ATOM      7  C   UNL     1       1.959   1.197  -6.338  0.00  0.00    +0.040 A 
ATOM      8  C   UNL     1       2.387   0.413  -7.394  0.00  0.00    +0.022 A 
ATOM      9  S   UNL     1       1.439   1.060  -8.761  0.00  0.00    -0.080 S 
BRANCH   8  10
ATOM     10  C   UNL     1       3.382  -0.680  -7.392  0.00  0.00    -0.011 A 
ATOM     11  C   UNL     1       4.028  -1.038  -6.207  0.00  0.00    +0.009 A 
ATOM     12  C   UNL     1       4.951  -2.063  -6.211  0.00  0.00    +0.001 A 
ATOM     13  C   UNL     1       5.246  -2.728  -7.388  0.00  0.00    +0.000 A 
ATOM     14  C   UNL     1       4.614  -2.374  -8.567  0.00  0.00    +0.001 A 
ATOM     15  C   UNL     1       3.685  -1.355  -8.576  0.00  0.00    +0.009 A 
ENDBRANCH   8  10
BRANCH   5  16
ATOM     16  C   UNL     1      -0.430   3.229  -8.366  0.00  0.00    +0.348 C 
ATOM     17  O   UNL     1      -0.955   4.025  -7.609  0.00  0.00    -0.244 OA
BRANCH  16  18
ATOM     18  O   UNL     1      -0.765   3.219  -9.674  0.00  0.00    -0.461 OA
BRANCH  18  20
ATOM     19  C   UNL     1      -1.991   4.008 -11.601  0.00  0.00    +0.048 C 
ATOM     20  C   UNL     1      -1.743   4.170 -10.100  0.00  0.00    +0.229 C 
ENDBRANCH  18  20
ENDBRANCH  16  18
ENDBRANCH   5  16
ENDBRANCH   1   6
BRANCH   2  21
ATOM     21  C   UNL     1       0.223   3.468  -3.137  0.00  0.00    +0.214 C 
BRANCH  21  22
ATOM     22  N   UNL     1       0.377   2.769  -1.859  0.00  0.00    -0.215 N 
ATOM     23  C   UNL     1      -0.598   2.050  -1.267  0.00  0.00    +0.251 C 
ATOM     24  O   UNL     1      -1.724   1.867  -1.676  0.00  0.00    -0.272 OA
ATOM     25  C   UNL     1       0.008   1.518   0.017  0.00  0.00    +0.135 C 
ATOM     26  N   UNL     1       1.383   2.048  -0.003  0.00  0.00    -0.281 N 
ATOM     27  C   UNL     1       1.502   2.764  -1.135  0.00  0.00    +0.310 C 
ATOM     28  O   UNL     1       2.519   3.343  -1.464  0.00  0.00    -0.252 OA
ATOM     29  C   UNL     1      -0.754   2.044   1.235  0.00  0.00    +0.047 C 
ATOM     30  H   UNL     1       2.072   1.818   0.823  0.00  0.00    +0.152 HD
BRANCH  25  31
ATOM     31  C   UNL     1       0.021   0.011   0.012  0.00  0.00    -0.015 A 
ATOM     32  C   UNL     1      -1.007  -0.687  -0.594  0.00  0.00    +0.009 A 
ATOM     33  C   UNL     1      -0.994  -2.068  -0.605  0.00  0.00    +0.039 A 
ATOM     34  C   UNL     1       0.044  -2.755   0.003  0.00  0.00    +0.123 A 
ATOM     35  C   UNL     1       1.071  -2.055   0.615  0.00  0.00    +0.039 A 
ATOM     36  C   UNL     1       1.058  -0.673   0.618  0.00  0.00    +0.009 A 
ATOM     37  F   UNL     1       0.055  -4.106  -0.001  0.00  0.00    -0.205 F 
ENDBRANCH  25  31
ENDBRANCH  21  22
ENDBRANCH   2  21
TORSDOF 8
