REMARK  Name = ZINC63885862
REMARK  6 active torsions:
REMARK  status: ('A' for Active; 'I' for Inactive)
REMARK    1  A    between atoms: C_4  and  C_7
REMARK    2  A    between atoms: C_8  and  C_18
REMARK    3  A    between atoms: N_10  and  C_12
REMARK    4  A    between atoms: N_20  and  C_21
REMARK    5  A    between atoms: C_21  and  C_22
REMARK    6  A    between atoms: C_22  and  C_23
REMARK                            x       y       z     vdW  Elec       q    Type
REMARK                         _______ _______ _______ _____ _____    ______ ____
ROOT
ATOM      1  C   UNL     1       3.703  -0.679  -0.025  0.00  0.00    +0.105 A 
ATOM      2  C   UNL     1       4.026  -1.908   0.706  0.00  0.00    +0.082 A 
ATOM      3  C   UNL     1       5.328  -2.227   0.377  0.00  0.00    +0.128 A 
ATOM      4  N   UNL     1       5.778  -1.290  -0.477  0.00  0.00    -0.239 N 
ATOM      5  N   UNL     1       4.771  -0.352  -0.718  0.00  0.00    -0.166 NA
ENDROOT
BRANCH   1   9
ATOM      6  C   UNL     1       0.007   1.420   0.067  0.00  0.00    +0.000 A 
ATOM      7  C   UNL     1       0.559   0.945   1.243  0.00  0.00    +0.001 A 
ATOM      8  C   UNL     1       1.759   0.263   1.219  0.00  0.00    +0.010 A 
ATOM      9  C   UNL     1       2.414   0.053   0.007  0.00  0.00    +0.003 A 
ATOM     10  C   UNL     1       1.853   0.534  -1.175  0.00  0.00    +0.010 A 
ATOM     11  C   UNL     1       0.653   1.215  -1.139  0.00  0.00    +0.001 A 
ENDBRANCH   1   9
BRANCH   4  12
ATOM     12  C   UNL     1       7.059  -1.262  -1.042  0.00  0.00    +0.065 A 
ATOM     13  C   UNL     1       7.977  -2.259  -0.736  0.00  0.00    +0.028 A 
ATOM     14  C   UNL     1       9.239  -2.229  -1.295  0.00  0.00    +0.002 A 
ATOM     15  C   UNL     1       9.591  -1.207  -2.158  0.00  0.00    +0.000 A 
ATOM     16  C   UNL     1       8.680  -0.213  -2.464  0.00  0.00    +0.002 A 
ATOM     17  C   UNL     1       7.413  -0.241  -1.914  0.00  0.00    +0.028 A 
ENDBRANCH   4  12
BRANCH   2  18
ATOM     18  C   UNL     1       3.138  -2.655   1.613  0.00  0.00    +0.248 C 
ATOM     19  O   UNL     1       1.975  -2.322   1.735  0.00  0.00    -0.270 OA
ATOM     20  N   UNL     1       3.614  -3.708   2.306  0.00  0.00    -0.311 N 
ATOM     21  H   UNL     1       4.542  -3.974   2.209  0.00  0.00    +0.149 HD
BRANCH  20  22
ATOM     22  C   UNL     1       2.730  -4.451   3.208  0.00  0.00    +0.109 C 
BRANCH  22  23
ATOM     23  C   UNL     1       3.513  -5.589   3.867  0.00  0.00    +0.052 C 
BRANCH  23  24
ATOM     24  C   UNL     1       2.604  -6.353   4.794  0.00  0.00    -0.040 C 
ATOM     25  C   UNL     1       1.915  -7.482   4.511  0.00  0.00    -0.001 A 
ATOM     26  C   UNL     1       1.810  -8.305   3.299  0.00  0.00    +0.010 A 
ATOM     27  C   UNL     1       1.023  -9.404   3.319  0.00  0.00    +0.001 A 
ATOM     28  C   UNL     1       0.305  -9.776   4.464  0.00  0.00    +0.002 A 
ATOM     29  C   UNL     1       0.351  -9.071   5.614  0.00  0.00    +0.026 A 
ATOM     30  C   UNL     1       1.149  -7.897   5.707  0.00  0.00    +0.043 A 
ATOM     31  N   UNL     1       1.355  -7.057   6.692  0.00  0.00    -0.380 N 
ATOM     32  C   UNL     1       2.281  -6.016   6.233  0.00  0.00    +0.144 C 
ATOM     33  H   UNL     1       0.963  -7.116   7.577  0.00  0.00    +0.160 HD
ENDBRANCH  23  24
ENDBRANCH  22  23
ENDBRANCH  20  22
ENDBRANCH   2  18
TORSDOF 6
