REMARK  Name = ZINC06142737
REMARK  9 active torsions:
REMARK  status: ('A' for Active; 'I' for Inactive)
REMARK    1  A    between atoms: C_1  and  C_2
REMARK    2  A    between atoms: C_2  and  C_3
REMARK    3  A    between atoms: C_3  and  C_4
REMARK    4  A    between atoms: C_3  and  C_5
REMARK    5  A    between atoms: C_3  and  C_6
REMARK    6  A    between atoms: C_17  and  N_22
REMARK    7  A    between atoms: N_22  and  S_23
REMARK    8  A    between atoms: S_23  and  C_26
REMARK    9  A    between atoms: C_30  and  N_32
REMARK                            x       y       z     vdW  Elec       q    Type
REMARK                         _______ _______ _______ _____ _____    ______ ____
ROOT
ATOM      1  C   UNL     1      -0.783   3.105  -1.204  0.00  0.00    -0.004 C 
ATOM      2  C   UNL     1      -0.717   1.575  -1.252  0.00  0.00    +0.008 C 
ATOM      3  C   UNL     1      -0.013   1.086   0.008  0.00  0.00    +0.045 C 
ATOM      4  C   UNL     1      -0.683   1.554   1.268  0.00  0.00    +0.181 C 
ATOM      5  C   UNL     1      -1.159   3.003   1.292  0.00  0.00    +0.064 C 
ATOM      6  C   UNL     1      -1.673   3.516  -0.040  0.00  0.00    +0.016 C 
ATOM      7  C   UNL     1      -2.318   2.914   2.260  0.00  0.00    +0.003 A 
ATOM      8  C   UNL     1      -2.984   3.901   2.951  0.00  0.00    +0.032 A 
ATOM      9  C   UNL     1      -4.029   3.492   3.783  0.00  0.00    +0.049 A 
ATOM     10  C   UNL     1      -4.370   2.154   3.900  0.00  0.00    +0.028 A 
ATOM     11  C   UNL     1      -3.698   1.162   3.204  0.00  0.00    +0.048 A 
ATOM     12  C   UNL     1      -2.654   1.560   2.369  0.00  0.00    +0.125 A 
ATOM     13  O   UNL     1      -1.857   0.793   1.588  0.00  0.00    -0.488 OA
ENDROOT
BRANCH   1  14
ATOM     14  C   UNL     1      -1.367   3.635  -2.515  0.00  0.00    -0.032 C 
ATOM     15  C   UNL     1      -2.776   3.072  -2.710  0.00  0.00    +0.011 C 
ATOM     16  C   UNL     1      -1.431   5.163  -2.463  0.00  0.00    +0.011 C 
BRANCH  14  18
ATOM     17  C   UNL     1      -1.063   3.732  -4.993  0.00  0.00    +0.004 C 
ATOM     18  C   UNL     1      -0.478   3.201  -3.682  0.00  0.00    +0.003 C 
ENDBRANCH  14  18
ENDBRANCH   1  14
BRANCH   9  19
ATOM     19  N   UNL     1      -4.744   4.450   4.511  0.00  0.00    -0.216 N 
ATOM     20  H   UNL     1      -5.035   5.269   4.080  0.00  0.00    +0.174 HD
BRANCH  19  21
ATOM     21  S   UNL     1      -5.094   4.186   6.108  0.00  0.00    +0.072 S 
ATOM     22  O   UNL     1      -5.793   5.335   6.566  0.00  0.00    -0.150 OA
ATOM     23  O   UNL     1      -5.640   2.877   6.193  0.00  0.00    -0.150 OA
BRANCH  21  24
ATOM     24  C   UNL     1      -3.561   4.150   6.977  0.00  0.00    +0.111 A 
ATOM     25  C   UNL     1      -2.889   2.953   7.144  0.00  0.00    +0.029 A 
ATOM     26  C   UNL     1      -1.685   2.925   7.822  0.00  0.00    +0.004 A 
ATOM     27  C   UNL     1      -1.158   4.093   8.342  0.00  0.00    +0.033 A 
ATOM     28  C   UNL     1      -1.832   5.288   8.180  0.00  0.00    +0.128 A 
ATOM     29  C   UNL     1      -3.034   5.317   7.497  0.00  0.00    +0.061 A 
BRANCH  28  30
ATOM     30  N   UNL     1      -1.267   6.538   8.736  0.00  0.00    +0.056 N 
ATOM     31  O   UNL     1      -1.862   7.592   8.593  0.00  0.00    -0.126 OA
ATOM     32  O   UNL     1      -0.208   6.513   9.337  0.00  0.00    -0.126 OA
ENDBRANCH  28  30
ENDBRANCH  21  24
ENDBRANCH  19  21
ENDBRANCH   9  19
TORSDOF 6
