REMARK  Name = ZINC08922844
REMARK  10 active torsions:
REMARK  status: ('A' for Active; 'I' for Inactive)
REMARK    1  A    between atoms: C_1  and  C_2
REMARK    2  A    between atoms: C_2  and  C_3
REMARK    3  A    between atoms: C_2  and  N_58
REMARK    4  A    between atoms: C_11  and  O_32
REMARK    5  A    between atoms: C_13  and  C_16
REMARK    6  A    between atoms: C_19  and  O_24
REMARK    7  A    between atoms: C_20  and  O_22
REMARK    8  A    between atoms: O_22  and  C_23
REMARK    9  A    between atoms: O_24  and  C_25
REMARK   10  A    between atoms: C_25  and  C_27
REMARK                            x       y       z     vdW  Elec       q    Type
REMARK                         _______ _______ _______ _____ _____    ______ ____
ROOT
ATOM      1  C   UNL     1      -4.301  -0.321  -0.162  0.00  0.00    -0.073 C 
ATOM      2  C   UNL     1      -2.822  -0.043  -0.445  0.00  0.00    +0.018 C 
ATOM      3  C   UNL     1      -2.558   1.437  -0.188  0.00  0.00    -0.027 A 
ATOM      4  C   UNL     1      -3.594   2.309  -0.135  0.00  0.00    -0.021 A 
ATOM      5  S   UNL     1      -2.847   3.885   0.179  0.00  0.00    -0.080 S 
ATOM      6  C   UNL     1      -1.208   3.394   0.239  0.00  0.00    +0.080 A 
ATOM      7  C   UNL     1      -1.242   2.012   0.004  0.00  0.00    +0.067 A 
ATOM      8  C   UNL     1       0.058   1.293  -0.005  0.00  0.00    +0.220 C 
ATOM      9  N   UNL     1       1.148   2.008  -0.007  0.00  0.00    -0.223 NA
ATOM     10  C   UNL     1       1.188   3.462  -0.097  0.00  0.00    +0.224 C 
ATOM     11  N   UNL     1      -0.035   4.076   0.452  0.00  0.00    -0.313 N 
ATOM     12  C   UNL     1      -5.043   1.980  -0.309  0.00  0.00    -0.035 C 
ATOM     13  H   UNL     1      -0.013   4.916   0.936  0.00  0.00    +0.149 HD
ATOM     14  N   UNL     1      -5.134   0.633  -0.922  0.00  0.00    +0.384 N 
ATOM     15  H   UNL     1      -4.788   0.682  -1.888  0.00  0.00    -0.081 HD
ENDROOT
BRANCH  10  16
ATOM     16  C   UNL     1       1.333   3.862  -1.542  0.00  0.00    -0.002 A 
ATOM     17  C   UNL     1       0.794   5.056  -1.985  0.00  0.00    +0.011 A 
ATOM     18  C   UNL     1       0.928   5.429  -3.309  0.00  0.00    +0.050 A 
ATOM     19  C   UNL     1       1.596   4.602  -4.199  0.00  0.00    +0.173 A 
ATOM     20  C   UNL     1       2.134   3.398  -3.754  0.00  0.00    +0.163 A 
ATOM     21  C   UNL     1       2.000   3.032  -2.424  0.00  0.00    +0.056 A 
BRANCH  20  22
ATOM     22  O   UNL     1       2.789   2.582  -4.622  0.00  0.00    -0.491 OA
ATOM     23  C   UNL     1       3.314   1.362  -4.096  0.00  0.00    +0.277 C 
ENDBRANCH  20  22
BRANCH  19  24
ATOM     24  O   UNL     1       1.725   4.965  -5.502  0.00  0.00    -0.416 OA
BRANCH  24  25
ATOM     25  C   UNL     1       0.854   4.423  -6.378  0.00  0.00    +0.380 C 
ATOM     26  O   UNL     1      -0.057   3.725  -5.977  0.00  0.00    -0.241 OA
BRANCH  25  27
ATOM     27  C   UNL     1       1.006   4.675  -7.813  0.00  0.00    +0.212 A 
ATOM     28  C   UNL     1       0.200   4.190  -8.804  0.00  0.00    +0.056 A 
ATOM     29  C   UNL     1       0.710   4.680 -10.016  0.00  0.00    +0.042 A 
ATOM     30  C   UNL     1       1.792   5.433  -9.716  0.00  0.00    +0.196 A 
ATOM     31  O   UNL     1       1.964   5.431  -8.388  0.00  0.00    -0.456 OA
ENDBRANCH  25  27
ENDBRANCH  24  25
ENDBRANCH  19  24
ENDBRANCH  10  16
BRANCH  14  33
ATOM     32  C   UNL     1      -7.095   0.110   0.487  0.00  0.00    -0.014 C 
ATOM     33  C   UNL     1      -6.540   0.177  -0.937  0.00  0.00    -0.074 C 
ATOM     34  C   UNL     1      -7.373   1.159  -1.763  0.00  0.00    -0.014 C 
ENDBRANCH  14  33
BRANCH   8  35
ATOM     35  O   UNL     1       0.109  -0.059  -0.016  0.00  0.00    -0.492 OA
ATOM     36  H   UNL     1       1.006  -0.419  -0.025  0.00  0.00    +0.294 HD
ENDBRANCH   8  35
TORSDOF 7
