REMARK  Name = ZINC15672530
REMARK  8 active torsions:
REMARK  status: ('A' for Active; 'I' for Inactive)
REMARK    1  A    between atoms: C_1  and  C_2
REMARK    2  A    between atoms: C_4  and  C_26
REMARK    3  A    between atoms: C_6  and  C_8
REMARK    4  A    between atoms: C_16  and  C_18
REMARK    5  A    between atoms: C_18  and  N_19
REMARK    6  A    between atoms: N_22  and  C_23
REMARK    7  A    between atoms: C_23  and  C_24
REMARK    8  A    between atoms: C_23  and  C_25
REMARK                            x       y       z     vdW  Elec       q    Type
REMARK                         _______ _______ _______ _____ _____    ______ ____
ROOT
ATOM      1  C   UNL     1      -0.242   0.968  -0.077  0.00  0.00    +0.024 C 
ATOM      2  C   UNL     1       1.166   1.561  -0.177  0.00  0.00    -0.068 C 
ATOM      3  C   UNL     1       1.453   1.428   2.224  0.00  0.00    -0.078 C 
ATOM      4  C   UNL     1       0.053   0.831   2.393  0.00  0.00    -0.015 C 
ATOM      5  C   UNL     1      -0.851   1.364   1.274  0.00  0.00    -0.007 C 
ATOM      6  C   UNL     1      -0.889   2.895   1.364  0.00  0.00    -0.010 C 
ATOM      7  C   UNL     1       0.537   3.434   1.224  0.00  0.00    -0.051 C 
ATOM      8  N   UNL     1       1.495   2.322   1.048  0.00  0.00    +0.383 N 
ATOM      9  H   UNL     1       2.441   2.708   0.956  0.00  0.00    -0.081 HD
ENDROOT
BRANCH   1  15
ATOM     10  C   UNL     1      -0.595   2.889  -4.560  0.00  0.00    +0.088 C 
ATOM     11  C   UNL     1      -1.276   2.409  -3.304  0.00  0.00    +0.127 A 
ATOM     12  N   UNL     1      -2.588   2.475  -3.223  0.00  0.00    -0.232 NA
ATOM     13  C   UNL     1      -3.224   2.060  -2.129  0.00  0.00    +0.075 A 
ATOM     14  C   UNL     1      -2.474   1.554  -1.064  0.00  0.00    +0.052 A 
ATOM     15  C   UNL     1      -1.097   1.505  -1.196  0.00  0.00    +0.047 A 
ATOM     16  N   UNL     1      -0.540   1.942  -2.315  0.00  0.00    -0.237 NA
BRANCH  13  17
ATOM     17  C   UNL     1      -4.702   2.134  -2.041  0.00  0.00    +0.000 A 
ATOM     18  C   UNL     1      -5.350   1.802  -0.853  0.00  0.00    +0.010 A 
ATOM     19  C   UNL     1      -6.726   1.878  -0.776  0.00  0.00    +0.001 A 
ATOM     20  C   UNL     1      -7.463   2.272  -1.879  0.00  0.00    +0.000 A 
ATOM     21  C   UNL     1      -6.825   2.598  -3.062  0.00  0.00    +0.001 A 
ATOM     22  C   UNL     1      -5.449   2.531  -3.149  0.00  0.00    +0.010 A 
ENDBRANCH  13  17
ENDBRANCH   1  15
BRANCH   7  23
ATOM     23  C   UNL     1       0.617   4.357   0.006  0.00  0.00    +0.090 C 
BRANCH  23  24
ATOM     24  N   UNL     1       2.005   4.778  -0.198  0.00  0.00    -0.301 N 
ATOM     25  C   UNL     1       2.303   5.676  -1.157  0.00  0.00    +0.300 C 
ATOM     26  O   UNL     1       1.435   6.069  -1.913  0.00  0.00    -0.253 OA
ATOM     27  N   UNL     1       3.563   6.138  -1.280  0.00  0.00    -0.297 N 
ATOM     28  H   UNL     1       2.710   4.410   0.358  0.00  0.00    +0.150 HD
ATOM     29  H   UNL     1       4.255   5.825  -0.677  0.00  0.00    +0.150 HD
BRANCH  27  30
ATOM     30  C   UNL     1       3.887   7.114  -2.323  0.00  0.00    +0.068 C 
ATOM     31  C   UNL     1       5.115   7.924  -1.901  0.00  0.00    +0.027 C 
ATOM     32  C   UNL     1       4.185   6.381  -3.632  0.00  0.00    +0.027 C 
ENDBRANCH  27  30
ENDBRANCH  23  24
ENDBRANCH   7  23
TORSDOF 5
