REMARK  Name = ZINC39237427
REMARK  5 active torsions:
REMARK  status: ('A' for Active; 'I' for Inactive)
REMARK    1  A    between atoms: C_3  and  C_6
REMARK    2  A    between atoms: C_9  and  C_34
REMARK    3  A    between atoms: C_15  and  C_19
REMARK    4  A    between atoms: N_21  and  C_22
REMARK    5  A    between atoms: C_22  and  C_23
REMARK                            x       y       z     vdW  Elec       q    Type
REMARK                         _______ _______ _______ _____ _____    ______ ____
ROOT
ATOM      1  C   UNL     1       3.652   0.567   0.057  0.00  0.00    -0.000 C 
ATOM      2  C   UNL     1       4.081   0.367  -1.396  0.00  0.00    +0.021 C 
ATOM      3  C   UNL     1       5.606   0.188  -1.488  0.00  0.00    +0.174 C 
ATOM      4  N   UNL     1       5.969  -0.903  -0.592  0.00  0.00    -0.245 NA
ATOM      5  C   UNL     1       5.625  -0.514   0.804  0.00  0.00    +0.030 C 
ATOM      6  N   UNL     1       4.169  -0.517   0.913  0.00  0.00    +0.397 N 
ATOM      7  C   UNL     1       6.323  -1.598   1.634  0.00  0.00    +0.091 C 
ATOM      8  C   UNL     1       7.504  -2.044   0.736  0.00  0.00    +0.111 C 
ATOM      9  N   UNL     1       7.380  -1.245  -0.515  0.00  0.00    -0.254 NA
ATOM     10  H   UNL     1       3.899  -0.354   1.871  0.00  0.00    -0.082 HD
ATOM     11  H   UNL     1       7.665  -1.785  -1.319  0.00  0.00    +0.141 HD
ATOM     12  H   UNL     1       3.804  -1.404   0.600  0.00  0.00    -0.082 HD
ENDROOT
BRANCH   1  15
ATOM     13  C   UNL     1       0.033   1.233   0.252  0.00  0.00    +0.041 A 
ATOM     14  C   UNL     1       1.373   1.679   0.198  0.00  0.00    +0.043 A 
ATOM     15  C   UNL     1       2.147   0.581   0.131  0.00  0.00    +0.091 A 
ATOM     16  O   UNL     1       1.351  -0.500   0.142  0.00  0.00    -0.469 OA
ATOM     17  C   UNL     1       0.068  -0.111   0.215  0.00  0.00    +0.195 A 
ENDBRANCH   1  15
BRANCH   7  18
ATOM     18  C   UNL     1       6.829  -1.026   2.934  0.00  0.00    +0.217 C 
ATOM     19  O   UNL     1       6.654   0.146   3.189  0.00  0.00    -0.275 OA
ATOM     20  N   UNL     1       7.475  -1.818   3.812  0.00  0.00    -0.310 N 
ATOM     21  H   UNL     1       7.615  -2.756   3.608  0.00  0.00    +0.149 HD
BRANCH  20  22
ATOM     22  C   UNL     1       7.967  -1.262   5.075  0.00  0.00    +0.157 C 
BRANCH  22  23
ATOM     23  C   UNL     1       8.648  -2.346   5.870  0.00  0.00    +0.034 A 
ATOM     24  H   UNL     1       7.058  -3.239   6.876  0.00  0.00    +0.166 HD
ATOM     25  C   UNL     1       9.967  -2.591   5.867  0.00  0.00    +0.032 A 
ATOM     26  C   UNL     1      10.196  -3.721   6.771  0.00  0.00    +0.001 A 
ATOM     27  C   UNL     1      11.332  -4.424   7.177  0.00  0.00    +0.030 A 
ATOM     28  C   UNL     1      11.205  -5.469   8.066  0.00  0.00    +0.042 A 
ATOM     29  C   UNL     1       9.955  -5.824   8.557  0.00  0.00    +0.022 A 
ATOM     30  C   UNL     1       8.825  -5.141   8.165  0.00  0.00    +0.027 A 
ATOM     31  C   UNL     1       8.931  -4.082   7.269  0.00  0.00    +0.047 A 
ATOM     32  N   UNL     1       8.012  -3.223   6.707  0.00  0.00    -0.357 N 
ATOM     33 CL   UNL     1      12.614  -6.346   8.573  0.00  0.00    -0.084 Cl
ENDBRANCH  22  23
ENDBRANCH  20  22
ENDBRANCH   7  18
BRANCH   3  34
ATOM     34  C   UNL     1       6.308   1.476  -1.055  0.00  0.00    +0.406 C 
ATOM     35  F   UNL     1       5.826   1.872   0.197  0.00  0.00    -0.169 F 
ATOM     36  F   UNL     1       7.686   1.252  -0.974  0.00  0.00    -0.169 F 
ATOM     37  F   UNL     1       6.054   2.484  -1.992  0.00  0.00    -0.169 F 
ENDBRANCH   3  34
TORSDOF 5
