REMARK  Name = ZINC07849703
REMARK  3 active torsions:
REMARK  status: ('A' for Active; 'I' for Inactive)
REMARK    1  A    between atoms: C_4  and  N_22
REMARK    2  A    between atoms: C_5  and  N_7
REMARK    3  A    between atoms: C_11  and  C_14
REMARK                            x       y       z     vdW  Elec       q    Type
REMARK                         _______ _______ _______ _____ _____    ______ ____
ROOT
ATOM      1  N   UNL     1       1.249  -2.051  -0.022  0.00  0.00    -0.223 NA
ATOM      2  C   UNL     1       0.129  -2.730   0.085  0.00  0.00    +0.174 C 
ATOM      3  N   UNL     1      -1.118  -2.118   0.101  0.00  0.00    -0.215 N 
ATOM      4  N   UNL     1      -2.129  -2.642   0.901  0.00  0.00    -0.184 NA
ATOM      5  C   UNL     1      -2.133  -3.730   1.559  0.00  0.00    +0.077 C 
ATOM      6  C   UNL     1      -1.007  -4.722   1.655  0.00  0.00    +0.134 C 
ATOM      7  S   UNL     1       0.093  -4.503   0.213  0.00  0.00    -0.083 S 
ATOM      8  H   UNL     1      -1.282  -1.331  -0.442  0.00  0.00    +0.176 HD
ENDROOT
BRANCH   5   9
ATOM      9  C   UNL     1      -3.365  -4.052   2.302  0.00  0.00    +0.001 A 
ATOM     10  C   UNL     1      -3.445  -5.227   3.053  0.00  0.00    +0.013 A 
ATOM     11  C   UNL     1      -4.599  -5.524   3.746  0.00  0.00    +0.042 A 
ATOM     12  C   UNL     1      -5.680  -4.658   3.700  0.00  0.00    +0.158 A 
ATOM     13  C   UNL     1      -5.609  -3.489   2.956  0.00  0.00    +0.159 A 
ATOM     14  C   UNL     1      -4.455  -3.179   2.262  0.00  0.00    +0.051 A 
ATOM     15  F   UNL     1      -6.667  -2.650   2.915  0.00  0.00    -0.202 F 
ATOM     16  F   UNL     1      -6.809  -4.955   4.381  0.00  0.00    -0.202 F 
ENDBRANCH   5   9
BRANCH   1  21
ATOM     17  C   UNL     1       0.506   1.379   0.990  0.00  0.00    +0.002 A 
ATOM     18  C   UNL     1       1.170   2.086   0.003  0.00  0.00    +0.002 A 
ATOM     19  C   UNL     1       1.861   1.417  -0.992  0.00  0.00    +0.035 A 
ATOM     20  C   UNL     1       1.891   0.038  -1.006  0.00  0.00    +0.151 A 
ATOM     21  C   UNL     1       1.223  -0.683  -0.013  0.00  0.00    +0.097 A 
ATOM     22  C   UNL     1       0.528   0.000   0.988  0.00  0.00    +0.030 A 
BRANCH  20  23
ATOM     23  N   UNL     1       2.629  -0.677  -2.072  0.00  0.00    +0.059 N 
ATOM     24  O   UNL     1       3.207  -0.052  -2.931  0.00  0.00    -0.126 OA
ATOM     25  O   UNL     1       2.655  -1.886  -2.083  0.00  0.00    -0.126 OA
ENDBRANCH  20  23
ENDBRANCH   1  21
TORSDOF 3
