REMARK  Name = ZINC15275237
REMARK  6 active torsions:
REMARK  status: ('A' for Active; 'I' for Inactive)
REMARK    1  A    between atoms: C_1  and  C_2
REMARK    2  A    between atoms: C_2  and  N_3
REMARK    3  A    between atoms: C_7  and  C_9
REMARK    4  A    between atoms: C_9  and  S_10
REMARK    5  A    between atoms: S_10  and  C_11
REMARK    6  A    between atoms: N_24  and  C_25
REMARK                            x       y       z     vdW  Elec       q    Type
REMARK                         _______ _______ _______ _____ _____    ______ ____
ROOT
ATOM      1  C   UNL     1      -0.033  -4.765  -0.519  0.00  0.00    +0.178 A 
ATOM      2  N   UNL     1      -0.942  -3.823  -0.309  0.00  0.00    -0.215 NA
ATOM      3  C   UNL     1      -0.503  -2.627   0.066  0.00  0.00    +0.117 A 
ATOM      4  C   UNL     1       0.861  -2.309   0.253  0.00  0.00    +0.076 A 
ATOM      5  C   UNL     1       1.149  -0.945   0.665  0.00  0.00    -0.023 A 
ATOM      6  C   UNL     1       0.088  -0.124   0.829  0.00  0.00    -0.004 A 
ATOM      7  S   UNL     1      -1.333  -1.116   0.445  0.00  0.00    -0.073 S 
ATOM      8  C   UNL     1       0.110   1.315   1.246  0.00  0.00    +0.043 C 
ATOM      9  C   UNL     1       1.496   1.634   1.822  0.00  0.00    +0.005 C 
ATOM     10  C   UNL     1       2.561   1.091   0.864  0.00  0.00    +0.005 C 
ATOM     11  C   UNL     1       2.568  -0.437   0.908  0.00  0.00    +0.037 C 
ATOM     12  C   UNL     1       1.815  -3.352   0.018  0.00  0.00    +0.268 A 
ATOM     13  O   UNL     1       3.014  -3.174   0.152  0.00  0.00    -0.267 OA
ATOM     14  N   UNL     1       1.304  -4.546  -0.363  0.00  0.00    -0.255 N 
ENDROOT
BRANCH  14  15
ATOM     15  C   UNL     1       2.189  -5.605  -0.607  0.00  0.00    +0.052 A 
ATOM     16  C   UNL     1       2.705  -5.800  -1.881  0.00  0.00    +0.026 A 
ATOM     17  C   UNL     1       3.581  -6.841  -2.118  0.00  0.00    +0.002 A 
ATOM     18  C   UNL     1       3.934  -7.697  -1.091  0.00  0.00    +0.000 A 
ATOM     19  C   UNL     1       3.417  -7.508   0.178  0.00  0.00    +0.002 A 
ATOM     20  C   UNL     1       2.546  -6.465   0.422  0.00  0.00    +0.026 A 
ENDBRANCH  14  15
BRANCH   1  21
ATOM     21  S   UNL     1      -0.574  -6.366  -1.019  0.00  0.00    -0.078 S 
BRANCH  21  22
ATOM     22  C   UNL     1      -2.363  -6.092  -1.064  0.00  0.00    +0.173 C 
BRANCH  22  27
ATOM     23  N   UNL     1      -6.361  -8.570  -2.057  0.00  0.00    -0.299 N 
ATOM     24  C   UNL     1      -5.018  -8.536  -1.954  0.00  0.00    +0.306 C 
ATOM     25  O   UNL     1      -4.365  -9.532  -2.196  0.00  0.00    -0.252 OA
ATOM     26  N   UNL     1      -4.399  -7.398  -1.583  0.00  0.00    -0.240 N 
ATOM     27  C   UNL     1      -3.055  -7.365  -1.479  0.00  0.00    +0.231 C 
ATOM     28  O   UNL     1      -2.404  -8.358  -1.721  0.00  0.00    -0.274 OA
ATOM     29  H   UNL     1      -6.883  -7.775  -1.864  0.00  0.00    +0.150 HD
ATOM     30  H   UNL     1      -4.920  -6.603  -1.389  0.00  0.00    +0.159 HD
BRANCH  23  32
ATOM     31  C   UNL     1      -8.546  -9.575  -2.499  0.00  0.00    +0.024 C 
ATOM     32  C   UNL     1      -7.034  -9.806  -2.461  0.00  0.00    +0.102 C 
ENDBRANCH  23  32
ENDBRANCH  22  27
ENDBRANCH  21  22
ENDBRANCH   1  21
TORSDOF 5
