REMARK  Name = ZINC28723086
REMARK  7 active torsions:
REMARK  status: ('A' for Active; 'I' for Inactive)
REMARK    1  A    between atoms: C_1  and  C_2
REMARK    2  A    between atoms: C_15  and  C_17
REMARK    3  A    between atoms: C_17  and  C_19
REMARK    4  A    between atoms: C_17  and  N_20
REMARK    5  A    between atoms: N_20  and  C_21
REMARK    6  A    between atoms: N_20  and  C_22
REMARK    7  A    between atoms: C_22  and  C_23
REMARK                            x       y       z     vdW  Elec       q    Type
REMARK                         _______ _______ _______ _____ _____    ______ ____
ROOT
ATOM      1  C   UNL     1      -0.997   1.745   1.682  0.00  0.00    +0.008 C 
ATOM      2  C   UNL     1      -0.846   0.246   1.416  0.00  0.00    -0.009 C 
ATOM      3  C   UNL     1      -2.227  -0.416   1.410  0.00  0.00    +0.008 C 
ATOM      4  C   UNL     1      -2.110  -1.854   0.903  0.00  0.00    +0.037 C 
ATOM      5  C   UNL     1      -1.041  -2.579   1.715  0.00  0.00    -0.023 A 
ATOM      6  C   UNL     1      -0.123  -1.880   2.423  0.00  0.00    -0.004 A 
ATOM      7  S   UNL     1       0.901  -3.107   3.196  0.00  0.00    -0.073 S 
ATOM      8  C   UNL     1       0.098  -4.550   2.572  0.00  0.00    +0.116 A 
ATOM      9  C   UNL     1      -0.946  -4.027   1.777  0.00  0.00    +0.075 A 
ATOM     10  C   UNL     1      -1.800  -4.974   1.118  0.00  0.00    +0.260 A 
ATOM     11  O   UNL     1      -2.730  -4.626   0.410  0.00  0.00    -0.267 OA
ATOM     12  N   UNL     1      -1.507  -6.278   1.334  0.00  0.00    -0.309 N 
ATOM     13  H   UNL     1      -2.059  -6.952   0.907  0.00  0.00    +0.170 HD
ATOM     14  C   UNL     1      -0.479  -6.686   2.116  0.00  0.00    +0.128 A 
ATOM     15  N   UNL     1       0.324  -5.849   2.736  0.00  0.00    -0.225 NA
ATOM     16  C   UNL     1       0.003  -0.391   2.525  0.00  0.00    +0.046 C 
ENDROOT
BRANCH  14  17
ATOM     17  C   UNL     1      -0.246  -8.165   2.285  0.00  0.00    +0.120 C 
ATOM     18  C   UNL     1      -0.123  -8.822   0.908  0.00  0.00    +0.032 C 
BRANCH  17  19
ATOM     19  N   UNL     1       0.993  -8.382   3.043  0.00  0.00    -0.290 NA
ATOM     20  C   UNL     1       1.109  -9.783   3.471  0.00  0.00    +0.106 C 
BRANCH  19  21
ATOM     21  C   UNL     1       2.167  -7.971   2.262  0.00  0.00    +0.147 C 
BRANCH  21  22
ATOM     22  C   UNL     1       3.386  -7.975   3.148  0.00  0.00    +0.093 A 
ATOM     23  N   UNL     1       4.213  -8.956   3.364  0.00  0.00    -0.243 NA
ATOM     24  C   UNL     1       5.276  -8.834   4.185  0.00  0.00    +0.079 A 
ATOM     25  C   UNL     1       6.264  -9.778   4.533  0.00  0.00    +0.029 A 
ATOM     26  C   UNL     1       7.266  -9.447   5.393  0.00  0.00    +0.002 A 
ATOM     27  C   UNL     1       7.353  -8.180   5.955  0.00  0.00    +0.001 A 
ATOM     28  C   UNL     1       6.403  -7.227   5.637  0.00  0.00    +0.017 A 
ATOM     29  C   UNL     1       5.388  -7.552   4.770  0.00  0.00    +0.039 A 
ATOM     30  S   UNL     1       3.990  -6.708   4.077  0.00  0.00    -0.071 S 
ENDBRANCH  21  22
ENDBRANCH  19  21
ENDBRANCH  17  19
ENDBRANCH  14  17
TORSDOF 4
