REMARK  Name = ZINC64798519
REMARK  8 active torsions:
REMARK  status: ('A' for Active; 'I' for Inactive)
REMARK    1  A    between atoms: C_1  and  C_2
REMARK    2  A    between atoms: C_5  and  S_8
REMARK    3  A    between atoms: S_8  and  C_11
REMARK    4  A    between atoms: C_20  and  C_22
REMARK    5  A    between atoms: C_25  and  O_28
REMARK    6  A    between atoms: O_28  and  C_29
REMARK    7  A    between atoms: C_29  and  C_30
REMARK    8  A    between atoms: C_29  and  C_31
REMARK                            x       y       z     vdW  Elec       q    Type
REMARK                         _______ _______ _______ _____ _____    ______ ____
ROOT
ATOM      1  C   UNL     1       1.794  -5.207   0.394  0.00  0.00    +0.122 A 
ATOM      2  C   UNL     1       2.255  -5.954   1.426  0.00  0.00    +0.074 A 
ATOM      3  S   UNL     1       3.943  -6.272   0.932  0.00  0.00    -0.097 S 
ATOM      4  C   UNL     1       3.915  -5.389  -0.600  0.00  0.00    +0.021 A 
ATOM      5  C   UNL     1       2.636  -4.908  -0.674  0.00  0.00    +0.070 A 
ATOM      6  N   UNL     1       2.275  -4.134  -1.815  0.00  0.00    -0.283 N 
ATOM      7  C   UNL     1       3.116  -4.092  -2.862  0.00  0.00    +0.218 C 
ATOM      8  O   UNL     1       2.895  -3.295  -3.749  0.00  0.00    -0.275 OA
ATOM      9  C   UNL     1       4.318  -4.985  -2.986  0.00  0.00    +0.109 C 
ATOM     10  C   UNL     1       4.989  -5.177  -1.614  0.00  0.00    +0.066 C 
ATOM     11  H   UNL     1       1.436  -3.647  -1.836  0.00  0.00    +0.155 HD
ENDROOT
BRANCH  10  12
ATOM     12  C   UNL     1       5.795  -3.956  -1.252  0.00  0.00    -0.039 A 
ATOM     13  C   UNL     1       5.177  -2.724  -1.156  0.00  0.00    +0.008 A 
ATOM     14  C   UNL     1       5.914  -1.603  -0.825  0.00  0.00    +0.046 A 
ATOM     15  C   UNL     1       7.277  -1.716  -0.589  0.00  0.00    +0.121 A 
ATOM     16  C   UNL     1       7.895  -2.954  -0.686  0.00  0.00    +0.046 A 
ATOM     17  C   UNL     1       7.152  -4.072  -1.012  0.00  0.00    +0.008 A 
BRANCH  15  18
ATOM     18  O   UNL     1       8.004  -0.615  -0.264  0.00  0.00    -0.489 OA
BRANCH  18  19
ATOM     19  C   UNL     1       7.290   0.614  -0.114  0.00  0.00    +0.167 C 
ATOM     20  C   UNL     1       6.694   0.688   1.293  0.00  0.00    +0.051 C 
ATOM     21  C   UNL     1       8.247   1.789  -0.325  0.00  0.00    +0.051 C 
ENDBRANCH  18  19
ENDBRANCH  15  18
ENDBRANCH  10  12
BRANCH   1  22
ATOM     22  S   UNL     1       0.133  -4.621   0.401  0.00  0.00    +0.027 S 
ATOM     23  O   UNL     1       0.188  -3.239   0.073  0.00  0.00    -0.164 OA
ATOM     24  O   UNL     1      -0.461  -5.096   1.601  0.00  0.00    -0.164 OA
BRANCH  22  29
ATOM     25  C   UNL     1      -2.745  -7.357  -4.143  0.00  0.00    +0.044 C 
ATOM     26  C   UNL     1      -2.026  -6.673  -3.008  0.00  0.00    -0.050 A 
ATOM     27  C   UNL     1      -1.892  -7.313  -1.790  0.00  0.00    +0.005 A 
ATOM     28  C   UNL     1      -1.233  -6.686  -0.749  0.00  0.00    +0.027 A 
ATOM     29  C   UNL     1      -0.707  -5.420  -0.926  0.00  0.00    +0.094 A 
ATOM     30  C   UNL     1      -0.840  -4.781  -2.145  0.00  0.00    +0.027 A 
ATOM     31  C   UNL     1      -1.496  -5.410  -3.187  0.00  0.00    +0.005 A 
ENDBRANCH  22  29
ENDBRANCH   1  22
TORSDOF 5
