REMARK  Name = ZINC18014379
REMARK  9 active torsions:
REMARK  status: ('A' for Active; 'I' for Inactive)
REMARK    1  A    between atoms: C_1  and  C_2
REMARK    2  A    between atoms: C_5  and  C_25
REMARK    3  A    between atoms: C_6  and  C_8
REMARK    4  A    between atoms: C_8  and  C_10
REMARK    5  A    between atoms: C_8  and  N_11
REMARK    6  A    between atoms: C_12  and  C_14
REMARK    7  A    between atoms: C_16  and  S_21
REMARK    8  A    between atoms: C_19  and  C_20
REMARK    9  A    between atoms: S_21  and  N_24
REMARK                            x       y       z     vdW  Elec       q    Type
REMARK                         _______ _______ _______ _____ _____    ______ ____
ROOT
ATOM      1  N   UNL     1      -3.640   2.206   0.701  0.00  0.00    -0.305 N 
ATOM      2  C   UNL     1      -2.494   1.511   0.557  0.00  0.00    +0.245 C 
ATOM      3  O   UNL     1      -2.501   0.300   0.657  0.00  0.00    -0.270 OA
ATOM      4  H   UNL     1      -3.635   3.172   0.622  0.00  0.00    +0.150 HD
ENDROOT
BRANCH   2   5
ATOM      5  C   UNL     1      -1.228   2.223   0.280  0.00  0.00    +0.041 A 
ATOM      6  C   UNL     1      -1.191   3.619   0.295  0.00  0.00    +0.041 A 
ATOM      7  C   UNL     1      -0.008   4.277   0.029  0.00  0.00    +0.106 A 
ATOM      8  C   UNL     1       1.141   3.557  -0.247  0.00  0.00    +0.029 A 
ATOM      9  C   UNL     1       1.112   2.173  -0.258  0.00  0.00    +0.006 A 
ATOM     10  C   UNL     1      -0.065   1.503   0.007  0.00  0.00    -0.038 A 
ATOM     11  C   UNL     1      -0.094  -0.004  -0.006  0.00  0.00    +0.044 C 
BRANCH   7  12
ATOM     12  S   UNL     1       0.040   6.038   0.040  0.00  0.00    +0.056 S 
ATOM     13  O   UNL     1      -1.038   6.468   0.861  0.00  0.00    -0.153 OA
ATOM     14  O   UNL     1       1.388   6.406   0.298  0.00  0.00    -0.153 OA
BRANCH  12  15
ATOM     15  N   UNL     1      -0.304   6.547  -1.498  0.00  0.00    -0.204 NA
ATOM     16  H   UNL     1      -0.483   5.897  -2.195  0.00  0.00    +0.144 HD
ATOM     17  H   UNL     1      -0.327   7.495  -1.701  0.00  0.00    +0.144 HD
ENDBRANCH  12  15
ENDBRANCH   7  12
ENDBRANCH   2   5
BRANCH   1  18
ATOM     18  C   UNL     1      -4.894   1.500   0.976  0.00  0.00    +0.101 C 
ATOM     19  C   UNL     1      -5.515   1.031  -0.341  0.00  0.00    +0.033 C 
BRANCH  18  25
ATOM     20  C   UNL     1      -6.473   6.141   1.984  0.00  0.00    +0.044 C 
ATOM     21  C   UNL     1      -6.605   4.651   2.161  0.00  0.00    -0.050 A 
ATOM     22  C   UNL     1      -7.602   4.136   2.968  0.00  0.00    +0.003 A 
ATOM     23  C   UNL     1      -7.723   2.769   3.131  0.00  0.00    +0.004 A 
ATOM     24  C   UNL     1      -6.847   1.916   2.486  0.00  0.00    -0.046 A 
ATOM     25  C   UNL     1      -5.850   2.430   1.679  0.00  0.00    -0.024 A 
ATOM     26  C   UNL     1      -5.725   3.798   1.521  0.00  0.00    +0.009 A 
ATOM     27  C   UNL     1      -6.979   0.425   2.663  0.00  0.00    +0.044 C 
ENDBRANCH  18  25
ENDBRANCH   1  18
TORSDOF 5
