REMARK  Name = ZINC13503190
REMARK  15 active torsions:
REMARK  status: ('A' for Active; 'I' for Inactive)
REMARK    1  A    between atoms: C_1  and  C_2
REMARK    2  A    between atoms: C_2  and  C_3
REMARK    3  A    between atoms: C_3  and  C_4
REMARK    4  A    between atoms: C_4  and  C_6
REMARK    5  A    between atoms: C_4  and  N_13
REMARK    6  A    between atoms: N_8  and  C_9
REMARK    7  A    between atoms: C_9  and  C_10
REMARK    8  A    between atoms: C_9  and  C_11
REMARK    9  A    between atoms: C_9  and  C_12
REMARK   10  A    between atoms: N_13  and  C_14
REMARK   11  A    between atoms: C_14  and  C_15
REMARK   12  A    between atoms: C_21  and  C_23
REMARK   13  A    between atoms: C_23  and  N_24
REMARK   14  A    between atoms: N_24  and  S_25
REMARK   15  A    between atoms: S_25  and  C_28
REMARK                            x       y       z     vdW  Elec       q    Type
REMARK                         _______ _______ _______ _____ _____    ______ ____
ROOT
ATOM      1  N   UNL     1       4.064  -0.206  -2.615  0.00  0.00    -0.286 N 
ATOM      2  C   UNL     1       5.010  -1.128  -2.883  0.00  0.00    +0.232 C 
ATOM      3  O   UNL     1       4.706  -2.299  -2.973  0.00  0.00    -0.274 OA
ENDROOT
BRANCH   1   4
ATOM      4  C   UNL     1       2.670  -0.617  -2.432  0.00  0.00    +0.162 C 
BRANCH   4   5
ATOM      5  C   UNL     1       2.140  -1.182  -3.725  0.00  0.00    +0.234 C 
ATOM      6  O   UNL     1       2.902  -1.436  -4.633  0.00  0.00    -0.274 OA
ATOM      7  N   UNL     1       0.819  -1.405  -3.871  0.00  0.00    -0.309 N 
ATOM      8  H   UNL     1       0.209  -1.202  -3.144  0.00  0.00    +0.149 HD
BRANCH   7   9
ATOM      9  C   UNL     1       0.303  -1.954  -5.127  0.00  0.00    +0.026 C 
ATOM     10  C   UNL     1       0.939  -3.321  -5.386  0.00  0.00    +0.031 C 
ATOM     11  C   UNL     1       0.647  -1.006  -6.278  0.00  0.00    +0.031 C 
ATOM     12  C   UNL     1      -1.216  -2.108  -5.031  0.00  0.00    +0.031 C 
ENDBRANCH   7   9
ENDBRANCH   4   5
BRANCH   4  13
ATOM     13  C   UNL     1       2.593  -1.685  -1.339  0.00  0.00    +0.032 C 
BRANCH  13  15
ATOM     14  C   UNL     1       2.936  -2.144   1.093  0.00  0.00    +0.004 C 
ATOM     15  C   UNL     1       3.013  -1.076  -0.000  0.00  0.00    -0.001 C 
ENDBRANCH  13  15
ENDBRANCH   4  13
ENDBRANCH   1   4
BRANCH   1  16
ATOM     16  C   UNL     1       4.430   1.209  -2.506  0.00  0.00    +0.140 C 
BRANCH  16  17
ATOM     17  C   UNL     1       4.653   1.566  -1.035  0.00  0.00    +0.136 C 
ATOM     18  C   UNL     1       5.021   3.060  -0.894  0.00  0.00    +0.035 C 
ATOM     19  C   UNL     1       6.068   3.083   0.242  0.00  0.00    +0.031 C 
ATOM     20  C   UNL     1       6.209   1.600   0.653  0.00  0.00    +0.160 C 
ATOM     21  O   UNL     1       5.795   0.854  -0.512  0.00  0.00    -0.375 OA
ENDBRANCH  16  17
ENDBRANCH   1  16
BRANCH   2  22
ATOM     22  C   UNL     1       6.444  -0.704  -3.071  0.00  0.00    +0.201 C 
BRANCH  22  23
ATOM     23  N   UNL     1       7.268  -1.883  -3.350  0.00  0.00    -0.181 NA
ATOM     24  H   UNL     1       6.919  -2.771  -3.176  0.00  0.00    +0.149 HD
BRANCH  23  25
ATOM     25  S   UNL     1       8.796  -1.698  -3.961  0.00  0.00    +0.059 S 
ATOM     26  O   UNL     1       9.341  -3.004  -4.095  0.00  0.00    -0.153 OA
ATOM     27  O   UNL     1       8.689  -0.801  -5.058  0.00  0.00    -0.153 OA
BRANCH  25  28
ATOM     28  C   UNL     1       9.754  -0.877  -2.731  0.00  0.00    +0.105 A 
ATOM     29  C   UNL     1       9.821   0.504  -2.714  0.00  0.00    +0.030 A 
ATOM     30  C   UNL     1      10.567   1.148  -1.746  0.00  0.00    +0.022 A 
ATOM     31  C   UNL     1      11.256   0.411  -0.800  0.00  0.00    +0.041 A 
ATOM     32  C   UNL     1      11.194  -0.971  -0.820  0.00  0.00    +0.022 A 
ATOM     33  C   UNL     1      10.442  -1.614  -1.785  0.00  0.00    +0.030 A 
ATOM     34 CL   UNL     1      12.199   1.220   0.413  0.00  0.00    -0.084 Cl
ENDBRANCH  25  28
ENDBRANCH  23  25
ENDBRANCH  22  23
ENDBRANCH   2  22
TORSDOF 11
