REMARK  Name = ZINC42094259
REMARK  7 active torsions:
REMARK  status: ('A' for Active; 'I' for Inactive)
REMARK    1  A    between atoms: C_3  and  C_6
REMARK    2  A    between atoms: C_6  and  N_7
REMARK    3  A    between atoms: C_8  and  C_23
REMARK    4  A    between atoms: N_10  and  C_13
REMARK    5  A    between atoms: C_13  and  N_14
REMARK    6  A    between atoms: N_14  and  C_15
REMARK    7  A    between atoms: N_14  and  C_20
REMARK                            x       y       z     vdW  Elec       q    Type
REMARK                         _______ _______ _______ _____ _____    ______ ____
ROOT
ATOM      1  N   UNL     1       3.697   1.510   1.945  0.00  0.00    -0.296 N 
ATOM      2  C   UNL     1       4.159   2.480   2.814  0.00  0.00    +0.163 A 
ATOM      3  N   UNL     1       4.832   1.896   3.766  0.00  0.00    -0.152 NA
ATOM      4  N   UNL     1       4.817   0.516   3.525  0.00  0.00    -0.257 N 
ATOM      5  C   UNL     1       4.105   0.308   2.398  0.00  0.00    +0.177 A 
ATOM      6  S   UNL     1       3.781  -1.208   1.672  0.00  0.00    -0.011 S 
ENDROOT
BRANCH   2   7
ATOM      7  C   UNL     1       3.929   3.936   2.686  0.00  0.00    +0.022 A 
ATOM      8  C   UNL     1       3.666   4.724   3.812  0.00  0.00    +0.031 A 
ATOM      9  C   UNL     1       3.457   6.078   3.647  0.00  0.00    +0.111 A 
ATOM     10  N   UNL     1       3.503   6.629   2.449  0.00  0.00    -0.263 NA
ATOM     11  C   UNL     1       3.747   5.922   1.362  0.00  0.00    +0.111 A 
ATOM     12  C   UNL     1       3.973   4.564   1.436  0.00  0.00    +0.031 A 
ENDBRANCH   2   7
BRANCH   1  13
ATOM     13  C   UNL     1       2.895   1.748   0.742  0.00  0.00    +0.200 C 
BRANCH  13  16
ATOM     14  C   UNL     1      -0.662   1.970   1.681  0.00  0.00    +0.041 A 
ATOM     15  C   UNL     1       0.610   2.561   1.494  0.00  0.00    +0.046 A 
ATOM     16  C   UNL     1       1.434   1.585   1.072  0.00  0.00    +0.125 A 
ATOM     17  O   UNL     1       0.734   0.442   0.994  0.00  0.00    -0.466 OA
ATOM     18  C   UNL     1      -0.538   0.670   1.362  0.00  0.00    +0.195 A 
ENDBRANCH  13  16
ENDBRANCH   1  13
BRANCH   4  19
ATOM     19  C   UNL     1       5.454  -0.514   4.349  0.00  0.00    +0.072 C 
BRANCH  19  20
ATOM     20  N   UNL     1       4.665  -0.720   5.571  0.00  0.00    +0.396 N 
ATOM     21  H   UNL     1       4.548   0.162   6.048  0.00  0.00    -0.078 HD
BRANCH  20  22
ATOM     22  C   UNL     1       5.365  -1.664   6.453  0.00  0.00    -0.066 C 
ATOM     23  C   UNL     1       4.649  -1.743   7.817  0.00  0.00    -0.015 C 
ATOM     24  C   UNL     1       5.801  -1.885   8.842  0.00  0.00    -0.002 C 
ATOM     25  C   UNL     1       6.895  -0.957   8.259  0.00  0.00    -0.002 C 
ATOM     26  C   UNL     1       6.793  -1.164   6.734  0.00  0.00    -0.015 C 
ENDBRANCH  20  22
BRANCH  20  27
ATOM     27  C   UNL     1       3.347  -1.264   5.218  0.00  0.00    -0.066 C 
ATOM     28  C   UNL     1       2.150  -0.313   5.278  0.00  0.00    -0.017 C 
ATOM     29  C   UNL     1       2.316  -1.402   6.340  0.00  0.00    -0.017 C 
ENDBRANCH  20  27
ENDBRANCH  19  20
ENDBRANCH   4  19
TORSDOF 7
