REMARK  Name = ZINC64120629
REMARK  6 active torsions:
REMARK  status: ('A' for Active; 'I' for Inactive)
REMARK    1  A    between atoms: C_4  and  C_7
REMARK    2  A    between atoms: C_7  and  C_8
REMARK    3  A    between atoms: C_8  and  N_9
REMARK    4  A    between atoms: C_16  and  C_19
REMARK    5  A    between atoms: C_19  and  N_20
REMARK    6  A    between atoms: C_21  and  C_23
REMARK                            x       y       z     vdW  Elec       q    Type
REMARK                         _______ _______ _______ _____ _____    ______ ____
ROOT
ATOM      1  N   UNL     1       5.447  -1.682   1.382  0.00  0.00    -0.299 N 
ATOM      2  C   UNL     1       6.050  -2.013   2.541  0.00  0.00    +0.302 C 
ATOM      3  O   UNL     1       5.581  -1.640   3.599  0.00  0.00    -0.253 OA
ATOM      4  N   UNL     1       7.173  -2.758   2.528  0.00  0.00    -0.285 N 
ATOM      5  C   UNL     1       7.819  -3.115   1.258  0.00  0.00    +0.109 C 
ATOM      6  C   UNL     1       9.291  -2.693   1.317  0.00  0.00    +0.019 C 
ATOM      7  C   UNL     1       9.947  -3.313   2.552  0.00  0.00    +0.008 C 
ATOM      8  C   UNL     1       9.246  -2.804   3.814  0.00  0.00    +0.024 C 
ATOM      9  C   UNL     1       7.778  -3.223   3.784  0.00  0.00    +0.114 C 
ATOM     10  H   UNL     1       5.860  -1.918   0.536  0.00  0.00    +0.150 HD
ENDROOT
BRANCH   1  11
ATOM     11  C   UNL     1       4.169  -0.967   1.400  0.00  0.00    +0.110 C 
BRANCH  11  12
ATOM     12  C   UNL     1       3.705  -0.716  -0.037  0.00  0.00    +0.054 C 
BRANCH  12  16
ATOM     13  C   UNL     1      -0.022   1.371   0.012  0.00  0.00    +0.000 A 
ATOM     14  C   UNL     1       1.166   2.078  -0.001  0.00  0.00    +0.000 A 
ATOM     15  C   UNL     1       2.372   1.403  -0.017  0.00  0.00    +0.004 A 
ATOM     16  C   UNL     1       2.391   0.020  -0.019  0.00  0.00    -0.046 A 
ATOM     17  C   UNL     1       1.203  -0.687  -0.005  0.00  0.00    +0.004 A 
ATOM     18  C   UNL     1      -0.003  -0.011   0.009  0.00  0.00    +0.000 A 
ENDBRANCH  12  16
ENDBRANCH  11  12
ENDBRANCH   1  11
BRANCH   8  19
ATOM     19  C   UNL     1       9.924  -3.399   5.050  0.00  0.00    +0.109 C 
BRANCH  19  20
ATOM     20  N   UNL     1       9.332  -2.819   6.258  0.00  0.00    -0.313 N 
ATOM     21  C   UNL     1       9.775  -3.197   7.474  0.00  0.00    +0.239 C 
ATOM     22  O   UNL     1      10.664  -4.018   7.567  0.00  0.00    -0.273 OA
ATOM     23  H   UNL     1       8.622  -2.163   6.184  0.00  0.00    +0.149 HD
BRANCH  21  24
ATOM     24  C   UNL     1       9.166  -2.601   8.717  0.00  0.00    +0.190 C 
ATOM     25  C   UNL     1       9.408  -1.109   8.751  0.00  0.00    +0.016 C 
ATOM     26  C   UNL     1      10.132  -0.872   9.868  0.00  0.00    -0.004 A 
ATOM     27  C   UNL     1      10.677   0.357  10.458  0.00  0.00    +0.010 A 
ATOM     28  C   UNL     1      11.377   0.276  11.612  0.00  0.00    +0.001 A 
ATOM     29  C   UNL     1      11.595  -0.949  12.258  0.00  0.00    +0.002 A 
ATOM     30  C   UNL     1      11.126  -2.120  11.777  0.00  0.00    +0.026 A 
ATOM     31  C   UNL     1      10.376  -2.152  10.570  0.00  0.00    +0.043 A 
ATOM     32  N   UNL     1       9.822  -3.144   9.912  0.00  0.00    -0.370 N 
ATOM     33  H   UNL     1       9.844  -4.079  10.171  0.00  0.00    +0.161 HD
ENDBRANCH  21  24
ENDBRANCH  19  20
ENDBRANCH   8  19
TORSDOF 6
