REMARK  Name = ZINC62922218
REMARK  5 active torsions:
REMARK  status: ('A' for Active; 'I' for Inactive)
REMARK    1  A    between atoms: C_1  and  C_2
REMARK    2  A    between atoms: C_2  and  C_3
REMARK    3  A    between atoms: C_3  and  C_4
REMARK    4  A    between atoms: C_4  and  C_18
REMARK    5  A    between atoms: N_11  and  C_12
REMARK                            x       y       z     vdW  Elec       q    Type
REMARK                         _______ _______ _______ _____ _____    ______ ____
ROOT
ATOM      1  C   UNL     1       0.763  -2.041   1.233  0.00  0.00    +0.089 C 
ATOM      2  C   UNL     1       1.442  -2.576   2.515  0.00  0.00    +0.039 C 
ATOM      3  C   UNL     1       0.238  -2.890   3.437  0.00  0.00    +0.110 C 
ATOM      4  N   UNL     1      -0.779  -3.419   2.499  0.00  0.00    -0.285 N 
ATOM      5  C   UNL     1      -0.673  -2.595   1.280  0.00  0.00    +0.127 C 
ATOM      6  C   UNL     1      -1.628  -4.444   2.715  0.00  0.00    +0.302 C 
ATOM      7  O   UNL     1      -2.416  -4.773   1.850  0.00  0.00    -0.253 OA
ATOM      8  N   UNL     1      -1.603  -5.104   3.890  0.00  0.00    -0.296 N 
ATOM      9  H   UNL     1      -0.974  -4.841   4.580  0.00  0.00    +0.151 HD
ENDROOT
BRANCH   8  10
ATOM     10  C   UNL     1      -2.525  -6.218   4.125  0.00  0.00    +0.074 C 
ATOM     11  C   UNL     1      -3.864  -5.674   4.626  0.00  0.00    +0.022 C 
ATOM     12  C   UNL     1      -4.827  -6.838   4.871  0.00  0.00    +0.002 C 
ATOM     13  C   UNL     1      -4.233  -7.779   5.921  0.00  0.00    +0.000 C 
ATOM     14  C   UNL     1      -2.894  -8.322   5.419  0.00  0.00    +0.002 C 
ATOM     15  C   UNL     1      -1.931  -7.159   5.174  0.00  0.00    +0.022 C 
ENDBRANCH   8  10
BRANCH   1  16
ATOM     16  C   UNL     1       1.479  -2.547   0.008  0.00  0.00    +0.364 C 
ATOM     17  O   UNL     1       1.951  -1.757  -0.792  0.00  0.00    -0.246 OA
ATOM     18  O   UNL     1       1.588  -3.746  -0.183  0.00  0.00    -0.246 OA
ENDBRANCH   1  16
BRANCH   1  19
ATOM     19  C   UNL     1       0.742  -0.511   1.242  0.00  0.00    +0.019 C 
BRANCH  19  21
ATOM     20  C   UNL     1      -0.019   1.526   0.010  0.00  0.00    +0.004 C 
ATOM     21  C   UNL     1       0.002  -0.004   0.002  0.00  0.00    -0.002 C 
ENDBRANCH  19  21
ENDBRANCH   1  19
TORSDOF 4
