REMARK  Name = ZINC13280592
REMARK  7 active torsions:
REMARK  status: ('A' for Active; 'I' for Inactive)
REMARK    1  A    between atoms: C_3  and  C_24
REMARK    2  A    between atoms: C_6  and  C_7
REMARK    3  A    between atoms: C_7  and  S_8
REMARK    4  A    between atoms: S_8  and  C_9
REMARK    5  A    between atoms: C_12  and  C_17
REMARK    6  A    between atoms: N_13  and  C_14
REMARK    7  A    between atoms: C_14  and  C_15
REMARK                            x       y       z     vdW  Elec       q    Type
REMARK                         _______ _______ _______ _____ _____    ______ ____
ROOT
ATOM      1  C   UNL     1      -3.190   0.575  -1.053  0.00  0.00    +0.193 A 
ATOM      2  N   UNL     1      -3.944  -0.415  -0.630  0.00  0.00    -0.122 NA
ATOM      3  N   UNL     1      -3.826  -0.547   0.642  0.00  0.00    -0.128 NA
ATOM      4  C   UNL     1      -2.986   0.346   1.110  0.00  0.00    +0.165 A 
ATOM      5  N   UNL     1      -2.550   1.090   0.038  0.00  0.00    -0.291 N 
ENDROOT
BRANCH   4   6
ATOM      6  C   UNL     1      -2.585   0.521   2.522  0.00  0.00    +0.019 A 
ATOM      7  C   UNL     1      -1.419   1.219   2.838  0.00  0.00    +0.013 A 
ATOM      8  C   UNL     1      -1.052   1.382   4.158  0.00  0.00    +0.021 A 
ATOM      9  C   UNL     1      -1.834   0.847   5.168  0.00  0.00    +0.041 A 
ATOM     10  C   UNL     1      -2.990   0.149   4.861  0.00  0.00    +0.021 A 
ATOM     11  C   UNL     1      -3.369  -0.017   3.545  0.00  0.00    +0.013 A 
ATOM     12 CL   UNL     1      -1.363   1.051   6.826  0.00  0.00    -0.084 Cl
ENDBRANCH   4   6
BRANCH   1  13
ATOM     13  S   UNL     1      -3.031   1.131  -2.717  0.00  0.00    -0.081 S 
BRANCH  13  14
ATOM     14  C   UNL     1      -4.158  -0.020  -3.542  0.00  0.00    +0.112 C 
BRANCH  14  20
ATOM     15  C   UNL     1      -5.108   1.173  -5.526  0.00  0.00    +0.006 A 
ATOM     16  C   UNL     1      -5.134   1.452  -6.877  0.00  0.00    +0.019 A 
ATOM     17  C   UNL     1      -4.234   0.819  -7.735  0.00  0.00    +0.052 A 
ATOM     18  C   UNL     1      -3.308  -0.090  -7.218  0.00  0.00    +0.019 A 
ATOM     19  C   UNL     1      -3.289  -0.356  -5.865  0.00  0.00    +0.006 A 
ATOM     20  C   UNL     1      -4.184   0.276  -5.020  0.00  0.00    -0.037 A 
BRANCH  17  21
ATOM     21  C   UNL     1      -4.258   1.100  -9.139  0.00  0.00    +0.099 C 
ATOM     22  N   UNL     1      -4.278   1.323 -10.253  0.00  0.00    -0.191 NA
ENDBRANCH  17  21
ENDBRANCH  14  20
ENDBRANCH  13  14
ENDBRANCH   1  13
BRANCH   5  23
ATOM     23  C   UNL     1      -1.602   2.207   0.063  0.00  0.00    +0.250 C 
BRANCH  23  24
ATOM     24  C   UNL     1      -0.204   1.684  -0.149  0.00  0.00    +0.375 C 
ATOM     25  O   UNL     1      -0.019   0.500  -0.305  0.00  0.00    -0.244 OA
ATOM     26  O   UNL     1       0.834   2.534  -0.170  0.00  0.00    -0.244 OA
ENDBRANCH  23  24
ENDBRANCH   5  23
TORSDOF 7
