REMARK  Name = ZINC09175908
REMARK  16 active torsions:
REMARK  status: ('A' for Active; 'I' for Inactive)
REMARK    1  A    between atoms: C_1  and  C_2
REMARK    2  A    between atoms: C_2  and  N_68
REMARK    3  A    between atoms: C_3  and  C_4
REMARK    4  A    between atoms: C_3  and  N_68
REMARK    5  A    between atoms: C_5  and  C_6
REMARK    6  A    between atoms: C_5  and  N_68
REMARK    7  A    between atoms: C_6  and  C_7
REMARK    8  A    between atoms: C_7  and  N_8
REMARK    9  A    between atoms: C_9  and  C_25
REMARK   10  A    between atoms: C_12  and  C_13
REMARK   11  A    between atoms: C_12  and  O_20
REMARK   12  A    between atoms: C_16  and  C_19
REMARK   13  A    between atoms: C_27  and  O_33
REMARK   14  A    between atoms: C_30  and  O_31
REMARK   15  A    between atoms: O_31  and  C_32
REMARK   16  A    between atoms: O_33  and  C_34
REMARK                            x       y       z     vdW  Elec       q    Type
REMARK                         _______ _______ _______ _____ _____    ______ ____
ROOT
ATOM      1  N   UNL     1      -5.981   1.231   0.356  0.00  0.00    -0.283 N 
ATOM      2  C   UNL     1      -5.563  -0.173   0.337  0.00  0.00    +0.148 C 
ATOM      3  C   UNL     1      -4.073  -0.178   0.085  0.00  0.00    +0.071 C 
ATOM      4  C   UNL     1      -3.252  -1.283  -0.010  0.00  0.00    +0.133 C 
ATOM      5  C   UNL     1      -3.693   1.169  -0.038  0.00  0.00    +0.249 C 
ATOM      6  O   UNL     1      -2.566   1.577  -0.251  0.00  0.00    -0.282 OA
ATOM      7  C   UNL     1      -4.908   2.010   0.137  0.00  0.00    +0.288 C 
ATOM      8  O   UNL     1      -4.927   3.223   0.089  0.00  0.00    -0.266 OA
ENDROOT
BRANCH   4   9
ATOM      9  C   UNL     1      -1.794  -1.108  -0.140  0.00  0.00    +0.017 A 
ATOM     10  C   UNL     1      -1.091  -1.789  -1.139  0.00  0.00    +0.012 A 
ATOM     11  C   UNL     1       0.271  -1.616  -1.258  0.00  0.00    +0.004 A 
ATOM     12  C   UNL     1       0.944  -0.775  -0.390  0.00  0.00    -0.050 A 
ATOM     13  C   UNL     1       0.257  -0.102   0.606  0.00  0.00    +0.004 A 
ATOM     14  C   UNL     1      -1.106  -0.265   0.738  0.00  0.00    +0.012 A 
ATOM     15  C   UNL     1       2.434  -0.591  -0.527  0.00  0.00    +0.044 C 
ENDBRANCH   4   9
BRANCH   2  16
ATOM     16  C   UNL     1      -5.864  -0.816   1.666  0.00  0.00    +0.023 A 
ATOM     17  C   UNL     1      -4.863  -0.954   2.609  0.00  0.00    +0.055 A 
ATOM     18  C   UNL     1      -5.141  -1.541   3.834  0.00  0.00    +0.121 A 
ATOM     19  C   UNL     1      -6.421  -2.000   4.109  0.00  0.00    +0.049 A 
ATOM     20  C   UNL     1      -7.420  -1.867   3.165  0.00  0.00    +0.049 A 
ATOM     21  C   UNL     1      -7.143  -1.274   1.941  0.00  0.00    +0.126 A 
BRANCH  21  22
ATOM     22  O   UNL     1      -8.127  -1.143   1.011  0.00  0.00    -0.495 OA
ATOM     23  C   UNL     1      -9.421  -1.637   1.362  0.00  0.00    +0.277 C 
ENDBRANCH  21  22
BRANCH  18  24
ATOM     24  O   UNL     1      -4.158  -1.672   4.764  0.00  0.00    -0.495 OA
ATOM     25  C   UNL     1      -4.513  -2.292   6.002  0.00  0.00    +0.277 C 
ENDBRANCH  18  24
ENDBRANCH   2  16
BRANCH   4  26
ATOM     26  O   UNL     1      -3.783  -2.523   0.016  0.00  0.00    -0.506 OA
ATOM     27  H   UNL     1      -3.052  -3.201  -0.063  0.00  0.00    +0.292 HD
ENDBRANCH   4  26
BRANCH   1  28
ATOM     28  C   UNL     1      -7.349   1.709   0.573  0.00  0.00    +0.107 C 
BRANCH  28  29
ATOM     29  C   UNL     1      -8.072   1.814  -0.771  0.00  0.00    +0.000 C 
BRANCH  29  30
ATOM     30  C   UNL     1      -9.500   2.312  -0.544  0.00  0.00    -0.077 C 
BRANCH  30  31
ATOM     31  N   UNL     1     -10.191   2.388  -1.849  0.00  0.00    +0.379 N 
ATOM     32  H   UNL     1     -10.087   1.489  -2.334  0.00  0.00    -0.082 HD
BRANCH  31  34
ATOM     33  C   UNL     1     -12.307   1.374  -1.160  0.00  0.00    -0.017 C 
ATOM     34  C   UNL     1     -11.630   2.659  -1.643  0.00  0.00    -0.082 C 
ENDBRANCH  31  34
BRANCH  31  35
ATOM     35  C   UNL     1      -9.590   3.454  -2.678  0.00  0.00    -0.082 C 
ATOM     36  C   UNL     1     -10.043   3.264  -4.127  0.00  0.00    -0.017 C 
ENDBRANCH  31  35
ENDBRANCH  30  31
ENDBRANCH  29  30
ENDBRANCH  28  29
ENDBRANCH   1  28
TORSDOF 11
