REMARK  Name = ZINC39490454
REMARK  7 active torsions:
REMARK  status: ('A' for Active; 'I' for Inactive)
REMARK    1  A    between atoms: C_1  and  C_2
REMARK    2  A    between atoms: C_5  and  N_8
REMARK    3  A    between atoms: C_10  and  C_20
REMARK    4  A    between atoms: C_11  and  C_13
REMARK    5  A    between atoms: C_20  and  N_21
REMARK    6  A    between atoms: N_21  and  C_22
REMARK    7  A    between atoms: C_22  and  C_23
REMARK                            x       y       z     vdW  Elec       q    Type
REMARK                         _______ _______ _______ _____ _____    ______ ____
ROOT
ATOM      1  N   UNL     1       0.073  -4.166   0.000  0.00  0.00    -0.239 N 
ATOM      2  C   UNL     1       0.025  -4.978   1.088  0.00  0.00    +0.116 A 
ATOM      3  C   UNL     1       0.043  -6.257   0.651  0.00  0.00    -0.019 A 
ATOM      4  C   UNL     1       0.104  -6.233  -0.756  0.00  0.00    +0.094 A 
ATOM      5  N   UNL     1       0.116  -4.974  -1.143  0.00  0.00    -0.166 NA
ENDROOT
BRANCH   1  10
ATOM      6  C   UNL     1       0.073   1.509   0.074  0.00  0.00    +0.044 C 
ATOM      7  C   UNL     1       0.073   0.002   0.054  0.00  0.00    -0.050 A 
ATOM      8  C   UNL     1       0.119  -0.673  -1.152  0.00  0.00    +0.005 A 
ATOM      9  C   UNL     1       0.119  -2.054  -1.173  0.00  0.00    +0.028 A 
ATOM     10  C   UNL     1       0.073  -2.765   0.018  0.00  0.00    +0.065 A 
ATOM     11  C   UNL     1       0.027  -2.085   1.228  0.00  0.00    +0.028 A 
ATOM     12  C   UNL     1       0.032  -0.704   1.243  0.00  0.00    +0.005 A 
ENDBRANCH   1  10
BRANCH   4  13
ATOM     13  C   UNL     1       0.142  -7.419  -1.647  0.00  0.00    +0.002 A 
ATOM     14  C   UNL     1      -0.693  -8.506  -1.399  0.00  0.00    +0.013 A 
ATOM     15  C   UNL     1      -0.655  -9.607  -2.230  0.00  0.00    +0.039 A 
ATOM     16  C   UNL     1       0.213  -9.632  -3.310  0.00  0.00    +0.123 A 
ATOM     17  C   UNL     1       1.046  -8.553  -3.560  0.00  0.00    +0.039 A 
ATOM     18  C   UNL     1       1.010  -7.446  -2.737  0.00  0.00    +0.013 A 
ATOM     19  F   UNL     1       0.247 -10.711  -4.121  0.00  0.00    -0.205 F 
ENDBRANCH   4  13
BRANCH   3  20
ATOM     20  C   UNL     1       0.006  -7.490   1.517  0.00  0.00    -0.043 C 
BRANCH  20  21
ATOM     21  N   UNL     1       1.339  -8.105   1.550  0.00  0.00    +0.383 N 
ATOM     22  H   UNL     1       1.649  -8.289   0.608  0.00  0.00    -0.085 HD
ATOM     23  H   UNL     1       1.988  -7.477   2.001  0.00  0.00    -0.085 HD
BRANCH  21  24
ATOM     24  C   UNL     1       1.278  -9.367   2.300  0.00  0.00    -0.049 C 
BRANCH  24  25
ATOM     25  C   UNL     1       2.667 -10.008   2.336  0.00  0.00    +0.139 C 
ATOM     26  C   UNL     1       2.603 -11.395   2.940  0.00  0.00    -0.023 C 
ATOM     27  C   UNL     1       3.013 -12.208   1.969  0.00  0.00    +0.064 C 
ATOM     28  C   UNL     1       2.992 -13.645   2.457  0.00  0.00    +0.057 C 
ATOM     29  C   UNL     1       2.920 -13.546   3.997  0.00  0.00    +0.011 C 
ATOM     30  C   UNL     1       2.259 -12.163   4.191  0.00  0.00    +0.035 C 
ATOM     31  N   UNL     1       3.317 -11.484   0.857  0.00  0.00    -0.159 NA
ATOM     32  N   UNL     1       3.158 -10.265   0.971  0.00  0.00    -0.181 NA
ENDBRANCH  24  25
ENDBRANCH  21  24
ENDBRANCH  20  21
ENDBRANCH   3  20
TORSDOF 6
