REMARK  Name = ZINC39665065
REMARK  6 active torsions:
REMARK  status: ('A' for Active; 'I' for Inactive)
REMARK    1  A    between atoms: C_3  and  C_6
REMARK    2  A    between atoms: C_10  and  S_19
REMARK    3  A    between atoms: N_12  and  C_13
REMARK    4  A    between atoms: S_19  and  C_20
REMARK    5  A    between atoms: C_20  and  C_21
REMARK    6  A    between atoms: C_29  and  C_33
REMARK                            x       y       z     vdW  Elec       q    Type
REMARK                         _______ _______ _______ _____ _____    ______ ____
ROOT
ATOM      1  C   UNL     1       3.539   0.504  -0.140  0.00  0.00    +0.086 C 
ATOM      2  N   UNL     1       3.967   1.810   0.427  0.00  0.00    -0.264 NA
ATOM      3  N   UNL     1       5.323   1.527   0.925  0.00  0.00    -0.261 NA
ATOM      4  C   UNL     1       5.237   0.155   1.474  0.00  0.00    +0.078 C 
ATOM      5  N   UNL     1       4.099  -0.502   0.792  0.00  0.00    +0.414 N 
ATOM      6  H   UNL     1       3.358   2.095   1.179  0.00  0.00    +0.139 HD
ATOM      7  H   UNL     1       5.590   2.187   1.640  0.00  0.00    +0.140 HD
ATOM      8  H   UNL     1       4.420  -1.309   0.278  0.00  0.00    -0.075 HD
ENDROOT
BRANCH   5   9
ATOM      9  C   UNL     1       3.083  -0.899   1.775  0.00  0.00    -0.062 C 
ATOM     10  C   UNL     1       2.676   0.318   2.608  0.00  0.00    -0.015 C 
ATOM     11  C   UNL     1       1.617  -0.096   3.632  0.00  0.00    -0.002 C 
ATOM     12  C   UNL     1       2.193  -1.174   4.553  0.00  0.00    -0.000 C 
ATOM     13  C   UNL     1       2.601  -2.391   3.720  0.00  0.00    -0.002 C 
ATOM     14  C   UNL     1       3.659  -1.977   2.696  0.00  0.00    -0.015 C 
ENDBRANCH   5   9
BRANCH   1  17
ATOM     15  C   UNL     1      -0.124   0.906  -0.137  0.00  0.00    +0.041 A 
ATOM     16  C   UNL     1       1.181   1.442  -0.045  0.00  0.00    +0.044 A 
ATOM     17  C   UNL     1       2.035   0.412  -0.174  0.00  0.00    +0.106 A 
ATOM     18  O   UNL     1       1.321  -0.714  -0.338  0.00  0.00    -0.468 OA
ATOM     19  C   UNL     1       0.011  -0.420  -0.316  0.00  0.00    +0.195 A 
ENDBRANCH   1  17
BRANCH   4  20
ATOM     20  S   UNL     1       6.771  -0.750   1.131  0.00  0.00    -0.152 S 
BRANCH  20  21
ATOM     21  C   UNL     1       6.907  -0.713  -0.677  0.00  0.00    +0.143 C 
BRANCH  21  22
ATOM     22  C   UNL     1       8.157  -1.440  -1.101  0.00  0.00    +0.120 A 
ATOM     23  N   UNL     1       8.439  -1.517  -2.428  0.00  0.00    -0.310 N 
ATOM     24  H   UNL     1       7.839  -1.108  -3.071  0.00  0.00    +0.170 HD
ATOM     25  C   UNL     1       9.550  -2.159  -2.861  0.00  0.00    +0.259 A 
ATOM     26  O   UNL     1       9.815  -2.235  -4.046  0.00  0.00    -0.267 OA
ATOM     27  C   UNL     1      10.426  -2.761  -1.841  0.00  0.00    +0.065 A 
ATOM     28  C   UNL     1      11.592  -3.442  -2.184  0.00  0.00    +0.016 A 
ATOM     29  C   UNL     1      12.376  -3.985  -1.206  0.00  0.00    +0.016 A 
ATOM     30  C   UNL     1      12.018  -3.864   0.143  0.00  0.00    +0.065 A 
ATOM     31  C   UNL     1      10.858  -3.188   0.507  0.00  0.00    +0.043 A 
ATOM     32  C   UNL     1      10.050  -2.629  -0.486  0.00  0.00    +0.079 A 
ATOM     33  N   UNL     1       8.912  -1.957  -0.180  0.00  0.00    -0.233 NA
BRANCH  30  34
ATOM     34  C   UNL     1      12.879  -4.458   1.187  0.00  0.00    +0.387 C 
ATOM     35  O   UNL     1      13.899  -5.053   0.872  0.00  0.00    -0.241 OA
ATOM     36  O   UNL     1      12.571  -4.355   2.366  0.00  0.00    -0.241 OA
ENDBRANCH  30  34
ENDBRANCH  21  22
ENDBRANCH  20  21
ENDBRANCH   4  20
TORSDOF 6
