REMARK  Name = ZINC35967404
REMARK  13 active torsions:
REMARK  status: ('A' for Active; 'I' for Inactive)
REMARK    1  A    between atoms: C_1  and  C_2
REMARK    2  A    between atoms: C_2  and  N_3
REMARK    3  A    between atoms: C_6  and  C_11
REMARK    4  A    between atoms: C_14  and  C_18
REMARK    5  A    between atoms: C_16  and  C_17
REMARK    6  A    between atoms: N_21  and  C_23
REMARK    7  A    between atoms: C_23  and  C_25
REMARK    8  A    between atoms: C_23  and  C_32
REMARK    9  A    between atoms: C_25  and  C_26
REMARK   10  A    between atoms: N_34  and  C_35
REMARK   11  A    between atoms: C_35  and  C_36
REMARK   12  A    between atoms: C_36  and  O_37
REMARK   13  A    between atoms: O_37  and  C_38
REMARK                            x       y       z     vdW  Elec       q    Type
REMARK                         _______ _______ _______ _____ _____    ______ ____
ROOT
ATOM      1  N   UNL     1      -1.388  -0.522   0.373  0.00  0.00    -0.257 N 
ATOM      2  C   UNL     1      -2.087  -0.911   1.479  0.00  0.00    +0.042 C 
ATOM      3  C   UNL     1      -3.348  -1.380   1.380  0.00  0.00    +0.058 C 
ATOM      4  C   UNL     1      -3.963  -1.460  -0.003  0.00  0.00    +0.142 C 
ATOM      5  N   UNL     1      -3.127  -1.016  -1.131  0.00  0.00    -0.288 N 
ATOM      6  C   UNL     1      -1.883  -0.566  -0.871  0.00  0.00    +0.307 C 
ATOM      7  O   UNL     1      -1.187  -0.194  -1.795  0.00  0.00    -0.252 OA
ATOM      8  C   UNL     1      -3.849  -1.713   2.655  0.00  0.00    +0.247 C 
ATOM      9  O   UNL     1      -4.963  -2.160   2.861  0.00  0.00    -0.270 OA
ATOM     10  N   UNL     1      -2.937  -1.473   3.614  0.00  0.00    -0.280 N 
ATOM     11  C   UNL     1      -1.737  -0.942   2.950  0.00  0.00    +0.160 C 
ATOM     12  H   UNL     1      -3.464  -1.043  -2.040  0.00  0.00    +0.151 HD
ENDROOT
BRANCH   4  13
ATOM     13  C   UNL     1      -5.219  -0.628  -0.002  0.00  0.00    -0.020 A 
ATOM     14  C   UNL     1      -5.406   0.341   0.967  0.00  0.00    +0.006 A 
ATOM     15  C   UNL     1      -6.559   1.103   0.968  0.00  0.00    +0.004 A 
ATOM     16  C   UNL     1      -7.525   0.898   0.000  0.00  0.00    -0.050 A 
ATOM     17  C   UNL     1      -7.338  -0.070  -0.969  0.00  0.00    +0.007 A 
ATOM     18  C   UNL     1      -6.183  -0.830  -0.972  0.00  0.00    -0.045 A 
ATOM     19  C   UNL     1      -5.976  -1.881  -2.032  0.00  0.00    +0.044 C 
ATOM     20  C   UNL     1      -8.782   1.729   0.002  0.00  0.00    +0.044 C 
ENDBRANCH   4  13
BRANCH   1  22
ATOM     21  C   UNL     1      -0.059   1.491   0.777  0.00  0.00    +0.025 C 
ATOM     22  C   UNL     1      -0.023  -0.022   0.557  0.00  0.00    +0.111 C 
ENDBRANCH   1  22
BRANCH  10  23
ATOM     23  C   UNL     1      -3.107  -1.698   5.051  0.00  0.00    +0.167 C 
BRANCH  23  24
ATOM     24  C   UNL     1      -4.261  -0.869   5.556  0.00  0.00    +0.234 C 
ATOM     25  O   UNL     1      -4.879  -0.161   4.790  0.00  0.00    -0.274 OA
ATOM     26  N   UNL     1      -4.604  -0.916   6.858  0.00  0.00    -0.312 N 
ATOM     27  H   UNL     1      -4.109  -1.482   7.471  0.00  0.00    +0.149 HD
BRANCH  26  28
ATOM     28  C   UNL     1      -5.725  -0.110   7.349  0.00  0.00    +0.132 C 
BRANCH  28  29
ATOM     29  C   UNL     1      -5.903  -0.345   8.850  0.00  0.00    +0.178 C 
BRANCH  29  30
ATOM     30  O   UNL     1      -4.755   0.141   9.548  0.00  0.00    -0.381 OA
ATOM     31  C   UNL     1      -4.819  -0.031  10.965  0.00  0.00    +0.194 C 
ENDBRANCH  29  30
ENDBRANCH  28  29
ENDBRANCH  26  28
ENDBRANCH  23  24
BRANCH  23  32
ATOM     32  C   UNL     1      -3.394  -3.179   5.305  0.00  0.00    +0.067 C 
BRANCH  32  33
ATOM     33  C   UNL     1      -2.191  -3.998   4.913  0.00  0.00    -0.045 A 
ATOM     34  C   UNL     1      -2.070  -4.475   3.622  0.00  0.00    +0.004 A 
ATOM     35  C   UNL     1      -0.967  -5.226   3.262  0.00  0.00    +0.000 A 
ATOM     36  C   UNL     1       0.016  -5.499   4.194  0.00  0.00    +0.000 A 
ATOM     37  C   UNL     1      -0.103  -5.021   5.486  0.00  0.00    +0.000 A 
ATOM     38  C   UNL     1      -1.205  -4.267   5.844  0.00  0.00    +0.004 A 
ENDBRANCH  32  33
ENDBRANCH  23  32
ENDBRANCH  10  23
TORSDOF 9
