REMARK  Name = ZINC64714628
REMARK  13 active torsions:
REMARK  status: ('A' for Active; 'I' for Inactive)
REMARK    1  A    between atoms: C_1  and  C_2
REMARK    2  A    between atoms: C_4  and  C_33
REMARK    3  A    between atoms: C_5  and  C_32
REMARK    4  A    between atoms: C_7  and  C_8
REMARK    5  A    between atoms: C_13  and  C_16
REMARK    6  A    between atoms: C_16  and  C_17
REMARK    7  A    between atoms: N_19  and  C_20
REMARK    8  A    between atoms: C_20  and  C_21
REMARK    9  A    between atoms: C_21  and  C_22
REMARK   10  A    between atoms: C_22  and  C_24
REMARK   11  A    between atoms: C_22  and  N_25
REMARK   12  A    between atoms: C_33  and  O_35
REMARK   13  A    between atoms: O_35  and  C_36
REMARK                            x       y       z     vdW  Elec       q    Type
REMARK                         _______ _______ _______ _____ _____    ______ ____
ROOT
ATOM      1  C   UNL     1       0.080  -0.918   2.413  0.00  0.00    +0.261 C 
ATOM      2  O   UNL     1       0.209  -1.237   1.248  0.00  0.00    -0.269 OA
ATOM      3  N   UNL     1       0.994  -1.308   3.324  0.00  0.00    -0.297 N 
ATOM      4  C   UNL     1       2.217  -2.005   2.905  0.00  0.00    +0.108 C 
ATOM      5  C   UNL     1       2.335  -3.312   3.695  0.00  0.00    +0.023 C 
ATOM      6  C   UNL     1       2.267  -3.007   5.193  0.00  0.00    +0.001 C 
ATOM      7  C   UNL     1       0.918  -2.363   5.523  0.00  0.00    +0.023 C 
ATOM      8  C   UNL     1       0.787  -1.040   4.754  0.00  0.00    +0.108 C 
ENDROOT
BRANCH   1  14
ATOM      9  C   UNL     1      -2.905  -0.602   1.190  0.00  0.00    +0.019 C 
ATOM     10  C   UNL     1      -2.142   0.497   1.930  0.00  0.00    +0.078 C 
ATOM     11  C   UNL     1      -3.051   1.219   2.909  0.00  0.00    +0.066 C 
ATOM     12  C   UNL     1      -2.499   0.996   4.126  0.00  0.00    +0.049 C 
ATOM     13  N   UNL     1      -1.394   0.251   4.048  0.00  0.00    -0.250 NA
ATOM     14  C   UNL     1      -1.079  -0.100   2.832  0.00  0.00    +0.111 C 
ATOM     15  C   UNL     1      -3.067   1.526   5.417  0.00  0.00    +0.066 C 
BRANCH  11  16
ATOM     16  C   UNL     1      -4.261   1.988   2.604  0.00  0.00    +0.337 C 
ATOM     17  O   UNL     1      -4.889   2.513   3.502  0.00  0.00    -0.245 OA
BRANCH  16  18
ATOM     18  O   UNL     1      -4.676   2.113   1.327  0.00  0.00    -0.465 OA
ATOM     19  C   UNL     1      -5.863   2.877   1.103  0.00  0.00    +0.280 C 
ENDBRANCH  16  18
ENDBRANCH  11  16
ENDBRANCH   1  14
BRANCH   6  20
ATOM     20  C   UNL     1       2.419  -4.307   5.985  0.00  0.00    +0.099 C 
BRANCH  20  21
ATOM     21  C   UNL     1       2.475  -3.994   7.458  0.00  0.00    +0.213 C 
ATOM     22  O   UNL     1       2.401  -2.844   7.837  0.00  0.00    -0.276 OA
ATOM     23  N   UNL     1       2.607  -4.991   8.355  0.00  0.00    -0.315 N 
ATOM     24  H   UNL     1       2.667  -5.911   8.052  0.00  0.00    +0.149 HD
BRANCH  23  25
ATOM     25  C   UNL     1       2.662  -4.686   9.787  0.00  0.00    +0.102 C 
BRANCH  25  26
ATOM     26  C   UNL     1       2.813  -5.986  10.579  0.00  0.00    +0.003 C 
BRANCH  26  27
ATOM     27  C   UNL     1       2.752  -5.681  12.077  0.00  0.00    -0.070 C 
ATOM     28  C   UNL     1       2.942  -6.975  12.870  0.00  0.00    -0.013 C 
BRANCH  27  29
ATOM     29  N   UNL     1       1.446  -5.093  12.404  0.00  0.00    +0.381 N 
ATOM     30  C   UNL     1       1.484  -4.599  13.794  0.00  0.00    -0.078 C 
ATOM     31  C   UNL     1       0.452  -3.509  13.938  0.00  0.00    -0.019 C 
ATOM     32  C   UNL     1      -0.871  -4.057  14.506  0.00  0.00    -0.002 C 
ATOM     33  C   UNL     1      -1.232  -5.426  13.895  0.00  0.00    -0.002 C 
ATOM     34  C   UNL     1      -0.960  -5.484  12.414  0.00  0.00    -0.019 C 
ATOM     35  C   UNL     1       0.456  -6.052  12.184  0.00  0.00    -0.078 C 
ATOM     36  H   UNL     1       1.282  -4.310  11.789  0.00  0.00    -0.081 HD
ENDBRANCH  27  29
ENDBRANCH  26  27
ENDBRANCH  25  26
ENDBRANCH  23  25
ENDBRANCH  20  21
ENDBRANCH   6  20
TORSDOF 9
