REMARK  Name = ZINC23739570
REMARK  8 active torsions:
REMARK  status: ('A' for Active; 'I' for Inactive)
REMARK    1  A    between atoms: C_4  and  C_7
REMARK    2  A    between atoms: C_7  and  C_9
REMARK    3  A    between atoms: C_7  and  N_27
REMARK    4  A    between atoms: C_9  and  N_10
REMARK    5  A    between atoms: C_11  and  C_13
REMARK    6  A    between atoms: C_13  and  C_14
REMARK    7  A    between atoms: C_14  and  C_15
REMARK    8  A    between atoms: C_15  and  N_16
REMARK                            x       y       z     vdW  Elec       q    Type
REMARK                         _______ _______ _______ _____ _____    ______ ____
ROOT
ATOM      1  N   UNL     1      -0.549   1.367  -3.691  0.00  0.00    -0.317 N 
ATOM      2  C   UNL     1      -0.097   0.994  -2.478  0.00  0.00    +0.213 C 
ATOM      3  O   UNL     1       0.875   0.273  -2.388  0.00  0.00    -0.276 OA
ATOM      4  H   UNL     1      -1.431   2.021  -3.771  0.00  0.00    +0.149 HD
ENDROOT
BRANCH   1   5
ATOM      5  C   UNL     1       0.132   0.903  -4.902  0.00  0.00    +0.093 C 
BRANCH   5   6
ATOM      6  C   UNL     1      -0.578   1.467  -6.134  0.00  0.00    -0.020 C 
BRANCH   6  10
ATOM      7  C   UNL     1       1.606   0.402  -9.647  0.00  0.00    +0.000 A 
ATOM      8  C   UNL     1       2.282   0.734  -8.487  0.00  0.00    +0.000 A 
ATOM      9  C   UNL     1       1.575   1.078  -7.351  0.00  0.00    +0.002 A 
ATOM     10  C   UNL     1       0.193   1.091  -7.373  0.00  0.00    -0.059 A 
ATOM     11  C   UNL     1      -0.483   0.754  -8.532  0.00  0.00    +0.002 A 
ATOM     12  C   UNL     1       0.224   0.414  -9.670  0.00  0.00    +0.000 A 
ENDBRANCH   6  10
BRANCH   6  13
ATOM     13  N   UNL     1      -0.653   2.930  -6.029  0.00  0.00    +0.385 N 
ATOM     14  C   UNL     1       0.697   3.541  -6.127  0.00  0.00    -0.078 C 
ATOM     15  C   UNL     1       0.394   5.008  -6.525  0.00  0.00    -0.020 C 
ATOM     16  C   UNL     1      -0.805   4.864  -7.490  0.00  0.00    -0.020 C 
ATOM     17  C   UNL     1      -1.437   3.502  -7.145  0.00  0.00    -0.078 C 
ATOM     18  H   UNL     1      -1.126   3.137  -5.057  0.00  0.00    -0.081 HD
ENDBRANCH   6  13
ENDBRANCH   5   6
ENDBRANCH   1   5
BRANCH   2  19
ATOM     19  C   UNL     1      -0.797   1.471  -1.232  0.00  0.00    +0.097 C 
BRANCH  19  20
ATOM     20  C   UNL     1      -0.087   0.907   0.001  0.00  0.00    +0.029 C 
BRANCH  20  21
ATOM     21  C   UNL     1      -0.799   1.392   1.266  0.00  0.00    +0.118 C 
BRANCH  21  22
ATOM     22  N   UNL     1      -0.119   0.852   2.446  0.00  0.00    -0.224 N 
ATOM     23  C   UNL     1       0.897   1.470   3.086  0.00  0.00    +0.246 C 
ATOM     24  O   UNL     1       1.402   2.536   2.807  0.00  0.00    -0.273 OA
ATOM     25  C   UNL     1       1.268   0.552   4.222  0.00  0.00    +0.113 C 
ATOM     26  C   UNL     1       1.097   1.253   5.577  0.00  0.00    +0.035 C 
ATOM     27  C   UNL     1       2.249   0.680   6.443  0.00  0.00    +0.003 C 
ATOM     28  C   UNL     1       3.413   0.552   5.428  0.00  0.00    +0.003 C 
ATOM     29  C   UNL     1       2.727   0.101   4.119  0.00  0.00    +0.035 C 
ATOM     30  N   UNL     1       0.348  -0.580   4.094  0.00  0.00    -0.285 N 
ATOM     31  C   UNL     1      -0.431  -0.313   3.027  0.00  0.00    +0.309 C 
ATOM     32  O   UNL     1      -1.316  -1.049   2.635  0.00  0.00    -0.252 OA
ATOM     33  H   UNL     1       0.403  -1.417   4.806  0.00  0.00    +0.151 HD
ENDBRANCH  21  22
ENDBRANCH  20  21
ENDBRANCH  19  20
ENDBRANCH   2  19
TORSDOF 8
