REMARK  Name = ZINC08833303
REMARK  8 active torsions:
REMARK  status: ('A' for Active; 'I' for Inactive)
REMARK    1  A    between atoms: C_1  and  C_2
REMARK    2  A    between atoms: C_5  and  N_11
REMARK    3  A    between atoms: C_6  and  N_8
REMARK    4  A    between atoms: N_11  and  C_12
REMARK    5  A    between atoms: C_12  and  N_14
REMARK    6  A    between atoms: C_15  and  C_17
REMARK    7  A    between atoms: C_18  and  C_19
REMARK    8  A    between atoms: C_22  and  C_24
REMARK                            x       y       z     vdW  Elec       q    Type
REMARK                         _______ _______ _______ _____ _____    ______ ____
ROOT
ATOM      1  N   UNL     1      -3.545   2.050  -0.241  0.00  0.00    -0.264 N 
ATOM      2  C   UNL     1      -4.701   1.366  -0.357  0.00  0.00    +0.242 C 
ATOM      3  O   UNL     1      -4.690   0.148  -0.362  0.00  0.00    -0.270 OA
ATOM      4  H   UNL     1      -3.554   3.019  -0.236  0.00  0.00    +0.157 HD
ENDROOT
BRANCH   1   5
ATOM      5  C   UNL     1      -2.377   1.386  -0.131  0.00  0.00    +0.141 C 
ATOM      6  S   UNL     1      -2.362  -0.326  -0.139  0.00  0.00    -0.018 S 
BRANCH   5   7
ATOM      7  N   UNL     1      -1.222   2.069  -0.015  0.00  0.00    -0.295 N 
ATOM      8  H   UNL     1      -1.234   3.038   0.026  0.00  0.00    +0.154 HD
BRANCH   7  13
ATOM      9  C   UNL     1       3.719  -0.709   0.214  0.00  0.00    +0.044 C 
ATOM     10  C   UNL     1       2.406   0.028   0.154  0.00  0.00    -0.048 A 
ATOM     11  C   UNL     1       1.413  -0.400  -0.709  0.00  0.00    +0.005 A 
ATOM     12  C   UNL     1       0.209   0.274  -0.766  0.00  0.00    +0.026 A 
ATOM     13  C   UNL     1      -0.005   1.382   0.044  0.00  0.00    +0.063 A 
ATOM     14  C   UNL     1       0.994   1.808   0.909  0.00  0.00    +0.147 A 
ATOM     15  C   UNL     1       2.196   1.131   0.961  0.00  0.00    +0.038 A 
BRANCH  14  16
ATOM     16  N   UNL     1       0.770   2.988   1.775  0.00  0.00    +0.058 N 
ATOM     17  O   UNL     1       1.680   3.424   2.457  0.00  0.00    -0.126 OA
ATOM     18  O   UNL     1      -0.324   3.523   1.804  0.00  0.00    -0.126 OA
ENDBRANCH  14  16
ENDBRANCH   7  13
ENDBRANCH   5   7
ENDBRANCH   1   5
BRANCH   2  19
ATOM     19  C   UNL     1      -5.925   2.062  -0.472  0.00  0.00    +0.071 C 
ATOM     20  C   UNL     1      -7.090   1.373  -0.588  0.00  0.00    +0.051 C 
BRANCH  20  21
ATOM     21  C   UNL     1      -8.315   2.069  -0.703  0.00  0.00    +0.129 A 
ATOM     22  C   UNL     1      -9.565   1.493  -0.833  0.00  0.00    +0.050 A 
ATOM     23  C   UNL     1     -10.486   2.541  -0.911  0.00  0.00    +0.050 A 
ATOM     24  C   UNL     1      -9.768   3.713  -0.836  0.00  0.00    +0.136 A 
ATOM     25  O   UNL     1      -8.464   3.410  -0.711  0.00  0.00    -0.455 OA
BRANCH  24  26
ATOM     26  C   UNL     1     -10.335   5.075  -0.884  0.00  0.00    +0.020 A 
ATOM     27  C   UNL     1     -11.713   5.257  -1.021  0.00  0.00    +0.031 A 
ATOM     28  C   UNL     1     -12.238   6.533  -1.060  0.00  0.00    +0.043 A 
ATOM     29  C   UNL     1     -11.400   7.632  -0.974  0.00  0.00    +0.040 A 
ATOM     30  C   UNL     1     -10.032   7.459  -0.843  0.00  0.00    +0.043 A 
ATOM     31  C   UNL     1      -9.496   6.188  -0.797  0.00  0.00    +0.031 A 
ATOM     32 CL   UNL     1      -8.990   8.844  -0.736  0.00  0.00    -0.083 Cl
ATOM     33 CL   UNL     1     -13.951   6.761  -1.225  0.00  0.00    -0.083 Cl
ENDBRANCH  24  26
ENDBRANCH  20  21
ENDBRANCH   2  19
TORSDOF 7
