REMARK  Name = ZINC32096891
REMARK  4 active torsions:
REMARK  status: ('A' for Active; 'I' for Inactive)
REMARK    1  A    between atoms: C_9  and  S_14
REMARK    2  A    between atoms: C_11  and  O_13
REMARK    3  A    between atoms: S_14  and  C_15
REMARK    4  A    between atoms: C_19  and  N_21
REMARK                            x       y       z     vdW  Elec       q    Type
REMARK                         _______ _______ _______ _____ _____    ______ ____
ROOT
ATOM      1  C   UNL     1      -0.017   1.373   0.010  0.00  0.00    +0.000 A 
ATOM      2  C   UNL     1       1.178   2.071   0.002  0.00  0.00    +0.002 A 
ATOM      3  C   UNL     1       2.366   1.387  -0.008  0.00  0.00    +0.028 A 
ATOM      4  C   UNL     1       2.401  -0.025  -0.013  0.00  0.00    +0.071 A 
ATOM      5  C   UNL     1       1.200  -0.715  -0.015  0.00  0.00    -0.022 A 
ATOM      6  C   UNL     1       0.002  -0.004   0.002  0.00  0.00    +0.006 A 
ATOM      7  C   UNL     1       1.070  -2.205  -0.048  0.00  0.00    +0.039 C 
ATOM      8  C   UNL     1       2.129  -2.960   0.696  0.00  0.00    +0.029 C 
ATOM      9  C   UNL     1       3.450  -3.006  -0.033  0.00  0.00    +0.140 C 
ATOM     10  C   UNL     1       4.161  -1.702   0.015  0.00  0.00    +0.201 C 
ATOM     11  N   UNL     1       3.636  -0.563  -0.009  0.00  0.00    -0.216 NA
ENDROOT
BRANCH  10  12
ATOM     12  O   UNL     1       5.507  -1.747   0.093  0.00  0.00    -0.495 OA
ATOM     13  H   UNL     1       5.929  -0.878   0.122  0.00  0.00    +0.293 HD
ENDBRANCH  10  12
BRANCH   9  14
ATOM     14  S   UNL     1       4.498  -4.275   0.728  0.00  0.00    -0.073 S 
BRANCH  14  15
ATOM     15  C   UNL     1       5.927  -4.321  -0.302  0.00  0.00    +0.192 A 
ATOM     16  N   UNL     1       5.997  -3.507  -1.345  0.00  0.00    -0.207 NA
ATOM     17  C   UNL     1       7.061  -3.514  -2.144  0.00  0.00    +0.122 A 
ATOM     18  C   UNL     1       8.107  -4.391  -1.873  0.00  0.00    +0.086 A 
ATOM     19  C   UNL     1       7.998  -5.231  -0.768  0.00  0.00    +0.122 A 
ATOM     20  N   UNL     1       6.906  -5.165  -0.010  0.00  0.00    -0.207 NA
ATOM     21  N   UNL     1       7.126  -2.659  -3.234  0.00  0.00    -0.343 N 
ATOM     22  H   UNL     1       6.394  -2.051  -3.417  0.00  0.00    +0.144 HD
ATOM     23  H   UNL     1       7.905  -2.669  -3.812  0.00  0.00    +0.144 HD
BRANCH  19  24
ATOM     24  N   UNL     1       9.015  -6.120  -0.459  0.00  0.00    -0.343 N 
ATOM     25  H   UNL     1       9.810  -6.160  -1.014  0.00  0.00    +0.144 HD
ATOM     26  H   UNL     1       8.932  -6.703   0.312  0.00  0.00    +0.144 HD
ENDBRANCH  19  24
ENDBRANCH  14  15
ENDBRANCH   9  14
TORSDOF 4
