REMARK  Name = ZINC23254002
REMARK  9 active torsions:
REMARK  status: ('A' for Active; 'I' for Inactive)
REMARK    1  A    between atoms: C_1  and  C_2
REMARK    2  A    between atoms: C_5  and  C_8
REMARK    3  A    between atoms: C_8  and  C_10
REMARK    4  A    between atoms: C_14  and  N_15
REMARK    5  A    between atoms: C_16  and  C_18
REMARK    6  A    between atoms: C_18  and  N_19
REMARK    7  A    between atoms: N_22  and  C_25
REMARK    8  A    between atoms: C_25  and  C_26
REMARK    9  A    between atoms: N_28  and  C_29
REMARK                            x       y       z     vdW  Elec       q    Type
REMARK                         _______ _______ _______ _____ _____    ______ ____
ROOT
ATOM      1  N   UNL     1      -1.580   6.443  -2.776  0.00  0.00    -0.278 N 
ATOM      2  C   UNL     1      -1.541   7.696  -2.282  0.00  0.00    +0.232 C 
ATOM      3  O   UNL     1      -1.308   7.877  -1.106  0.00  0.00    -0.274 OA
ATOM      4  H   UNL     1      -1.792   6.279  -3.843  0.00  0.00    +0.155 HD
ENDROOT
BRANCH   1   9
ATOM      5  C   UNL     1      -1.249   4.016  -2.277  0.00  0.00    +0.054 A 
ATOM      6  C   UNL     1      -1.005   3.073  -1.199  0.00  0.00    -0.024 A 
ATOM      7  C   UNL     1      -0.905   3.619   0.032  0.00  0.00    -0.005 A 
ATOM      8  S   UNL     1      -1.128   5.357  -0.223  0.00  0.00    -0.077 S 
ATOM      9  C   UNL     1      -1.353   5.362  -1.941  0.00  0.00    +0.083 A 
ATOM     10  C   UNL     1      -0.659   2.899   1.322  0.00  0.00    +0.043 C 
ATOM     11  C   UNL     1      -0.911   1.401   1.094  0.00  0.00    +0.005 C 
ATOM     12  C   UNL     1      -0.178   0.966  -0.178  0.00  0.00    +0.005 C 
ATOM     13  C   UNL     1      -0.866   1.569  -1.404  0.00  0.00    +0.037 C 
BRANCH   5  14
ATOM     14  C   UNL     1      -1.380   3.567  -3.665  0.00  0.00    +0.196 C 
ATOM     15  O   UNL     1      -0.412   3.578  -4.403  0.00  0.00    -0.287 OA
BRANCH  14  20
ATOM     16  C   UNL     1      -6.475   1.752  -5.633  0.00  0.00    +0.044 C 
ATOM     17  C   UNL     1      -5.141   2.227  -5.117  0.00  0.00    -0.050 A 
ATOM     18  C   UNL     1      -4.020   2.137  -5.923  0.00  0.00    +0.004 A 
ATOM     19  C   UNL     1      -2.796   2.570  -5.457  0.00  0.00    +0.012 A 
ATOM     20  C   UNL     1      -2.690   3.101  -4.171  0.00  0.00    +0.022 A 
ATOM     21  C   UNL     1      -3.824   3.184  -3.361  0.00  0.00    +0.012 A 
ATOM     22  C   UNL     1      -5.043   2.752  -3.841  0.00  0.00    +0.004 A 
ENDBRANCH  14  20
ENDBRANCH   5  14
ENDBRANCH   1   9
BRANCH   2  23
ATOM     23  C   UNL     1      -1.788   8.873  -3.191  0.00  0.00    +0.180 C 
BRANCH  23  24
ATOM     24  N   UNL     1      -1.692  10.118  -2.417  0.00  0.00    -0.298 NA
ATOM     25  C   UNL     1      -2.776  10.210  -1.429  0.00  0.00    +0.066 C 
ATOM     26  C   UNL     1      -2.594  11.478  -0.593  0.00  0.00    -0.063 C 
ATOM     27  N   UNL     1      -2.593  12.650  -1.479  0.00  0.00    +0.387 N 
ATOM     28  C   UNL     1      -1.509  12.559  -2.467  0.00  0.00    -0.063 C 
ATOM     29  C   UNL     1      -1.690  11.290  -3.304  0.00  0.00    +0.066 C 
ATOM     30  H   UNL     1      -3.548  12.665  -2.024  0.00  0.00    -0.081 HD
BRANCH  27  31
ATOM     31  C   UNL     1      -2.496  13.895  -0.706  0.00  0.00    +0.019 C 
BRANCH  31  32
ATOM     32  C   UNL     1      -3.746  14.074   0.117  0.00  0.00    +0.197 C 
ATOM     33  O   UNL     1      -4.630  13.245   0.065  0.00  0.00    -0.278 OA
ATOM     34  N   UNL     1      -3.881  15.154   0.912  0.00  0.00    -0.314 N 
ATOM     35  H   UNL     1      -3.079  15.905   0.959  0.00  0.00    +0.149 HD
BRANCH  34  36
ATOM     36  C   UNL     1      -5.096  15.328   1.712  0.00  0.00    +0.073 C 
ATOM     37  C   UNL     1      -5.724  16.722   1.748  0.00  0.00    +0.024 C 
ATOM     38  C   UNL     1      -4.992  16.180   2.978  0.00  0.00    +0.024 C 
ENDBRANCH  34  36
ENDBRANCH  31  32
ENDBRANCH  27  31
ENDBRANCH  23  24
ENDBRANCH   2  23
TORSDOF 8
