REMARK  Name = ZINC64152523
REMARK  11 active torsions:
REMARK  status: ('A' for Active; 'I' for Inactive)
REMARK    1  A    between atoms: C_1  and  C_2
REMARK    2  A    between atoms: C_6  and  C_21
REMARK    3  A    between atoms: C_8  and  C_15
REMARK    4  A    between atoms: N_10  and  C_11
REMARK    5  A    between atoms: C_11  and  C_12
REMARK    6  A    between atoms: C_12  and  O_13
REMARK    7  A    between atoms: O_13  and  C_14
REMARK    8  A    between atoms: C_15  and  C_16
REMARK    9  A    between atoms: N_23  and  C_24
REMARK   10  A    between atoms: C_24  and  C_25
REMARK   11  A    between atoms: C_25  and  C_26
REMARK                            x       y       z     vdW  Elec       q    Type
REMARK                         _______ _______ _______ _____ _____    ______ ____
ROOT
ATOM      1  C   UNL     1      -0.035   1.576   0.020  0.00  0.00    +0.060 C 
ATOM      2  C   UNL     1      -0.017   0.070  -0.010  0.00  0.00    +0.007 C 
ATOM      3  C   UNL     1      -0.113  -0.589  -1.190  0.00  0.00    +0.065 C 
ATOM      4  C   UNL     1      -0.117  -1.988  -1.236  0.00  0.00    +0.171 C 
ATOM      5  O   UNL     1      -0.184  -2.556  -2.308  0.00  0.00    -0.292 OA
ATOM      6  C   UNL     1      -0.038  -2.795   0.036  0.00  0.00    +0.165 C 
ATOM      7  C   UNL     1       0.703  -1.977   1.101  0.00  0.00    +0.093 C 
ATOM      8  N   UNL     1       0.101  -0.638   1.153  0.00  0.00    -0.327 N 
ENDROOT
BRANCH   6   9
ATOM      9  C   UNL     1       0.708  -4.078  -0.227  0.00  0.00    +0.225 C 
ATOM     10  O   UNL     1       1.574  -4.113  -1.076  0.00  0.00    -0.275 OA
ATOM     11  N   UNL     1       0.413  -5.186   0.481  0.00  0.00    -0.315 N 
ATOM     12  H   UNL     1      -0.279  -5.158   1.160  0.00  0.00    +0.149 HD
BRANCH  11  13
ATOM     13  C   UNL     1       1.139  -6.433   0.226  0.00  0.00    +0.108 C 
BRANCH  13  14
ATOM     14  C   UNL     1       0.614  -7.528   1.157  0.00  0.00    +0.065 C 
BRANCH  14  15
ATOM     15  C   UNL     1       1.372  -8.830   0.891  0.00  0.00    +0.175 C 
ATOM     16  N   UNL     1       1.136  -9.277  -0.488  0.00  0.00    -0.363 N 
ATOM     17  C   UNL     1       0.567 -10.446  -0.427  0.00  0.00    +0.060 A 
ATOM     18  C   UNL     1       0.097 -11.383  -1.458  0.00  0.00    +0.029 A 
ATOM     19  C   UNL     1      -0.466 -12.550  -1.089  0.00  0.00    +0.022 A 
ATOM     20  C   UNL     1      -0.628 -12.921   0.259  0.00  0.00    +0.043 A 
ATOM     21  C   UNL     1      -0.232 -12.135   1.282  0.00  0.00    +0.047 A 
ATOM     22  C   UNL     1       0.396 -10.839   0.998  0.00  0.00    +0.062 A 
ATOM     23  N   UNL     1       0.866  -9.895   1.765  0.00  0.00    -0.363 N 
ATOM     24 CL   UNL     1      -1.367 -14.450   0.620  0.00  0.00    -0.083 Cl
ATOM     25  H   UNL     1       1.362  -8.790  -1.296  0.00  0.00    +0.162 HD
ATOM     26  H   UNL     1       0.879  -9.897   2.735  0.00  0.00    +0.162 HD
ENDBRANCH  14  15
ENDBRANCH  13  14
ENDBRANCH  11  13
ENDBRANCH   6   9
BRANCH   8  27
ATOM     27  C   UNL     1      -0.366  -0.077   2.423  0.00  0.00    +0.133 C 
BRANCH  27  28
ATOM     28  C   UNL     1      -1.830  -0.463   2.644  0.00  0.00    +0.178 C 
BRANCH  28  29
ATOM     29  O   UNL     1      -1.931  -1.880   2.796  0.00  0.00    -0.381 OA
ATOM     30  C   UNL     1      -3.264  -2.348   3.009  0.00  0.00    +0.194 C 
ENDBRANCH  28  29
ENDBRANCH  27  28
ENDBRANCH   8  27
BRANCH   7  31
ATOM     31  C   UNL     1       2.182  -1.860   0.727  0.00  0.00    +0.027 C 
BRANCH  31  32
ATOM     32  C   UNL     1       2.945  -1.185   1.868  0.00  0.00    -0.009 C 
ATOM     33  C   UNL     1       2.510   0.290   1.995  0.00  0.00    +0.003 C 
ATOM     34  C   UNL     1       3.814   1.040   2.361  0.00  0.00    +0.000 C 
ATOM     35  C   UNL     1       4.881   0.308   1.510  0.00  0.00    +0.000 C 
ATOM     36  C   UNL     1       4.452  -1.173   1.560  0.00  0.00    +0.003 C 
ENDBRANCH  31  32
ENDBRANCH   7  31
TORSDOF 9
