REMARK  Name = ZINC20685056
REMARK  8 active torsions:
REMARK  status: ('A' for Active; 'I' for Inactive)
REMARK    1  A    between atoms: C_1  and  C_2
REMARK    2  A    between atoms: C_2  and  N_3
REMARK    3  A    between atoms: C_14  and  C_16
REMARK    4  A    between atoms: C_27  and  O_32
REMARK    5  A    between atoms: O_32  and  C_33
REMARK    6  A    between atoms: C_33  and  C_34
REMARK    7  A    between atoms: C_34  and  C_35
REMARK    8  A    between atoms: C_34  and  C_36
REMARK                            x       y       z     vdW  Elec       q    Type
REMARK                         _______ _______ _______ _____ _____    ______ ____
ROOT
ATOM      1  C   UNL     1      -0.767   8.924   0.055  0.00  0.00    +0.105 C 
ATOM      2  C   UNL     1      -0.693   9.621  -1.292  0.00  0.00    +0.029 C 
ATOM      3  C   UNL     1      -1.018   8.778  -2.533  0.00  0.00    +0.033 C 
ATOM      4  C   UNL     1      -0.165   9.463  -3.602  0.00  0.00    -0.030 C 
ATOM      5  C   UNL     1       0.872  10.069  -3.037  0.00  0.00    -0.023 C 
ATOM      6  C   UNL     1       0.826   9.820  -1.573  0.00  0.00    +0.049 C 
ATOM      7  C   UNL     1       1.347  10.800  -0.595  0.00  0.00    -0.016 A 
ATOM      8  C   UNL     1       2.345  11.697  -0.908  0.00  0.00    +0.051 A 
ATOM      9  C   UNL     1       2.828  12.569   0.056  0.00  0.00    +0.121 A 
ATOM     10  C   UNL     1       2.303  12.538   1.340  0.00  0.00    +0.047 A 
ATOM     11  C   UNL     1       1.298  11.648   1.656  0.00  0.00    +0.027 A 
ATOM     12  C   UNL     1       0.804  10.776   0.694  0.00  0.00    +0.032 A 
ATOM     13  N   UNL     1      -0.230   9.892   1.036  0.00  0.00    -0.336 N 
ATOM     14  H   UNL     1      -0.643   9.928   2.055  0.00  0.00    +0.147 HD
ENDROOT
BRANCH   1  26
ATOM     15  N   UNL     1       2.191   4.115  -0.081  0.00  0.00    -0.340 N 
ATOM     16  C   UNL     1       1.236   3.221  -0.531  0.00  0.00    +0.050 A 
ATOM     17  C   UNL     1       1.281   1.855  -0.794  0.00  0.00    +0.026 A 
ATOM     18  C   UNL     1       0.154   1.202  -1.244  0.00  0.00    +0.002 A 
ATOM     19  C   UNL     1      -1.030   1.895  -1.444  0.00  0.00    +0.001 A 
ATOM     20  C   UNL     1      -1.096   3.247  -1.183  0.00  0.00    +0.010 A 
ATOM     21  C   UNL     1       0.035   3.920  -0.729  0.00  0.00    +0.008 A 
ATOM     22  C   UNL     1       0.304   5.324  -0.369  0.00  0.00    +0.008 A 
ATOM     23  C   UNL     1       1.651   5.384   0.022  0.00  0.00    +0.050 A 
ATOM     24  C   UNL     1       2.191   6.602   0.421  0.00  0.00    +0.027 A 
ATOM     25  C   UNL     1       1.406   7.736   0.428  0.00  0.00    +0.007 A 
ATOM     26  C   UNL     1       0.077   7.675   0.041  0.00  0.00    -0.026 A 
ATOM     27  C   UNL     1      -0.477   6.477  -0.356  0.00  0.00    +0.016 A 
BRANCH  15  29
ATOM     28  C   UNL     1       4.445   3.920  -1.011  0.00  0.00    +0.027 C 
ATOM     29  C   UNL     1       3.578   3.767   0.240  0.00  0.00    +0.119 C 
ENDBRANCH  15  29
ENDBRANCH   1  26
BRANCH   9  30
ATOM     30  O   UNL     1       3.813  13.453  -0.256  0.00  0.00    -0.492 OA
BRANCH  30  31
ATOM     31  C   UNL     1       4.262  14.320   0.787  0.00  0.00    +0.232 C 
BRANCH  31  32
ATOM     32  C   UNL     1       5.364  15.236   0.251  0.00  0.00    +0.020 C 
ATOM     33  C   UNL     1       4.784  16.159  -0.822  0.00  0.00    +0.010 C 
ATOM     34  C   UNL     1       5.930  16.077   1.396  0.00  0.00    +0.010 C 
ENDBRANCH  31  32
ENDBRANCH  30  31
ENDBRANCH   9  30
TORSDOF 5
