REMARK  Name = ZINC06077717
REMARK  13 active torsions:
REMARK  status: ('A' for Active; 'I' for Inactive)
REMARK    1  A    between atoms: C_1  and  C_2
REMARK    2  A    between atoms: C_2  and  C_3
REMARK    3  A    between atoms: C_3  and  C_4
REMARK    4  A    between atoms: C_3  and  C_5
REMARK    5  A    between atoms: C_3  and  N_6
REMARK    6  A    between atoms: C_7  and  C_11
REMARK    7  A    between atoms: C_11  and  C_13
REMARK    8  A    between atoms: C_11  and  N_75
REMARK    9  A    between atoms: C_17  and  C_26
REMARK   10  A    between atoms: C_19  and  C_25
REMARK   11  A    between atoms: N_29  and  C_32
REMARK   12  A    between atoms: C_37  and  O_38
REMARK   13  A    between atoms: O_38  and  C_39
REMARK                            x       y       z     vdW  Elec       q    Type
REMARK                         _______ _______ _______ _____ _____    ______ ____
ROOT
ATOM      1  C   UNL     1       0.937   3.388   0.199  0.00  0.00    +0.039 C 
ENDROOT
BRANCH   1   2
ATOM      2  C   UNL     1       1.151   1.936   0.542  0.00  0.00    +0.011 A 
ATOM      3  C   UNL     1       0.086   1.137   0.797  0.00  0.00    +0.017 A 
ATOM      4  C   UNL     1       0.328  -0.268   1.127  0.00  0.00    -0.001 A 
ATOM      5  C   UNL     1      -0.731  -1.141   1.400  0.00  0.00    +0.013 A 
ATOM      6  C   UNL     1      -0.471  -2.447   1.704  0.00  0.00    -0.050 A 
ATOM      7  C   UNL     1       0.835  -2.916   1.745  0.00  0.00    +0.008 A 
ATOM      8  C   UNL     1       1.894  -2.075   1.480  0.00  0.00    -0.026 A 
ATOM      9  C   UNL     1       1.654  -0.741   1.168  0.00  0.00    +0.052 A 
ATOM     10  N   UNL     1       2.694   0.123   0.897  0.00  0.00    -0.322 N 
ATOM     11  H   UNL     1       3.635  -0.214   0.926  0.00  0.00    +0.169 HD
ATOM     12  C   UNL     1       2.461   1.413   0.595  0.00  0.00    +0.251 A 
ATOM     13  O   UNL     1       3.405   2.148   0.362  0.00  0.00    -0.268 OA
ATOM     14  C   UNL     1       3.306  -2.598   1.528  0.00  0.00    +0.046 C 
ATOM     15  C   UNL     1      -1.612  -3.386   1.998  0.00  0.00    +0.044 C 
ENDBRANCH   1   2
BRANCH   1  21
ATOM     16  C   UNL     1       1.479   5.119  -1.406  0.00  0.00    -0.058 C 
ATOM     17  C   UNL     1       2.238   5.406  -2.703  0.00  0.00    +0.086 C 
ATOM     18  N   UNL     1       1.685   4.580  -3.785  0.00  0.00    -0.331 N 
ATOM     19  C   UNL     1       1.796   3.150  -3.461  0.00  0.00    +0.086 C 
ATOM     20  C   UNL     1       1.037   2.863  -2.164  0.00  0.00    -0.058 C 
ATOM     21  N   UNL     1       1.617   3.684  -1.080  0.00  0.00    +0.391 N 
ATOM     22  H   UNL     1       2.615   3.458  -0.988  0.00  0.00    -0.080 HD
BRANCH  18  23
ATOM     23  C   UNL     1       2.307   4.867  -5.005  0.00  0.00    +0.072 A 
ATOM     24  C   UNL     1       3.439   5.669  -5.036  0.00  0.00    +0.027 A 
ATOM     25  C   UNL     1       4.055   5.948  -6.242  0.00  0.00    +0.002 A 
ATOM     26  C   UNL     1       3.540   5.438  -7.419  0.00  0.00    +0.004 A 
ATOM     27  C   UNL     1       2.409   4.643  -7.396  0.00  0.00    +0.047 A 
ATOM     28  C   UNL     1       1.788   4.355  -6.192  0.00  0.00    +0.141 A 
BRANCH  28  29
ATOM     29  O   UNL     1       0.675   3.574  -6.168  0.00  0.00    -0.493 OA
ATOM     30  C   UNL     1       0.200   3.083  -7.423  0.00  0.00    +0.277 C 
ENDBRANCH  28  29
ENDBRANCH  18  23
ENDBRANCH   1  21
BRANCH   1  32
ATOM     31  N   UNL     1       0.854   5.037   2.142  0.00  0.00    -0.225 N 
ATOM     32  C   UNL     1       1.529   4.253   1.281  0.00  0.00    +0.143 A 
ATOM     33  N   UNL     1       2.801   4.392   1.564  0.00  0.00    -0.115 NA
ATOM     34  N   UNL     1       2.902   5.215   2.550  0.00  0.00    -0.023 NA
ATOM     35  N   UNL     1       1.727   5.604   2.904  0.00  0.00    -0.043 NA
BRANCH  31  36
ATOM     36  C   UNL     1      -0.599   5.212   2.204  0.00  0.00    +0.061 C 
ATOM     37  C   UNL     1      -1.094   5.838   0.899  0.00  0.00    +0.036 C 
ATOM     38  C   UNL     1      -1.268   3.851   2.402  0.00  0.00    +0.036 C 
BRANCH  36  40
ATOM     39  C   UNL     1      -2.470   6.312   3.441  0.00  0.00    +0.006 C 
ATOM     40  C   UNL     1      -0.953   6.130   3.376  0.00  0.00    +0.026 C 
ENDBRANCH  36  40
ENDBRANCH  31  36
ENDBRANCH   1  32
TORSDOF 7
