REMARK  Name = ZINC39388041
REMARK  5 active torsions:
REMARK  status: ('A' for Active; 'I' for Inactive)
REMARK    1  A    between atoms: C_6  and  N_7
REMARK    2  A    between atoms: N_7  and  C_8
REMARK    3  A    between atoms: C_15  and  C_17
REMARK    4  A    between atoms: C_17  and  C_18
REMARK    5  A    between atoms: C_18  and  C_19
REMARK                            x       y       z     vdW  Elec       q    Type
REMARK                         _______ _______ _______ _____ _____    ______ ____
ROOT
ATOM      1  C   UNL     1      -2.479  -0.006   0.023  0.00  0.00    +0.088 C 
ATOM      2  C   UNL     1      -3.558  -0.902   0.635  0.00  0.00    +0.025 C 
ATOM      3  C   UNL     1      -4.886  -0.144   0.681  0.00  0.00    +0.021 C 
ATOM      4  C   UNL     1      -5.312   0.219  -0.745  0.00  0.00    +0.108 C 
ATOM      5  N   UNL     1      -4.218   0.958  -1.391  0.00  0.00    -0.300 N 
ATOM      6  C   UNL     1      -2.876   0.360  -1.411  0.00  0.00    +0.130 C 
ATOM      7  C   UNL     1      -4.442   2.161  -1.955  0.00  0.00    +0.216 C 
ATOM      8  O   UNL     1      -3.531   2.761  -2.486  0.00  0.00    -0.276 OA
ENDROOT
BRANCH   1   9
ATOM      9  N   UNL     1      -1.200  -0.721   0.008  0.00  0.00    -0.339 N 
ATOM     10  H   UNL     1      -1.186  -1.690   0.003  0.00  0.00    +0.146 HD
BRANCH   9  16
ATOM     11  C   UNL     1      -0.017   1.384   0.010  0.00  0.00    +0.027 A 
ATOM     12  C   UNL     1       1.170   2.092   0.002  0.00  0.00    +0.051 A 
ATOM     13  C   UNL     1       2.382   1.419  -0.013  0.00  0.00    +0.162 A 
ATOM     14  C   UNL     1       2.405   0.029  -0.018  0.00  0.00    +0.164 A 
ATOM     15  C   UNL     1       1.214  -0.681  -0.012  0.00  0.00    +0.072 A 
ATOM     16  C   UNL     1       0.002  -0.004   0.002  0.00  0.00    +0.031 A 
ATOM     17  O   UNL     1       3.585  -0.648  -0.025  0.00  0.00    -0.485 OA
ATOM     18  C   UNL     1       4.750   0.091  -0.407  0.00  0.00    +0.270 C 
ATOM     19  C   UNL     1       4.735   1.431   0.340  0.00  0.00    +0.270 C 
ATOM     20  O   UNL     1       3.542   2.134  -0.024  0.00  0.00    -0.485 OA
ENDBRANCH   9  16
ENDBRANCH   1   9
BRANCH   7  21
ATOM     21  C   UNL     1      -5.824   2.761  -1.927  0.00  0.00    +0.102 C 
BRANCH  21  22
ATOM     22  C   UNL     1      -5.804   4.120  -2.631  0.00  0.00    +0.066 C 
BRANCH  22  23
ATOM     23  C   UNL     1      -7.186   4.720  -2.603  0.00  0.00    +0.065 C 
ATOM     24  C   UNL     1      -7.614   5.580  -1.704  0.00  0.00    -0.021 C 
ATOM     25  C   UNL     1      -7.018   6.080  -0.417  0.00  0.00    +0.035 C 
ATOM     26  C   UNL     1      -8.057   5.797   0.683  0.00  0.00    +0.005 C 
ATOM     27  C   UNL     1      -9.425   6.328   0.264  0.00  0.00    +0.003 C 
ATOM     28  C   UNL     1      -9.947   5.609  -0.986  0.00  0.00    +0.033 C 
ATOM     29  C   UNL     1      -9.022   5.949  -2.157  0.00  0.00    +0.156 C 
ATOM     30  N   UNL     1      -9.224   5.067  -3.308  0.00  0.00    -0.180 NA
ATOM     31  N   UNL     1      -8.165   4.456  -3.505  0.00  0.00    -0.158 NA
ENDBRANCH  22  23
ENDBRANCH  21  22
ENDBRANCH   7  21
TORSDOF 5
