REMARK  Name = ZINC27320932
REMARK  12 active torsions:
REMARK  status: ('A' for Active; 'I' for Inactive)
REMARK    1  A    between atoms: C_1  and  C_2
REMARK    2  A    between atoms: C_2  and  C_39
REMARK    3  A    between atoms: C_7  and  C_21
REMARK    4  A    between atoms: C_8  and  N_11
REMARK    5  A    between atoms: C_12  and  C_14
REMARK    6  A    between atoms: C_14  and  C_16
REMARK    7  A    between atoms: C_14  and  N_20
REMARK    8  A    between atoms: C_16  and  C_17
REMARK    9  A    between atoms: C_17  and  C_18
REMARK   10  A    between atoms: C_18  and  O_19
REMARK   11  A    between atoms: C_21  and  S_22
REMARK   12  A    between atoms: S_22  and  N_25
REMARK                            x       y       z     vdW  Elec       q    Type
REMARK                         _______ _______ _______ _____ _____    ______ ____
ROOT
ATOM      1  C   UNL     1      -4.481   1.958  -8.840  0.00  0.00    +0.012 C 
ATOM      2  C   UNL     1      -5.242   0.793  -8.203  0.00  0.00    -0.023 C 
ATOM      3  C   UNL     1      -6.720   0.701  -8.723  0.00  0.00    -0.003 C 
ATOM      4  C   UNL     1      -7.292   2.057  -8.207  0.00  0.00    +0.005 C 
ATOM      5  C   UNL     1      -6.541   2.321  -6.869  0.00  0.00    +0.011 C 
ATOM      6  C   UNL     1      -5.611   1.080  -6.705  0.00  0.00    +0.015 C 
ATOM      7  C   UNL     1      -6.569  -0.114  -6.410  0.00  0.00    +0.081 C 
ATOM      8  C   UNL     1      -7.303  -0.365  -7.747  0.00  0.00    +0.027 C 
ATOM      9  C   UNL     1      -4.491  -0.530  -8.366  0.00  0.00    +0.012 C 
ENDROOT
BRANCH   7  10
ATOM     10  N   UNL     1      -7.526   0.245  -5.361  0.00  0.00    -0.313 N 
ATOM     11  C   UNL     1      -8.213  -0.718  -4.716  0.00  0.00    +0.199 C 
ATOM     12  O   UNL     1      -8.038  -1.883  -5.004  0.00  0.00    -0.278 OA
ATOM     13  H   UNL     1      -7.684   1.302  -5.099  0.00  0.00    +0.149 HD
BRANCH  11  14
ATOM     14  C   UNL     1      -9.197  -0.348  -3.637  0.00  0.00    +0.013 C 
BRANCH  14  15
ATOM     15  N   UNL     1      -9.448  -1.516  -2.781  0.00  0.00    +0.386 N 
ATOM     16  H   UNL     1     -10.167  -1.245  -1.993  0.00  0.00    -0.089 HD
ATOM     17  H   UNL     1      -8.504  -1.841  -2.320  0.00  0.00    -0.089 HD
ATOM     18  H   UNL     1      -9.861  -2.334  -3.389  0.00  0.00    -0.089 HD
ENDBRANCH  14  15
BRANCH  14  19
ATOM     19  C   UNL     1     -10.510   0.105  -4.278  0.00  0.00    -0.005 C 
BRANCH  19  20
ATOM     20  C   UNL     1     -11.466   0.599  -3.190  0.00  0.00    +0.027 C 
BRANCH  20  21
ATOM     21  C   UNL     1     -12.779   1.052  -3.831  0.00  0.00    +0.156 C 
BRANCH  21  22
ATOM     22  O   UNL     1     -13.671   1.513  -2.815  0.00  0.00    -0.395 OA
ATOM     23  H   UNL     1     -14.672   1.881  -3.087  0.00  0.00    +0.209 HD
ENDBRANCH  21  22
ENDBRANCH  20  21
ENDBRANCH  19  20
ENDBRANCH  14  19
ENDBRANCH  11  14
ENDBRANCH   7  10
BRANCH   6  24
ATOM     24  C   UNL     1      -4.436   1.249  -5.739  0.00  0.00    +0.194 C 
BRANCH  24  25
ATOM     25  S   UNL     1      -5.066   1.571  -4.069  0.00  0.00    +0.032 S 
ATOM     26  O   UNL     1      -5.724   0.417  -3.564  0.00  0.00    -0.158 OA
ATOM     27  O   UNL     1      -5.696   2.844  -4.021  0.00  0.00    -0.158 OA
BRANCH  25  28
ATOM     28  N   UNL     1      -3.714   1.733  -3.128  0.00  0.00    -0.181 NA
ATOM     29  C   UNL     1      -3.089   3.049  -2.937  0.00  0.00    +0.110 C 
ATOM     30  C   UNL     1      -2.962   3.321  -1.434  0.00  0.00    +0.028 C 
ATOM     31  C   UNL     1      -2.225   2.161  -0.770  0.00  0.00    -0.001 C 
ATOM     32  C   UNL     1      -0.808   2.034  -1.358  0.00  0.00    +0.016 C 
ATOM     33  C   UNL     1       0.016   1.578  -0.134  0.00  0.00    +0.036 C 
ATOM     34  C   UNL     1      -0.737   2.101   1.071  0.00  0.00    -0.044 A 
ATOM     35  C   UNL     1      -2.030   2.436   0.702  0.00  0.00    -0.038 A 
ATOM     36  C   UNL     1      -2.907   2.938   1.649  0.00  0.00    +0.004 A 
ATOM     37  C   UNL     1      -2.491   3.105   2.962  0.00  0.00    +0.000 A 
ATOM     38  C   UNL     1      -1.200   2.770   3.326  0.00  0.00    +0.000 A 
ATOM     39  C   UNL     1      -0.326   2.269   2.382  0.00  0.00    +0.004 A 
ATOM     40  C   UNL     1      -2.990   0.855  -0.969  0.00  0.00    +0.028 C 
ATOM     41  C   UNL     1      -3.116   0.564  -2.469  0.00  0.00    +0.110 C 
ENDBRANCH  25  28
ENDBRANCH  24  25
ENDBRANCH   6  24
TORSDOF 10
