REMARK  Name = ZINC01586845
REMARK  1 active torsions:
REMARK  status: ('A' for Active; 'I' for Inactive)
REMARK    1  A    between atoms: C_14  and  N_28
REMARK                            x       y       z     vdW  Elec       q    Type
REMARK                         _______ _______ _______ _____ _____    ______ ____
ROOT
ATOM      1  C   UNL     1       4.948   0.050  -0.045  0.00  0.00    +0.001 A 
ATOM      2  C   UNL     1       4.934   1.437  -0.039  0.00  0.00    +0.001 A 
ATOM      3  C   UNL     1       3.739   2.124  -0.025  0.00  0.00    +0.012 A 
ATOM      4  C   UNL     1       2.532   1.423  -0.016  0.00  0.00    +0.030 A 
ATOM      5  C   UNL     1       2.547   0.015  -0.023  0.00  0.00    -0.006 A 
ATOM      6  C   UNL     1       3.766  -0.662  -0.038  0.00  0.00    +0.009 A 
ATOM      7  C   UNL     1       1.277  -0.733  -0.014  0.00  0.00    -0.004 A 
ATOM      8  C   UNL     1       1.255  -2.108  -0.021  0.00  0.00    +0.056 A 
ATOM      9  C   UNL     1       0.016  -2.801  -0.013  0.00  0.00    +0.142 A 
ATOM     10  N   UNL     1       0.057  -4.124  -0.020  0.00  0.00    -0.229 NA
ATOM     11  C   UNL     1      -1.051  -4.878  -0.011  0.00  0.00    +0.079 A 
ATOM     12  C   UNL     1      -0.986  -6.278  -0.018  0.00  0.00    +0.030 A 
ATOM     13  C   UNL     1      -2.135  -7.012  -0.011  0.00  0.00    +0.025 A 
ATOM     14  C   UNL     1      -3.385  -6.389   0.003  0.00  0.00    +0.025 A 
ATOM     15  C   UNL     1      -3.481  -5.008   0.010  0.00  0.00    +0.038 A 
ATOM     16  C   UNL     1      -2.317  -4.243   0.004  0.00  0.00    +0.067 A 
ATOM     17  C   UNL     1      -2.353  -2.776   0.010  0.00  0.00    +0.267 A 
ATOM     18  O   UNL     1      -3.412  -2.174   0.023  0.00  0.00    -0.267 OA
ATOM     19  N   UNL     1      -1.172  -2.112   0.002  0.00  0.00    -0.260 N 
ATOM     20  C   UNL     1      -1.199  -0.725   0.010  0.00  0.00    +0.060 A 
ATOM     21  C   UNL     1       0.002  -0.004   0.002  0.00  0.00    +0.018 A 
ATOM     22  C   UNL     1      -0.017   1.403   0.010  0.00  0.00    +0.032 A 
ATOM     23  C   UNL     1       1.251   2.151   0.002  0.00  0.00    +0.194 A 
ATOM     24  O   UNL     1       1.241   3.368   0.008  0.00  0.00    -0.287 OA
ATOM     25  C   UNL     1      -1.242   2.069   0.031  0.00  0.00    +0.012 A 
ATOM     26  C   UNL     1      -2.421   1.346   0.033  0.00  0.00    +0.003 A 
ATOM     27  C   UNL     1      -2.407  -0.036   0.025  0.00  0.00    +0.027 A 
ENDROOT
BRANCH  14  28
ATOM     28  N   UNL     1      -4.546  -7.165   0.010  0.00  0.00    -0.358 N 
ATOM     29  H   UNL     1      -4.483  -8.133   0.004  0.00  0.00    +0.142 HD
ATOM     30  H   UNL     1      -5.416  -6.736   0.019  0.00  0.00    +0.142 HD
ENDBRANCH  14  28
TORSDOF 1
