REMARK  Name = ZINC45540963
REMARK  5 active torsions:
REMARK  status: ('A' for Active; 'I' for Inactive)
REMARK    1  A    between atoms: C_6  and  C_7
REMARK    2  A    between atoms: C_10  and  S_13
REMARK    3  A    between atoms: S_13  and  C_14
REMARK    4  A    between atoms: C_14  and  C_15
REMARK    5  A    between atoms: N_21  and  C_22
REMARK                            x       y       z     vdW  Elec       q    Type
REMARK                         _______ _______ _______ _____ _____    ______ ____
ROOT
ATOM      1  C   UNL     1      -2.329  -6.555  -0.002  0.00  0.00    +0.146 A 
ATOM      2  N   UNL     1      -2.252  -7.242   1.125  0.00  0.00    -0.199 NA
ATOM      3  C   UNL     1      -2.399  -8.565   1.110  0.00  0.00    +0.217 A 
ATOM      4  N   UNL     1      -2.622  -9.195  -0.038  0.00  0.00    -0.181 NA
ATOM      5  C   UNL     1      -2.698  -8.501  -1.168  0.00  0.00    +0.224 A 
ATOM      6  N   UNL     1      -2.556  -7.177  -1.145  0.00  0.00    -0.198 NA
ATOM      7  N   UNL     1      -2.929  -9.150  -2.365  0.00  0.00    -0.284 N 
ATOM      8  N   UNL     1      -2.319  -9.282   2.287  0.00  0.00    -0.327 N 
ATOM      9  H   UNL     1      -2.903  -8.655  -3.199  0.00  0.00    +0.155 HD
ATOM     10  H   UNL     1      -2.156  -8.822   3.125  0.00  0.00    +0.145 HD
ATOM     11  H   UNL     1      -2.426 -10.246   2.276  0.00  0.00    +0.145 HD
ENDROOT
BRANCH   7  12
ATOM     12  C   UNL     1      -3.201 -10.523  -2.375  0.00  0.00    +0.034 A 
ATOM     13  C   UNL     1      -3.970 -11.087  -1.365  0.00  0.00    +0.026 A 
ATOM     14  C   UNL     1      -4.237 -12.442  -1.377  0.00  0.00    +0.040 A 
ATOM     15  C   UNL     1      -3.739 -13.238  -2.394  0.00  0.00    +0.124 A 
ATOM     16  C   UNL     1      -2.971 -12.678  -3.401  0.00  0.00    +0.040 A 
ATOM     17  C   UNL     1      -2.706 -11.323  -3.397  0.00  0.00    +0.026 A 
ATOM     18  F   UNL     1      -4.001 -14.564  -2.404  0.00  0.00    -0.205 F 
ENDBRANCH   7  12
BRANCH   1  19
ATOM     19  C   UNL     1      -2.162  -5.057   0.019  0.00  0.00    +0.153 C 
BRANCH  19  20
ATOM     20  S   UNL     1      -3.780  -4.273   0.262  0.00  0.00    -0.079 S 
BRANCH  20  24
ATOM     21  C   UNL     1      -2.334  -0.670   0.169  0.00  0.00    +0.182 A 
ATOM     22  N   UNL     1      -2.231  -2.006   0.116  0.00  0.00    -0.201 NA
ATOM     23  H   UNL     1      -5.276  -1.644   0.541  0.00  0.00    +0.191 HD
ATOM     24  C   UNL     1      -3.420  -2.548   0.263  0.00  0.00    +0.185 A 
ATOM     25  N   UNL     1      -4.319  -1.549   0.414  0.00  0.00    -0.253 N 
ATOM     26  N   UNL     1      -3.595  -0.348   0.355  0.00  0.00    -0.152 NA
BRANCH  21  32
ATOM     27  C   UNL     1      -1.446   1.659   0.116  0.00  0.00    +0.013 A 
ATOM     28  C   UNL     1      -0.396   2.546  -0.001  0.00  0.00    +0.021 A 
ATOM     29  C   UNL     1       0.892   2.076  -0.190  0.00  0.00    +0.041 A 
ATOM     30  C   UNL     1       1.134   0.715  -0.263  0.00  0.00    +0.021 A 
ATOM     31  C   UNL     1       0.090  -0.180  -0.147  0.00  0.00    +0.013 A 
ATOM     32  C   UNL     1      -1.208   0.288   0.044  0.00  0.00    +0.021 A 
ATOM     33 CL   UNL     1       2.210   3.197  -0.337  0.00  0.00    -0.084 Cl
ENDBRANCH  21  32
ENDBRANCH  20  24
ENDBRANCH  19  20
ENDBRANCH   1  19
TORSDOF 5
