REMARK  Name = ZINC36556378
REMARK  20 active torsions:
REMARK  status: ('A' for Active; 'I' for Inactive)
REMARK    1  A    between atoms: C_1  and  C_2
REMARK    2  A    between atoms: C_5  and  C_7
REMARK    3  A    between atoms: C_7  and  N_8
REMARK    4  A    between atoms: N_8  and  C_9
REMARK    5  A    between atoms: C_9  and  C_11
REMARK    6  A    between atoms: C_9  and  C_20
REMARK    7  A    between atoms: C_11  and  C_13
REMARK    8  A    between atoms: C_11  and  C_14
REMARK    9  A    between atoms: N_22  and  C_23
REMARK   10  A    between atoms: C_23  and  C_24
REMARK   11  A    between atoms: C_23  and  C_25
REMARK   12  A    between atoms: C_23  and  C_26
REMARK   13  A    between atoms: C_26  and  C_27
REMARK   14  A    between atoms: C_27  and  C_28
REMARK   15  A    between atoms: C_27  and  C_29
REMARK   16  A    between atoms: C_27  and  C_30
REMARK   17  A    between atoms: C_31  and  C_33
REMARK   18  A    between atoms: C_33  and  C_35
REMARK   19  A    between atoms: C_33  and  O_41
REMARK   20  A    between atoms: O_41  and  C_42
REMARK                            x       y       z     vdW  Elec       q    Type
REMARK                         _______ _______ _______ _____ _____    ______ ____
ROOT
ATOM      1  C   UNL     1       4.941  -2.861  -0.169  0.00  0.00    +0.169 C 
ENDROOT
BRANCH   1   2
ATOM      2  C   UNL     1       4.431  -1.557   0.386  0.00  0.00    +0.235 C 
ATOM      3  O   UNL     1       3.659  -1.556   1.321  0.00  0.00    -0.274 OA
ATOM      4  N   UNL     1       4.833  -0.390  -0.156  0.00  0.00    -0.309 N 
ATOM      5  H   UNL     1       5.399  -0.392  -0.944  0.00  0.00    +0.149 HD
BRANCH   4   6
ATOM      6  C   UNL     1       4.416   0.879   0.444  0.00  0.00    +0.030 C 
ATOM      7  C   UNL     1       2.893   0.904   0.578  0.00  0.00    +0.031 C 
ATOM      8  C   UNL     1       5.053   1.023   1.828  0.00  0.00    +0.031 C 
BRANCH   6   9
ATOM      9  C   UNL     1       4.868   2.038  -0.448  0.00  0.00    +0.031 C 
BRANCH   9  10
ATOM     10  C   UNL     1       4.096   1.997  -1.768  0.00  0.00    -0.036 C 
ATOM     11  C   UNL     1       2.672   2.510  -1.542  0.00  0.00    +0.010 C 
ATOM     12  C   UNL     1       4.800   2.882  -2.798  0.00  0.00    +0.010 C 
ATOM     13  C   UNL     1       4.043   0.557  -2.283  0.00  0.00    +0.010 C 
ENDBRANCH   9  10
ENDBRANCH   6   9
ENDBRANCH   4   6
ENDBRANCH   1   2
BRANCH   1  14
ATOM     14  N   UNL     1       4.157  -3.968   0.386  0.00  0.00    -0.280 N 
ATOM     15  C   UNL     1       3.506  -4.812  -0.438  0.00  0.00    +0.250 C 
ATOM     16  O   UNL     1       3.489  -4.601  -1.632  0.00  0.00    -0.272 OA
BRANCH  14  17
ATOM     17  C   UNL     1       4.082  -4.157   1.837  0.00  0.00    +0.182 C 
BRANCH  17  22
ATOM     18  C   UNL     1       6.765  -8.317   2.799  0.00  0.00    +0.086 C 
ATOM     19  C   UNL     1       6.371  -6.866   2.704  0.00  0.00    +0.102 A 
ATOM     20  C   UNL     1       7.120  -5.820   3.096  0.00  0.00    +0.045 A 
ATOM     21  C   UNL     1       6.368  -4.654   2.826  0.00  0.00    +0.046 A 
ATOM     22  C   UNL     1       5.204  -5.057   2.286  0.00  0.00    +0.122 A 
ATOM     23  O   UNL     1       5.214  -6.398   2.209  0.00  0.00    -0.463 OA
ENDBRANCH  17  22
ENDBRANCH  14  17
BRANCH  15  24
ATOM     24  C   UNL     1       2.799  -6.018   0.124  0.00  0.00    +0.233 C 
BRANCH  24  25
ATOM     25  C   UNL     1       3.317  -7.263  -0.548  0.00  0.00    -0.010 A 
ATOM     26  C   UNL     1       2.964  -7.541  -1.855  0.00  0.00    +0.006 A 
ATOM     27  C   UNL     1       3.439  -8.683  -2.472  0.00  0.00    +0.000 A 
ATOM     28  C   UNL     1       4.270  -9.547  -1.782  0.00  0.00    +0.000 A 
ATOM     29  C   UNL     1       4.624  -9.268  -0.475  0.00  0.00    +0.000 A 
ATOM     30  C   UNL     1       4.152  -8.124   0.140  0.00  0.00    +0.006 A 
ENDBRANCH  24  25
BRANCH  24  31
ATOM     31  O   UNL     1       1.394  -5.900  -0.112  0.00  0.00    -0.366 OA
ATOM     32  C   UNL     1       0.683  -5.237   0.936  0.00  0.00    +0.195 C 
ENDBRANCH  24  31
ENDBRANCH  15  24
ENDBRANCH   1  14
BRANCH   1  33
ATOM     33  C   UNL     1       6.413  -3.038   0.213  0.00  0.00    +0.045 C 
ATOM     34  C   UNL     1       6.894  -4.419  -0.235  0.00  0.00    +0.015 C 
BRANCH  33  35
ATOM     35  C   UNL     1       7.238  -1.974  -0.466  0.00  0.00    -0.042 A 
ATOM     36  C   UNL     1       7.242  -1.878  -1.845  0.00  0.00    +0.004 A 
ATOM     37  C   UNL     1       7.999  -0.903  -2.467  0.00  0.00    +0.000 A 
ATOM     38  C   UNL     1       8.752  -0.024  -1.710  0.00  0.00    +0.000 A 
ATOM     39  C   UNL     1       8.747  -0.120  -0.331  0.00  0.00    +0.000 A 
ATOM     40  C   UNL     1       7.986  -1.093   0.291  0.00  0.00    +0.004 A 
ENDBRANCH  33  35
ENDBRANCH   1  33
TORSDOF 12
