REMARK  Name = ZINC02609377
REMARK  13 active torsions:
REMARK  status: ('A' for Active; 'I' for Inactive)
REMARK    1  A    between atoms: C_1  and  C_2
REMARK    2  A    between atoms: C_2  and  C_3
REMARK    3  A    between atoms: C_3  and  C_4
REMARK    4  A    between atoms: C_3  and  C_5
REMARK    5  A    between atoms: C_3  and  C_6
REMARK    6  A    between atoms: C_9  and  O_12
REMARK    7  A    between atoms: O_12  and  C_13
REMARK    8  A    between atoms: C_13  and  C_14
REMARK    9  A    between atoms: C_14  and  C_15
REMARK   10  A    between atoms: C_15  and  C_16
REMARK   11  A    between atoms: N_18  and  C_19
REMARK   12  A    between atoms: C_20  and  C_30
REMARK   13  A    between atoms: C_25  and  C_29
REMARK                            x       y       z     vdW  Elec       q    Type
REMARK                         _______ _______ _______ _____ _____    ______ ____
ROOT
ATOM      1  C   UNL     1      -3.536 -10.550  -0.035  0.00  0.00    +0.218 C 
ATOM      2  O   UNL     1      -2.409 -10.998  -0.043  0.00  0.00    -0.275 OA
ATOM      3  N   UNL     1      -4.594 -11.385  -0.035  0.00  0.00    -0.279 N 
ATOM      4  H   UNL     1      -5.495 -11.027  -0.028  0.00  0.00    +0.155 HD
ENDROOT
BRANCH   3   5
ATOM      5  C   UNL     1      -4.394 -12.757  -0.044  0.00  0.00    +0.084 A 
ATOM      6  C   UNL     1      -5.352 -13.758  -0.051  0.00  0.00    +0.068 A 
ATOM      7  C   UNL     1      -4.878 -15.131  -0.060  0.00  0.00    -0.023 A 
ATOM      8  C   UNL     1      -3.533 -15.252  -0.060  0.00  0.00    -0.004 A 
ATOM      9  S   UNL     1      -2.934 -13.587  -0.057  0.00  0.00    -0.077 S 
ATOM     10  C   UNL     1      -2.744 -16.524  -0.067  0.00  0.00    +0.046 C 
ATOM     11  C   UNL     1      -3.686 -17.678   0.307  0.00  0.00    -0.009 C 
ATOM     12  C   UNL     1      -4.964 -17.565  -0.529  0.00  0.00    +0.008 C 
ATOM     13  C   UNL     1      -5.782 -16.355  -0.070  0.00  0.00    +0.037 C 
ATOM     14  C   UNL     1      -2.999 -19.014   0.019  0.00  0.00    +0.008 C 
BRANCH   6  15
ATOM     15  C   UNL     1      -6.784 -13.444  -0.048  0.00  0.00    +0.244 C 
ATOM     16  O   UNL     1      -7.379 -13.307  -1.101  0.00  0.00    -0.270 OA
ATOM     17  N   UNL     1      -7.442 -13.308   1.120  0.00  0.00    -0.325 N 
ATOM     18  H   UNL     1      -6.968 -13.417   1.959  0.00  0.00    +0.145 HD
ATOM     19  H   UNL     1      -8.390 -13.100   1.122  0.00  0.00    +0.145 HD
ENDBRANCH   6  15
ENDBRANCH   3   5
BRANCH   1  20
ATOM     20  C   UNL     1      -3.754  -9.058  -0.025  0.00  0.00    +0.099 C 
BRANCH  20  21
ATOM     21  C   UNL     1      -2.400  -8.345  -0.027  0.00  0.00    +0.050 C 
BRANCH  21  22
ATOM     22  C   UNL     1      -2.621  -6.831  -0.017  0.00  0.00    +0.229 C 
BRANCH  22  23
ATOM     23  O   UNL     1      -1.357  -6.165  -0.019  0.00  0.00    -0.492 OA
BRANCH  23  27
ATOM     24  C   UNL     1      -1.413  -2.041   0.005  0.00  0.00    -0.042 A 
ATOM     25  C   UNL     1      -0.205  -2.714  -0.005  0.00  0.00    +0.008 A 
ATOM     26  C   UNL     1      -0.184  -4.096  -0.013  0.00  0.00    +0.046 A 
ATOM     27  C   UNL     1      -1.375  -4.807  -0.011  0.00  0.00    +0.121 A 
ATOM     28  C   UNL     1      -2.585  -4.128  -0.001  0.00  0.00    +0.046 A 
ATOM     29  C   UNL     1      -2.601  -2.747   0.012  0.00  0.00    +0.008 A 
BRANCH  24  30
ATOM     30  C   UNL     1      -1.433  -0.534   0.013  0.00  0.00    -0.010 C 
ATOM     31  C   UNL     1      -2.149  -0.040   1.272  0.00  0.00    +0.016 C 
ATOM     32  C   UNL     1      -2.173  -0.027  -1.227  0.00  0.00    +0.016 C 
BRANCH  30  34
ATOM     33  C   UNL     1      -0.019   1.526   0.010  0.00  0.00    +0.005 C 
ATOM     34  C   UNL     1       0.002  -0.004   0.002  0.00  0.00    +0.007 C 
ENDBRANCH  30  34
ENDBRANCH  24  30
ENDBRANCH  23  27
ENDBRANCH  22  23
ENDBRANCH  21  22
ENDBRANCH  20  21
ENDBRANCH   1  20
TORSDOF 9
