REMARK  Name = ZINC20103153
REMARK  13 active torsions:
REMARK  status: ('A' for Active; 'I' for Inactive)
REMARK    1  A    between atoms: C_1  and  C_2
REMARK    2  A    between atoms: C_4  and  C_28
REMARK    3  A    between atoms: C_5  and  O_9
REMARK    4  A    between atoms: O_9  and  C_10
REMARK    5  A    between atoms: C_10  and  C_11
REMARK    6  A    between atoms: N_13  and  N_14
REMARK    7  A    between atoms: C_15  and  C_16
REMARK    8  A    between atoms: C_18  and  O_26
REMARK    9  A    between atoms: C_19  and  O_24
REMARK   10  A    between atoms: C_20  and  O_22
REMARK   11  A    between atoms: O_22  and  C_23
REMARK   12  A    between atoms: O_24  and  C_25
REMARK   13  A    between atoms: O_26  and  C_27
REMARK                            x       y       z     vdW  Elec       q    Type
REMARK                         _______ _______ _______ _____ _____    ______ ____
ROOT
ATOM      1  C   UNL     1       0.500   5.625   1.100  0.00  0.00    +0.270 C 
ATOM      2  O   UNL     1       0.971   5.979   0.040  0.00  0.00    -0.270 OA
ATOM      3  N   UNL     1       0.459   6.483   2.139  0.00  0.00    -0.204 N 
ATOM      4  H   UNL     1       0.032   6.163   3.100  0.00  0.00    +0.177 HD
ENDROOT
BRANCH   3   5
ATOM      5  N   UNL     1       0.960   7.784   1.993  0.00  0.00    -0.188 NA
ATOM      6  C   UNL     1       1.029   8.571   3.022  0.00  0.00    +0.138 C 
BRANCH   6   7
ATOM      7  C   UNL     1       1.048   8.005   4.384  0.00  0.00    +0.002 A 
ATOM      8  C   UNL     1       0.845   8.835   5.489  0.00  0.00    +0.059 A 
ATOM      9  C   UNL     1       0.858   8.300   6.765  0.00  0.00    +0.166 A 
ATOM     10  C   UNL     1       1.084   6.939   6.948  0.00  0.00    +0.204 A 
ATOM     11  C   UNL     1       1.293   6.112   5.849  0.00  0.00    +0.166 A 
ATOM     12  C   UNL     1       1.276   6.640   4.571  0.00  0.00    +0.059 A 
BRANCH  11  13
ATOM     13  O   UNL     1       1.515   4.783   6.032  0.00  0.00    -0.491 OA
ATOM     14  C   UNL     1       1.723   3.992   4.860  0.00  0.00    +0.277 C 
ENDBRANCH  11  13
BRANCH  10  15
ATOM     15  O   UNL     1       1.102   6.417   8.204  0.00  0.00    -0.488 OA
ATOM     16  C   UNL     1       2.362   6.387   8.877  0.00  0.00    +0.277 C 
ENDBRANCH  10  15
BRANCH   9  17
ATOM     17  O   UNL     1       0.654   9.106   7.841  0.00  0.00    -0.491 OA
ATOM     18  C   UNL     1       0.428  10.492   7.580  0.00  0.00    +0.277 C 
ENDBRANCH   9  17
ENDBRANCH   6   7
ENDBRANCH   3   5
BRANCH   1  19
ATOM     19  C   UNL     1      -0.039   4.227   1.257  0.00  0.00    +0.326 C 
BRANCH  19  20
ATOM     20  O   UNL     1       0.117   3.516   0.027  0.00  0.00    -0.481 OA
BRANCH  20  25
ATOM     21  C   UNL     1      -1.702  -1.814  -0.096  0.00  0.00    +0.044 C 
ATOM     22  C   UNL     1      -1.215  -0.388  -0.063  0.00  0.00    -0.049 A 
ATOM     23  C   UNL     1      -2.073   0.642  -0.402  0.00  0.00    +0.010 A 
ATOM     24  C   UNL     1      -1.629   1.950  -0.372  0.00  0.00    -0.007 A 
ATOM     25  C   UNL     1      -0.322   2.230  -0.003  0.00  0.00    +0.138 A 
ATOM     26  C   UNL     1       0.537   1.194   0.337  0.00  0.00    +0.060 A 
ATOM     27  C   UNL     1       0.088  -0.113   0.306  0.00  0.00    +0.022 A 
ATOM     28 BR   UNL     1       2.320   1.571   0.843  0.00  0.00    -0.047 Br
ATOM     29  C   UNL     1      -2.563   3.071  -0.748  0.00  0.00    +0.047 C 
ENDBRANCH  20  25
ENDBRANCH  19  20
ENDBRANCH   1  19
TORSDOF 8
