REMARK  Name = ZINC08427256
REMARK  11 active torsions:
REMARK  status: ('A' for Active; 'I' for Inactive)
REMARK    1  A    between atoms: C_1  and  C_2
REMARK    2  A    between atoms: C_2  and  N_3
REMARK    3  A    between atoms: N_3  and  C_4
REMARK    4  A    between atoms: C_4  and  C_5
REMARK    5  A    between atoms: C_6  and  C_8
REMARK    6  A    between atoms: N_13  and  C_15
REMARK    7  A    between atoms: C_18  and  N_33
REMARK    8  A    between atoms: C_20  and  C_21
REMARK    9  A    between atoms: N_22  and  N_23
REMARK   10  A    between atoms: N_23  and  S_24
REMARK   11  A    between atoms: S_24  and  C_27
REMARK                            x       y       z     vdW  Elec       q    Type
REMARK                         _______ _______ _______ _____ _____    ______ ____
ROOT
ATOM      1  C   UNL     1      -1.537  -0.184   5.942  0.00  0.00    +0.039 A 
ATOM      2  C   UNL     1      -1.090   1.125   6.031  0.00  0.00    +0.026 A 
ATOM      3  C   UNL     1      -1.450   1.908   7.111  0.00  0.00    +0.034 A 
ATOM      4  C   UNL     1      -2.258   1.393   8.110  0.00  0.00    +0.127 A 
ATOM      5  C   UNL     1      -2.713   0.093   8.038  0.00  0.00    +0.044 A 
ATOM      6  C   UNL     1      -2.361  -0.708   6.950  0.00  0.00    +0.018 A 
ENDROOT
BRANCH   1  11
ATOM      7  C   UNL     1      -1.118  -0.683   2.430  0.00  0.00    +0.092 C 
ATOM      8  C   UNL     1       0.070  -1.647   2.403  0.00  0.00    +0.016 C 
ATOM      9  C   UNL     1       0.904  -1.468   3.673  0.00  0.00    +0.020 C 
ATOM     10  C   UNL     1       0.042  -1.798   4.896  0.00  0.00    +0.105 C 
ATOM     11  N   UNL     1      -1.175  -0.976   4.852  0.00  0.00    -0.329 N 
ATOM     12  C   UNL     1      -2.003  -1.003   3.639  0.00  0.00    +0.118 C 
BRANCH   7  14
ATOM     13  N   UNL     1      -1.495  -0.261   0.022  0.00  0.00    -0.302 N 
ATOM     14  C   UNL     1      -1.920  -0.837   1.164  0.00  0.00    +0.220 C 
ATOM     15  O   UNL     1      -2.949  -1.480   1.172  0.00  0.00    -0.275 OA
BRANCH  13  17
ATOM     16  C   UNL     1      -2.061  -1.622  -1.930  0.00  0.00    +0.024 C 
ATOM     17  C   UNL     1      -2.329  -0.315  -1.181  0.00  0.00    +0.104 C 
ENDBRANCH  13  17
BRANCH  13  18
ATOM     18  C   UNL     1      -0.198   0.419  -0.016  0.00  0.00    +0.104 C 
ATOM     19  C   UNL     1      -0.400   1.917   0.221  0.00  0.00    +0.024 C 
ENDBRANCH  13  18
ENDBRANCH   7  14
ENDBRANCH   1  11
BRANCH   4  20
ATOM     20  N   UNL     1      -2.636   2.243   9.262  0.00  0.00    +0.056 N 
ATOM     21  O   UNL     1      -2.239   3.383   9.329  0.00  0.00    -0.126 OA
ATOM     22  O   UNL     1      -3.342   1.796  10.137  0.00  0.00    -0.126 OA
ENDBRANCH   4  20
BRANCH   6  23
ATOM     23  C   UNL     1      -2.847  -2.097   6.864  0.00  0.00    +0.143 C 
ATOM     24  N   UNL     1      -2.513  -2.839   5.853  0.00  0.00    -0.149 NA
BRANCH  24  25
ATOM     25  N   UNL     1      -2.975  -4.159   5.771  0.00  0.00    +0.006 NA
BRANCH  25  26
ATOM     26  S   UNL     1      -2.550  -5.107   4.481  0.00  0.00    +0.108 S 
ATOM     27  O   UNL     1      -3.161  -4.531   3.335  0.00  0.00    -0.147 OA
ATOM     28  O   UNL     1      -1.147  -5.313   4.574  0.00  0.00    -0.147 OA
BRANCH  26  29
ATOM     29  C   UNL     1      -3.307  -6.680   4.719  0.00  0.00    +0.112 A 
ATOM     30  C   UNL     1      -2.638  -7.671   5.412  0.00  0.00    +0.029 A 
ATOM     31  C   UNL     1      -3.231  -8.906   5.599  0.00  0.00    +0.002 A 
ATOM     32  C   UNL     1      -4.494  -9.149   5.092  0.00  0.00    +0.000 A 
ATOM     33  C   UNL     1      -5.163  -8.158   4.399  0.00  0.00    +0.002 A 
ATOM     34  C   UNL     1      -4.572  -6.922   4.216  0.00  0.00    +0.029 A 
ENDBRANCH  26  29
ENDBRANCH  25  26
ENDBRANCH  24  25
ENDBRANCH   6  23
TORSDOF 9
