REMARK  Name = ZINC39665944
REMARK  9 active torsions:
REMARK  status: ('A' for Active; 'I' for Inactive)
REMARK    1  A    between atoms: C_1  and  C_2
REMARK    2  A    between atoms: C_5  and  O_8
REMARK    3  A    between atoms: O_8  and  C_9
REMARK    4  A    between atoms: C_9  and  C_11
REMARK    5  A    between atoms: C_9  and  C_12
REMARK    6  A    between atoms: C_12  and  N_13
REMARK    7  A    between atoms: C_14  and  C_16
REMARK    8  A    between atoms: C_27  and  C_29
REMARK    9  A    between atoms: C_35  and  C_37
REMARK                            x       y       z     vdW  Elec       q    Type
REMARK                         _______ _______ _______ _____ _____    ______ ____
ROOT
ATOM      1  C   UNL     1       4.838  -6.439   0.555  0.00  0.00    +0.100 C 
ATOM      2  C   UNL     1       5.018  -5.600  -0.730  0.00  0.00    +0.121 C 
ATOM      3  N   UNL     1       6.280  -6.096  -1.328  0.00  0.00    -0.299 N 
ATOM      4  C   UNL     1       6.240  -7.561  -1.109  0.00  0.00    +0.115 C 
ATOM      5  C   UNL     1       5.641  -7.726   0.302  0.00  0.00    -0.004 C 
ATOM      6  C   UNL     1       6.755  -7.865   1.335  0.00  0.00    -0.010 C 
ATOM      7  C   UNL     1       7.504  -9.180   1.097  0.00  0.00    -0.082 C 
ATOM      8  N   UNL     1       6.566 -10.304   1.204  0.00  0.00    +0.379 N 
ATOM      9  C   UNL     1       5.551 -10.212   0.147  0.00  0.00    -0.082 C 
ATOM     10  C   UNL     1       4.720  -8.941   0.345  0.00  0.00    -0.010 C 
ATOM     11  C   UNL     1       7.245  -5.376  -1.933  0.00  0.00    +0.236 C 
ATOM     12  O   UNL     1       8.228  -5.932  -2.376  0.00  0.00    -0.274 OA
ATOM     13  H   UNL     1       7.072 -11.172   1.107  0.00  0.00    -0.086 HD
ATOM     14  H   UNL     1       6.115 -10.280   2.106  0.00  0.00    -0.086 HD
ENDROOT
BRANCH  11  15
ATOM     15  C   UNL     1       7.104  -3.881  -2.060  0.00  0.00    +0.162 C 
ATOM     16  C   UNL     1       6.178  -3.540  -3.246  0.00  0.00    +0.033 C 
ATOM     17  C   UNL     1       6.851  -2.286  -3.863  0.00  0.00    +0.021 C 
ATOM     18  C   UNL     1       8.353  -2.603  -3.651  0.00  0.00    +0.109 C 
ATOM     19  N   UNL     1       8.415  -3.277  -2.338  0.00  0.00    -0.283 N 
ATOM     20  C   UNL     1       9.492  -3.330  -1.529  0.00  0.00    +0.320 C 
ATOM     21  O   UNL     1       9.426  -3.915  -0.469  0.00  0.00    -0.266 OA
BRANCH  20  22
ATOM     22  C   UNL     1      10.779  -2.663  -1.942  0.00  0.00    +0.470 C 
ATOM     23  F   UNL     1      11.744  -2.854  -0.948  0.00  0.00    -0.162 F 
ATOM     24  F   UNL     1      11.230  -3.223  -3.143  0.00  0.00    -0.162 F 
ATOM     25  F   UNL     1      10.557  -1.293  -2.121  0.00  0.00    -0.162 F 
ENDBRANCH  20  22
ENDBRANCH  11  15
BRANCH   1  27
ATOM     26  N   UNL     1       2.912  -6.953   2.019  0.00  0.00    -0.312 N 
ATOM     27  C   UNL     1       3.382  -6.763   0.771  0.00  0.00    +0.218 C 
ATOM     28  O   UNL     1       2.634  -6.853  -0.179  0.00  0.00    -0.275 OA
ATOM     29  H   UNL     1       3.511  -6.881   2.779  0.00  0.00    +0.149 HD
BRANCH  26  30
ATOM     30  C   UNL     1       1.497  -7.268   2.229  0.00  0.00    +0.148 C 
BRANCH  30  31
ATOM     31  C   UNL     1       1.227  -7.434   3.726  0.00  0.00    +0.187 C 
ATOM     32  C   UNL     1      -0.219  -7.884   3.937  0.00  0.00    +0.053 C 
BRANCH  31  33
ATOM     33  O   UNL     1       1.439  -6.186   4.389  0.00  0.00    -0.488 OA
BRANCH  33  38
ATOM     34  C   UNL     1       2.771  -6.388   9.858  0.00  0.00    +0.044 C 
ATOM     35  C   UNL     1       2.414  -6.334   8.395  0.00  0.00    -0.050 A 
ATOM     36  C   UNL     1       2.090  -7.497   7.720  0.00  0.00    +0.007 A 
ATOM     37  C   UNL     1       1.763  -7.449   6.378  0.00  0.00    +0.046 A 
ATOM     38  C   UNL     1       1.760  -6.234   5.709  0.00  0.00    +0.121 A 
ATOM     39  C   UNL     1       2.085  -5.069   6.388  0.00  0.00    +0.046 A 
ATOM     40  C   UNL     1       2.406  -5.121   7.731  0.00  0.00    +0.007 A 
ENDBRANCH  33  38
ENDBRANCH  31  33
ENDBRANCH  30  31
ENDBRANCH  26  30
ENDBRANCH   1  27
TORSDOF 7
