REMARK  Name = ZINC36726895
REMARK  7 active torsions:
REMARK  status: ('A' for Active; 'I' for Inactive)
REMARK    1  A    between atoms: C_1  and  C_2
REMARK    2  A    between atoms: C_2  and  O_3
REMARK    3  A    between atoms: O_3  and  C_4
REMARK    4  A    between atoms: C_4  and  C_6
REMARK    5  A    between atoms: C_6  and  S_7
REMARK    6  A    between atoms: S_7  and  C_8
REMARK    7  A    between atoms: C_14  and  C_16
REMARK                            x       y       z     vdW  Elec       q    Type
REMARK                         _______ _______ _______ _____ _____    ______ ____
ROOT
ATOM      1  C   UNL     1       2.281  -4.662  -3.947  0.00  0.00    +0.160 A 
ATOM      2  N   UNL     1       2.823  -3.927  -4.908  0.00  0.00    -0.133 NA
ATOM      3  N   UNL     1       3.391  -4.449  -5.906  0.00  0.00    -0.125 NA
ATOM      4  C   UNL     1       3.481  -5.761  -6.055  0.00  0.00    +0.189 A 
ATOM      5  S   UNL     1       2.648  -6.302  -4.566  0.00  0.00    -0.024 S 
ATOM      6  N   UNL     1       4.062  -6.507  -7.076  0.00  0.00    -0.258 N 
ATOM      7  C   UNL     1       4.650  -5.883  -8.116  0.00  0.00    +0.270 C 
ATOM      8  O   UNL     1       4.672  -4.669  -8.162  0.00  0.00    -0.268 OA
ATOM      9  H   UNL     1       4.045  -7.476  -7.038  0.00  0.00    +0.157 HD
ENDROOT
BRANCH   7  10
ATOM     10  C   UNL     1       5.269  -6.676  -9.201  0.00  0.00    +0.147 A 
ATOM     11  C   UNL     1       5.880  -6.025 -10.271  0.00  0.00    +0.091 A 
ATOM     12  C   UNL     1       6.456  -6.783 -11.282  0.00  0.00    +0.083 A 
ATOM     13  C   UNL     1       6.400  -8.166 -11.186  0.00  0.00    +0.097 A 
ATOM     14  C   UNL     1       5.774  -8.746 -10.090  0.00  0.00    +0.150 A 
ATOM     15  N   UNL     1       5.241  -8.003  -9.144  0.00  0.00    -0.228 NA
ATOM     16 CL   UNL     1       5.700 -10.476  -9.964  0.00  0.00    -0.060 Cl
ATOM     17 CL   UNL     1       7.104  -9.161 -12.422  0.00  0.00    -0.079 Cl
ATOM     18 CL   UNL     1       7.229  -6.018 -12.636  0.00  0.00    -0.080 Cl
ATOM     19 CL   UNL     1       5.920  -4.291 -10.340  0.00  0.00    -0.080 Cl
ENDBRANCH   7  10
BRANCH   1  20
ATOM     20  S   UNL     1       1.446  -4.166  -2.477  0.00  0.00    -0.086 S 
BRANCH  20  21
ATOM     21  C   UNL     1       1.468  -2.353  -2.550  0.00  0.00    +0.196 C 
BRANCH  21  22
ATOM     22  C   UNL     1       0.775  -1.794  -1.334  0.00  0.00    +0.317 C 
ATOM     23  O   UNL     1       0.314  -2.540  -0.504  0.00  0.00    -0.250 OA
BRANCH  22  24
ATOM     24  O   UNL     1       0.671  -0.465  -1.174  0.00  0.00    -0.464 OA
BRANCH  24  26
ATOM     25  C   UNL     1      -0.019   1.526   0.010  0.00  0.00    +0.048 C 
ATOM     26  C   UNL     1       0.002  -0.004   0.002  0.00  0.00    +0.229 C 
ENDBRANCH  24  26
ENDBRANCH  22  24
ENDBRANCH  21  22
ENDBRANCH  20  21
ENDBRANCH   1  20
TORSDOF 6
