REMARK  Name = ZINC11784971
REMARK  10 active torsions:
REMARK  status: ('A' for Active; 'I' for Inactive)
REMARK    1  A    between atoms: C_1  and  C_2
REMARK    2  A    between atoms: C_2  and  C_3
REMARK    3  A    between atoms: C_3  and  C_20
REMARK    4  A    between atoms: N_6  and  C_10
REMARK    5  A    between atoms: C_10  and  C_11
REMARK    6  A    between atoms: C_26  and  C_28
REMARK    7  A    between atoms: C_30  and  C_34
REMARK    8  A    between atoms: C_34  and  C_35
REMARK    9  A    between atoms: C_35  and  C_36
REMARK   10  A    between atoms: C_35  and  C_37
REMARK                            x       y       z     vdW  Elec       q    Type
REMARK                         _______ _______ _______ _____ _____    ______ ____
ROOT
ATOM      1  C   UNL     1       3.008  -0.259  -1.421  0.00  0.00    +0.115 C 
ATOM      2  C   UNL     1       2.981  -0.755   0.012  0.00  0.00    +0.247 C 
ATOM      3  O   UNL     1       2.532  -1.807   0.414  0.00  0.00    -0.273 OA
ATOM      4  N   UNL     1       3.558   0.217   0.745  0.00  0.00    -0.220 N 
ATOM      5  C   UNL     1       3.948   1.245  -0.018  0.00  0.00    +0.310 C 
ATOM      6  O   UNL     1       4.497   2.239   0.416  0.00  0.00    -0.252 OA
ATOM      7  N   UNL     1       3.665   1.055  -1.319  0.00  0.00    -0.285 N 
ATOM      8  H   UNL     1       3.855   1.665  -2.049  0.00  0.00    +0.151 HD
ENDROOT
BRANCH   1   9
ATOM      9  C   UNL     1       3.829  -1.206  -2.298  0.00  0.00    +0.024 C 
ATOM     10  C   UNL     1       3.072  -2.524  -2.473  0.00  0.00    +0.025 C 
ATOM     11  C   UNL     1       3.881  -3.456  -3.381  0.00  0.00    +0.108 C 
ATOM     12  N   UNL     1       5.232  -3.606  -2.821  0.00  0.00    -0.296 N 
ATOM     13  C   UNL     1       6.013  -2.396  -2.529  0.00  0.00    +0.108 C 
ATOM     14  C   UNL     1       5.180  -1.476  -1.631  0.00  0.00    +0.025 C 
ATOM     15  C   UNL     1       5.744  -4.829  -2.580  0.00  0.00    +0.264 C 
ATOM     16  O   UNL     1       6.864  -4.939  -2.119  0.00  0.00    -0.268 OA
BRANCH  15  17
ATOM     17  C   UNL     1       4.948  -6.031  -2.876  0.00  0.00    +0.121 A 
ATOM     18  C   UNL     1       5.029  -7.258  -2.240  0.00  0.00    +0.057 A 
ATOM     19  C   UNL     1       4.079  -8.065  -2.870  0.00  0.00    +0.064 A 
ATOM     20  N   UNL     1       3.503  -7.352  -3.804  0.00  0.00    -0.178 NA
ATOM     21  N   UNL     1       3.985  -6.161  -3.836  0.00  0.00    -0.272 N 
ATOM     22  H   UNL     1       3.699  -5.440  -4.466  0.00  0.00    +0.189 HD
BRANCH  19  23
ATOM     23  C   UNL     1       3.776  -9.503  -2.538  0.00  0.00    +0.060 C 
BRANCH  23  24
ATOM     24  C   UNL     1       2.281  -9.655  -2.249  0.00  0.00    -0.011 C 
ATOM     25  C   UNL     1       1.483  -9.356  -3.519  0.00  0.00    +0.007 C 
ATOM     26  C   UNL     1       1.994 -11.087  -1.791  0.00  0.00    +0.007 C 
ENDBRANCH  23  24
ENDBRANCH  19  23
ENDBRANCH  15  17
ENDBRANCH   1   9
BRANCH   1  28
ATOM     27  C   UNL     1       0.812   0.894  -1.120  0.00  0.00    +0.006 C 
ATOM     28  C   UNL     1       1.589  -0.111  -1.973  0.00  0.00    +0.032 C 
ENDBRANCH   1  28
BRANCH   4  29
ATOM     29  C   UNL     1       3.741   0.155   2.197  0.00  0.00    +0.153 C 
BRANCH  29  30
ATOM     30  C   UNL     1       2.538   0.752   2.881  0.00  0.00    -0.026 A 
ATOM     31  C   UNL     1       2.511   2.102   3.175  0.00  0.00    +0.009 A 
ATOM     32  C   UNL     1       1.410   2.654   3.802  0.00  0.00    +0.050 A 
ATOM     33  C   UNL     1       0.329   1.855   4.138  0.00  0.00    +0.166 A 
ATOM     34  C   UNL     1       0.354   0.495   3.837  0.00  0.00    +0.167 A 
ATOM     35  C   UNL     1       1.464  -0.053   3.213  0.00  0.00    +0.054 A 
ATOM     36  O   UNL     1      -0.812  -0.069   4.267  0.00  0.00    -0.453 OA
ATOM     37  C   UNL     1      -1.381   0.878   5.191  0.00  0.00    +0.466 C 
ATOM     38  O   UNL     1      -0.856   2.144   4.749  0.00  0.00    -0.453 OA
ENDBRANCH  29  30
ENDBRANCH   4  29
TORSDOF 7
