REMARK  Name = ZINC59794290
REMARK  8 active torsions:
REMARK  status: ('A' for Active; 'I' for Inactive)
REMARK    1  A    between atoms: C_3  and  C_8
REMARK    2  A    between atoms: C_11  and  S_14
REMARK    3  A    between atoms: N_12  and  N_13
REMARK    4  A    between atoms: S_14  and  C_15
REMARK    5  A    between atoms: C_15  and  C_16
REMARK    6  A    between atoms: C_16  and  C_17
REMARK    7  A    between atoms: N_19  and  C_20
REMARK    8  A    between atoms: C_21  and  C_29
REMARK                            x       y       z     vdW  Elec       q    Type
REMARK                         _______ _______ _______ _____ _____    ______ ____
ROOT
ATOM      1  C   UNL     1       8.034   4.383   0.034  0.00  0.00    +0.086 C 
ENDROOT
BRANCH   1   2
ATOM      2  S   UNL     1       7.513   2.674   0.344  0.00  0.00    -0.084 S 
BRANCH   2   6
ATOM      3  C   UNL     1       3.657   2.162  -0.022  0.00  0.00    +0.182 A 
ATOM      4  N   UNL     1       3.804   3.440  -0.284  0.00  0.00    -0.127 NA
ATOM      5  N   UNL     1       5.045   3.764  -0.202  0.00  0.00    -0.121 NA
ATOM      6  C   UNL     1       5.766   2.713   0.119  0.00  0.00    +0.209 A 
ATOM      7  N   UNL     1       4.908   1.659   0.250  0.00  0.00    -0.224 N 
BRANCH   3  10
ATOM      8  C   UNL     1      -0.017   1.379   0.010  0.00  0.00    +0.002 A 
ATOM      9  C   UNL     1       1.167   2.088   0.002  0.00  0.00    +0.012 A 
ATOM     10  C   UNL     1       2.385   1.408  -0.013  0.00  0.00    +0.022 A 
ATOM     11  C   UNL     1       2.398   0.012  -0.021  0.00  0.00    +0.031 A 
ATOM     12  C   UNL     1       1.207  -0.686  -0.013  0.00  0.00    +0.042 A 
ATOM     13  C   UNL     1       0.002  -0.004   0.002  0.00  0.00    +0.020 A 
ATOM     14 CL   UNL     1       1.221  -2.422  -0.023  0.00  0.00    -0.084 Cl
ENDBRANCH   3  10
BRANCH   7  15
ATOM     15  N   UNL     1       5.226   0.372   0.579  0.00  0.00    -0.295 N 
ATOM     16  H   UNL     1       5.426  -0.174  -0.246  0.00  0.00    +0.163 HD
ATOM     17  H   UNL     1       6.000   0.345   1.227  0.00  0.00    +0.163 HD
ENDBRANCH   7  15
ENDBRANCH   2   6
ENDBRANCH   1   2
BRANCH   1  18
ATOM     18  C   UNL     1       9.552   4.491   0.198  0.00  0.00    +0.107 C 
BRANCH  18  19
ATOM     19  C   UNL     1       9.985   5.912  -0.059  0.00  0.00    +0.218 C 
ATOM     20  O   UNL     1       9.161   6.754  -0.347  0.00  0.00    -0.275 OA
ATOM     21  N   UNL     1      11.288   6.245   0.029  0.00  0.00    -0.279 N 
ATOM     22  H   UNL     1      11.946   5.571   0.259  0.00  0.00    +0.155 HD
BRANCH  21  23
ATOM     23  C   UNL     1      11.687   7.553  -0.208  0.00  0.00    +0.090 A 
ATOM     24  C   UNL     1      12.970   8.072  -0.169  0.00  0.00    +0.084 A 
ATOM     25  C   UNL     1      13.124   9.487  -0.459  0.00  0.00    -0.018 A 
ATOM     26  C   UNL     1      11.965  10.123  -0.736  0.00  0.00    -0.004 A 
ATOM     27  S   UNL     1      10.725   8.868  -0.617  0.00  0.00    -0.077 S 
ATOM     28  C   UNL     1      11.793  11.573  -1.071  0.00  0.00    +0.043 C 
ATOM     29  C   UNL     1      13.082  12.313  -0.686  0.00  0.00    +0.005 C 
ATOM     30  C   UNL     1      14.282  11.538  -1.236  0.00  0.00    +0.005 C 
ATOM     31  C   UNL     1      14.454  10.227  -0.464  0.00  0.00    +0.037 C 
BRANCH  24  32
ATOM     32  C   UNL     1      14.098   7.249   0.146  0.00  0.00    +0.102 C 
ATOM     33  N   UNL     1      14.993   6.595   0.395  0.00  0.00    -0.191 NA
ENDBRANCH  24  32
ENDBRANCH  21  23
ENDBRANCH  18  19
ENDBRANCH   1  18
TORSDOF 8
