REMARK  Name = ZINC23705542
REMARK  11 active torsions:
REMARK  status: ('A' for Active; 'I' for Inactive)
REMARK    1  A    between atoms: C_1  and  C_2
REMARK    2  A    between atoms: C_2  and  C_28
REMARK    3  A    between atoms: N_5  and  N_9
REMARK    4  A    between atoms: C_10  and  C_12
REMARK    5  A    between atoms: C_12  and  N_13
REMARK    6  A    between atoms: N_13  and  C_14
REMARK    7  A    between atoms: N_13  and  C_15
REMARK    8  A    between atoms: C_15  and  C_16
REMARK    9  A    between atoms: C_15  and  C_22
REMARK   10  A    between atoms: C_28  and  C_29
REMARK   11  A    between atoms: C_29  and  C_30
REMARK                            x       y       z     vdW  Elec       q    Type
REMARK                         _______ _______ _______ _____ _____    ______ ____
ROOT
ATOM      1  N   UNL     1      -3.322  -0.636  -1.478  0.00  0.00    -0.225 N 
ATOM      2  C   UNL     1      -2.064  -0.205  -1.259  0.00  0.00    +0.213 C 
ATOM      3  O   UNL     1      -1.507   0.485  -2.086  0.00  0.00    -0.276 OA
ATOM      4  H   UNL     1      -3.827  -1.263  -0.728  0.00  0.00    +0.173 HD
ENDROOT
BRANCH   1   9
ATOM      5  C   UNL     1      -6.313  -0.945  -5.009  0.00  0.00    +0.041 C 
ATOM      6  C   UNL     1      -4.940  -0.327  -4.736  0.00  0.00    +0.112 C 
ATOM      7  C   UNL     1      -4.191  -1.130  -3.692  0.00  0.00    +0.263 C 
ATOM      8  O   UNL     1      -3.847  -2.290  -3.768  0.00  0.00    -0.271 OA
ATOM      9  N   UNL     1      -3.986  -0.287  -2.661  0.00  0.00    -0.137 N 
ATOM     10  C   UNL     1      -4.501   0.924  -2.904  0.00  0.00    +0.326 C 
ATOM     11  O   UNL     1      -4.445   1.852  -2.121  0.00  0.00    -0.251 OA
ATOM     12  N   UNL     1      -5.084   1.001  -4.114  0.00  0.00    -0.284 N 
ATOM     13  H   UNL     1      -5.596   1.810  -4.656  0.00  0.00    +0.151 HD
BRANCH   6  14
ATOM     14  C   UNL     1      -4.127  -0.234  -6.029  0.00  0.00    +0.040 C 
BRANCH  14  15
ATOM     15  C   UNL     1      -4.847   0.684  -7.019  0.00  0.00    +0.038 C 
BRANCH  15  16
ATOM     16  C   UNL     1      -4.046   0.775  -8.293  0.00  0.00    -0.047 A 
ATOM     17  C   UNL     1      -3.090   1.762  -8.438  0.00  0.00    +0.003 A 
ATOM     18  C   UNL     1      -2.352   1.843  -9.604  0.00  0.00    +0.000 A 
ATOM     19  C   UNL     1      -2.578   0.943 -10.629  0.00  0.00    +0.000 A 
ATOM     20  C   UNL     1      -3.538  -0.041 -10.486  0.00  0.00    +0.000 A 
ATOM     21  C   UNL     1      -4.273  -0.125  -9.318  0.00  0.00    +0.003 A 
ENDBRANCH  15  16
ENDBRANCH  14  15
ENDBRANCH   6  14
ENDBRANCH   1   9
BRANCH   2  22
ATOM     22  C   UNL     1      -1.349  -0.581   0.013  0.00  0.00    +0.021 C 
BRANCH  22  23
ATOM     23  N   UNL     1      -0.003   0.008   0.011  0.00  0.00    +0.391 N 
ATOM     24  C   UNL     1      -0.070   1.474   0.068  0.00  0.00    -0.094 C 
ATOM     25  H   UNL     1       0.487  -0.272  -0.933  0.00  0.00    -0.080 HD
BRANCH  23  26
ATOM     26  C   UNL     1       0.806  -0.526   1.115  0.00  0.00    -0.007 C 
BRANCH  26  27
ATOM     27  C   UNL     1       0.911  -2.023   0.983  0.00  0.00    -0.057 A 
ATOM     28  C   UNL     1       1.175  -2.592  -0.249  0.00  0.00    +0.002 A 
ATOM     29  C   UNL     1       1.276  -3.965  -0.369  0.00  0.00    +0.000 A 
ATOM     30  C   UNL     1       1.103  -4.771   0.741  0.00  0.00    +0.000 A 
ATOM     31  C   UNL     1       0.833  -4.202   1.972  0.00  0.00    +0.000 A 
ATOM     32  C   UNL     1       0.738  -2.829   2.093  0.00  0.00    +0.002 A 
ENDBRANCH  26  27
BRANCH  26  33
ATOM     33  C   UNL     1       2.185   0.081   1.065  0.00  0.00    -0.057 A 
ATOM     34  C   UNL     1       2.866   0.151  -0.136  0.00  0.00    +0.002 A 
ATOM     35  C   UNL     1       4.129   0.712  -0.182  0.00  0.00    +0.000 A 
ATOM     36  C   UNL     1       4.715   1.192   0.974  0.00  0.00    +0.000 A 
ATOM     37  C   UNL     1       4.036   1.117   2.176  0.00  0.00    +0.000 A 
ATOM     38  C   UNL     1       2.771   0.561   2.221  0.00  0.00    +0.002 A 
ENDBRANCH  26  33
ENDBRANCH  23  26
ENDBRANCH  22  23
ENDBRANCH   2  22
TORSDOF 9
