REMARK  Name = ZINC11440756
REMARK  12 active torsions:
REMARK  status: ('A' for Active; 'I' for Inactive)
REMARK    1  A    between atoms: C_1  and  C_2
REMARK    2  A    between atoms: C_2  and  C_3
REMARK    3  A    between atoms: C_2  and  C_4
REMARK    4  A    between atoms: C_4  and  N_5
REMARK    5  A    between atoms: N_5  and  C_6
REMARK    6  A    between atoms: C_14  and  C_16
REMARK    7  A    between atoms: C_16  and  O_17
REMARK    8  A    between atoms: O_17  and  C_18
REMARK    9  A    between atoms: C_18  and  C_20
REMARK   10  A    between atoms: C_20  and  C_21
REMARK   11  A    between atoms: C_21  and  N_22
REMARK   12  A    between atoms: N_25  and  C_26
REMARK                            x       y       z     vdW  Elec       q    Type
REMARK                         _______ _______ _______ _____ _____    ______ ____
ROOT
ATOM      1  C   UNL     1       3.385   4.298   3.344  0.00  0.00    +0.309 C 
ATOM      2  O   UNL     1       3.797   3.183   3.130  0.00  0.00    -0.251 OA
ENDROOT
BRANCH   1   3
ATOM      3  O   UNL     1       2.159   4.652   2.926  0.00  0.00    -0.455 OA
BRANCH   3   4
ATOM      4  C   UNL     1       1.386   3.644   2.224  0.00  0.00    +0.327 C 
BRANCH   4   6
ATOM      5  N   UNL     1      -0.881   3.431   1.256  0.00  0.00    -0.294 N 
ATOM      6  C   UNL     1       0.048   4.218   1.835  0.00  0.00    +0.254 C 
ATOM      7  O   UNL     1      -0.194   5.388   2.042  0.00  0.00    -0.272 OA
BRANCH   5   8
ATOM      8  C   UNL     1      -2.136   4.013   0.773  0.00  0.00    +0.099 C 
ATOM      9  C   UNL     1      -1.843   5.008  -0.362  0.00  0.00    +0.046 C 
ATOM     10  C   UNL     1      -3.104   5.856  -0.658  0.00  0.00    +0.168 C 
ATOM     11  S   UNL     1      -3.969   5.874   0.965  0.00  0.00    -0.029 S 
ATOM     12  O   UNL     1      -5.226   5.226   0.826  0.00  0.00    -0.174 OA
ATOM     13  O   UNL     1      -3.915   7.188   1.503  0.00  0.00    -0.174 OA
ATOM     14  C   UNL     1      -2.836   4.785   1.927  0.00  0.00    +0.188 C 
ENDBRANCH   5   8
BRANCH   5  15
ATOM     15  C   UNL     1      -0.636   1.994   1.111  0.00  0.00    +0.111 C 
BRANCH  15  17
ATOM     16  C   UNL     1      -0.631  -0.199   2.308  0.00  0.00    +0.009 C 
ATOM     17  C   UNL     1      -1.019   1.278   2.408  0.00  0.00    +0.000 C 
ATOM     18  C   UNL     1      -2.529   1.394   2.628  0.00  0.00    +0.009 C 
ENDBRANCH  15  17
ENDBRANCH   5  15
ENDBRANCH   4   6
ENDBRANCH   3   4
ENDBRANCH   1   3
BRANCH   1  19
ATOM     19  C   UNL     1       4.246   5.292   4.081  0.00  0.00    +0.139 C 
BRANCH  19  20
ATOM     20  C   UNL     1       5.582   4.640   4.441  0.00  0.00    +0.117 C 
BRANCH  20  21
ATOM     21  N   UNL     1       6.419   5.606   5.157  0.00  0.00    -0.299 N 
ATOM     22  C   UNL     1       7.650   5.250   5.577  0.00  0.00    +0.300 C 
ATOM     23  O   UNL     1       8.065   4.128   5.361  0.00  0.00    -0.253 OA
ATOM     24  N   UNL     1       8.420   6.139   6.236  0.00  0.00    -0.294 N 
ATOM     25  H   UNL     1       6.088   6.501   5.330  0.00  0.00    +0.150 HD
ATOM     26  H   UNL     1       8.088   7.034   6.408  0.00  0.00    +0.151 HD
BRANCH  24  27
ATOM     27  C   UNL     1       9.757   5.753   6.691  0.00  0.00    +0.037 C 
ATOM     28  C   UNL     1       9.646   4.572   7.658  0.00  0.00    +0.029 C 
ATOM     29  C   UNL     1      11.043   4.169   8.134  0.00  0.00    -0.008 C 
ATOM     30  C   UNL     1      11.699   5.352   8.848  0.00  0.00    +0.007 C 
ATOM     31  C   UNL     1      11.811   6.533   7.881  0.00  0.00    -0.008 C 
ATOM     32  C   UNL     1      10.414   6.936   7.405  0.00  0.00    +0.029 C 
ATOM     33  C   UNL     1      12.663   6.127   6.677  0.00  0.00    +0.007 C 
ATOM     34  C   UNL     1      12.006   4.944   5.963  0.00  0.00    -0.008 C 
ATOM     35  C   UNL     1      11.894   3.763   6.930  0.00  0.00    +0.007 C 
ATOM     36  C   UNL     1      10.609   5.347   5.487  0.00  0.00    +0.029 C 
ENDBRANCH  24  27
ENDBRANCH  20  21
ENDBRANCH  19  20
ENDBRANCH   1  19
TORSDOF 10
