REMARK  Name = ZINC00631790
REMARK  9 active torsions:
REMARK  status: ('A' for Active; 'I' for Inactive)
REMARK    1  A    between atoms: C_1  and  C_2
REMARK    2  A    between atoms: C_3  and  N_15
REMARK    3  A    between atoms: N_6  and  C_9
REMARK    4  A    between atoms: N_7  and  C_8
REMARK    5  A    between atoms: N_15  and  C_16
REMARK    6  A    between atoms: C_16  and  C_18
REMARK    7  A    between atoms: C_16  and  N_26
REMARK    8  A    between atoms: C_18  and  C_20
REMARK    9  A    between atoms: C_27  and  C_29
REMARK                            x       y       z     vdW  Elec       q    Type
REMARK                         _______ _______ _______ _____ _____    ______ ____
ROOT
ATOM      1  C   UNL     1      -2.118   0.924  -0.837  0.00  0.00    +0.232 C 
ENDROOT
BRANCH   1   2
ATOM      2  N   UNL     1      -2.606   1.092  -2.208  0.00  0.00    -0.287 N 
ATOM      3  C   UNL     1      -1.856   0.669  -3.246  0.00  0.00    +0.246 C 
ATOM      4  O   UNL     1      -0.776   0.149  -3.044  0.00  0.00    -0.270 OA
ATOM      5  H   UNL     1      -3.583   1.562  -2.391  0.00  0.00    +0.151 HD
BRANCH   3   6
ATOM      6  C   UNL     1      -2.348   0.838  -4.629  0.00  0.00    +0.037 A 
ATOM      7  C   UNL     1      -3.591   1.429  -4.864  0.00  0.00    +0.014 A 
ATOM      8  C   UNL     1      -4.041   1.590  -6.158  0.00  0.00    +0.021 A 
ATOM      9  C   UNL     1      -3.269   1.155  -7.222  0.00  0.00    +0.041 A 
ATOM     10  C   UNL     1      -2.038   0.561  -6.995  0.00  0.00    +0.021 A 
ATOM     11  C   UNL     1      -1.574   0.401  -5.706  0.00  0.00    +0.014 A 
ATOM     12 CL   UNL     1      -3.846   1.353  -8.847  0.00  0.00    -0.084 Cl
ENDBRANCH   3   6
ENDBRANCH   1   2
BRANCH   1  13
ATOM     13  N   UNL     1      -1.665   2.221  -0.317  0.00  0.00    -0.314 N 
ATOM     14  H   UNL     1      -2.399   2.952   0.053  0.00  0.00    +0.148 HD
BRANCH  13  17
ATOM     15  C   UNL     1      -0.160   4.564  -1.591  0.00  0.00    +0.067 C 
ATOM     16  C   UNL     1       0.434   3.344  -0.935  0.00  0.00    +0.059 A 
ATOM     17  C   UNL     1      -0.259   2.328  -0.380  0.00  0.00    +0.117 A 
ATOM     18  C   UNL     1       0.672   1.384   0.123  0.00  0.00    +0.293 A 
ATOM     19  O   UNL     1       0.401   0.340   0.690  0.00  0.00    -0.264 OA
ATOM     20  N   UNL     1       1.910   1.849  -0.138  0.00  0.00    -0.216 N 
ATOM     21  N   UNL     1       1.775   3.076  -0.801  0.00  0.00    -0.282 N 
ATOM     22  C   UNL     1       2.873   3.925  -1.268  0.00  0.00    +0.171 C 
BRANCH  20  23
ATOM     23  C   UNL     1       3.114   1.218   0.192  0.00  0.00    +0.067 A 
ATOM     24  C   UNL     1       4.113   1.081  -0.763  0.00  0.00    +0.028 A 
ATOM     25  C   UNL     1       5.303   0.463  -0.432  0.00  0.00    +0.002 A 
ATOM     26  C   UNL     1       5.495  -0.030   0.845  0.00  0.00    +0.000 A 
ATOM     27  C   UNL     1       4.501   0.101   1.797  0.00  0.00    +0.002 A 
ATOM     28  C   UNL     1       3.311   0.723   1.475  0.00  0.00    +0.028 A 
ENDBRANCH  20  23
ENDBRANCH  13  17
ENDBRANCH   1  13
BRANCH   1  29
ATOM     29  C   UNL     1      -3.231   0.396   0.031  0.00  0.00    +0.201 C 
ATOM     30  O   UNL     1      -4.167  -0.187  -0.472  0.00  0.00    -0.288 OA
BRANCH  29  31
ATOM     31  C   UNL     1      -3.182   0.589   1.489  0.00  0.00    +0.021 A 
ATOM     32  C   UNL     1      -2.043   1.138   2.087  0.00  0.00    +0.011 A 
ATOM     33  C   UNL     1      -2.007   1.319   3.454  0.00  0.00    +0.001 A 
ATOM     34  C   UNL     1      -3.089   0.951   4.234  0.00  0.00    +0.000 A 
ATOM     35  C   UNL     1      -4.218   0.402   3.650  0.00  0.00    +0.001 A 
ATOM     36  C   UNL     1      -4.272   0.219   2.284  0.00  0.00    +0.011 A 
ENDBRANCH  29  31
ENDBRANCH   1  29
TORSDOF 7
