REMARK  Name = ZINC57661318
REMARK  12 active torsions:
REMARK  status: ('A' for Active; 'I' for Inactive)
REMARK    1  A    between atoms: C_1  and  C_2
REMARK    2  A    between atoms: C_2  and  C_3
REMARK    3  A    between atoms: C_6  and  C_9
REMARK    4  A    between atoms: C_9  and  C_11
REMARK    5  A    between atoms: C_9  and  N_14
REMARK    6  A    between atoms: C_11  and  C_12
REMARK    7  A    between atoms: C_11  and  C_13
REMARK    8  A    between atoms: N_14  and  C_15
REMARK    9  A    between atoms: C_15  and  C_16
REMARK   10  A    between atoms: N_18  and  C_19
REMARK   11  A    between atoms: C_22  and  C_28
REMARK   12  A    between atoms: C_29  and  C_31
REMARK                            x       y       z     vdW  Elec       q    Type
REMARK                         _______ _______ _______ _____ _____    ______ ____
ROOT
ATOM      1  C   UNL     1      -8.657  -0.507  -1.381  0.00  0.00    +0.233 C 
ATOM      2  O   UNL     1      -8.132   0.104  -2.288  0.00  0.00    -0.274 OA
ATOM      3  N   UNL     1      -9.995  -0.466  -1.226  0.00  0.00    -0.255 N 
ATOM      4  H   UNL     1     -10.414  -0.954  -0.500  0.00  0.00    +0.158 HD
ENDROOT
BRANCH   3   5
ATOM      5  C   UNL     1     -10.771   0.274  -2.102  0.00  0.00    +0.206 A 
ATOM      6  C   UNL     1     -12.137   0.405  -2.054  0.00  0.00    +0.110 A 
ATOM      7  C   UNL     1     -12.493   1.286  -3.194  0.00  0.00    +0.053 A 
ATOM      8  C   UNL     1     -13.910   1.605  -3.393  0.00  0.00    +0.070 A 
ATOM      9  N   UNL     1     -14.799   1.117  -2.583  0.00  0.00    -0.175 NA
ATOM     10  N   UNL     1     -14.489   0.288  -1.507  0.00  0.00    -0.242 N 
ATOM     11  H   UNL     1     -15.211  -0.037  -0.947  0.00  0.00    +0.192 HD
ATOM     12  C   UNL     1     -13.225  -0.083  -1.212  0.00  0.00    +0.277 A 
ATOM     13  O   UNL     1     -12.997  -0.810  -0.262  0.00  0.00    -0.266 OA
ATOM     14  C   UNL     1     -14.333   2.495  -4.532  0.00  0.00    +0.068 C 
ATOM     15  C   UNL     1     -11.327   1.591  -3.800  0.00  0.00    +0.114 A 
ATOM     16  O   UNL     1     -10.318   0.991  -3.142  0.00  0.00    -0.445 OA
ATOM     17  C   UNL     1     -11.177   2.468  -5.016  0.00  0.00    +0.087 C 
ENDBRANCH   3   5
BRANCH   1  18
ATOM     18  C   UNL     1      -7.812  -1.312  -0.427  0.00  0.00    +0.178 C 
BRANCH  18  19
ATOM     19  N   UNL     1      -6.398  -1.195  -0.807  0.00  0.00    -0.301 NA
ATOM     20  H   UNL     1      -6.101  -0.231  -0.803  0.00  0.00    +0.123 HD
BRANCH  19  21
ATOM     21  C   UNL     1      -5.548  -2.012   0.069  0.00  0.00    +0.087 C 
BRANCH  21  25
ATOM     22  C   UNL     1      -1.575  -0.443   0.068  0.00  0.00    -0.048 A 
ATOM     23  C   UNL     1      -2.136  -0.903   1.245  0.00  0.00    +0.004 A 
ATOM     24  C   UNL     1      -3.422  -1.411   1.245  0.00  0.00    +0.005 A 
ATOM     25  C   UNL     1      -4.147  -1.458   0.069  0.00  0.00    -0.030 A 
ATOM     26  C   UNL     1      -3.586  -0.996  -1.107  0.00  0.00    +0.005 A 
ATOM     27  C   UNL     1      -2.302  -0.485  -1.107  0.00  0.00    +0.004 A 
BRANCH  22  29
ATOM     28  C   UNL     1      -0.219   1.615   0.342  0.00  0.00    +0.009 C 
ATOM     29  C   UNL     1      -0.173   0.111   0.068  0.00  0.00    +0.032 C 
ENDBRANCH  22  29
ENDBRANCH  21  25
BRANCH  21  30
ATOM     30  C   UNL     1      -5.526  -3.454  -0.441  0.00  0.00    +0.004 C 
ATOM     31  C   UNL     1      -4.983  -3.480  -1.871  0.00  0.00    +0.009 C 
ATOM     32  C   UNL     1      -4.627  -4.301   0.462  0.00  0.00    +0.009 C 
ENDBRANCH  21  30
ENDBRANCH  19  21
ENDBRANCH  18  19
ENDBRANCH   1  18
TORSDOF 7
