REMARK  Name = ZINC00590240
REMARK  9 active torsions:
REMARK  status: ('A' for Active; 'I' for Inactive)
REMARK    1  A    between atoms: C_1  and  C_2
REMARK    2  A    between atoms: C_2  and  C_3
REMARK    3  A    between atoms: C_8  and  C_9
REMARK    4  A    between atoms: C_9  and  C_10
REMARK    5  A    between atoms: C_12  and  N_14
REMARK    6  A    between atoms: N_14  and  C_15
REMARK    7  A    between atoms: C_15  and  C_16
REMARK    8  A    between atoms: C_16  and  C_18
REMARK    9  A    between atoms: C_16  and  O_31
REMARK                            x       y       z     vdW  Elec       q    Type
REMARK                         _______ _______ _______ _____ _____    ______ ____
ROOT
ATOM      1  C   UNL     1       6.600  -2.885   3.787  0.00  0.00    -0.046 C 
ENDROOT
BRANCH   1   2
ATOM      2  N   UNL     1       5.482  -2.241   4.489  0.00  0.00    +0.383 N 
ATOM      3  H   UNL     1       5.648  -1.248   4.548  0.00  0.00    -0.085 HD
ATOM      4  H   UNL     1       5.404  -2.625   5.419  0.00  0.00    -0.085 HD
BRANCH   2  12
ATOM      5  C   UNL     1       0.731  -0.503   1.223  0.00  0.00    -0.044 A 
ATOM      6  C   UNL     1       2.076  -0.808   1.149  0.00  0.00    +0.007 A 
ATOM      7  C   UNL     1       2.750  -1.267   2.268  0.00  0.00    -0.045 A 
ATOM      8  C   UNL     1       2.073  -1.420   3.464  0.00  0.00    -0.045 A 
ATOM      9  C   UNL     1       0.724  -1.114   3.536  0.00  0.00    +0.007 A 
ATOM     10  C   UNL     1       0.055  -0.651   2.420  0.00  0.00    -0.044 A 
ATOM     11  C   UNL     1       3.021  -1.931   4.527  0.00  0.00    +0.020 C 
ATOM     12  C   UNL     1       4.235  -2.486   3.752  0.00  0.00    -0.063 C 
ATOM     13  C   UNL     1       4.199  -1.664   2.446  0.00  0.00    +0.020 C 
BRANCH   5  15
ATOM     14  C   UNL     1      -0.019   1.526   0.010  0.00  0.00    +0.009 C 
ATOM     15  C   UNL     1       0.002  -0.004   0.002  0.00  0.00    +0.032 C 
ENDBRANCH   5  15
BRANCH  10  16
ATOM     16  C   UNL     1      -1.411  -0.314   2.505  0.00  0.00    +0.032 C 
ATOM     17  C   UNL     1      -2.239  -1.521   2.057  0.00  0.00    +0.009 C 
ENDBRANCH  10  16
ENDBRANCH   2  12
ENDBRANCH   1   2
BRANCH   1  18
ATOM     18  C   UNL     1       7.899  -2.630   4.555  0.00  0.00    +0.128 C 
BRANCH  18  19
ATOM     19  C   UNL     1       9.062  -3.183   3.773  0.00  0.00    -0.012 A 
ATOM     20  C   UNL     1       9.530  -4.439   4.037  0.00  0.00    +0.010 A 
ATOM     21  C   UNL     1      10.600  -4.960   3.324  0.00  0.00    +0.053 A 
ATOM     22  C   UNL     1      11.214  -4.218   2.333  0.00  0.00    +0.203 A 
ATOM     23  C   UNL     1      10.751  -2.933   2.046  0.00  0.00    +0.097 A 
ATOM     24  C   UNL     1       9.662  -2.414   2.770  0.00  0.00    +0.008 A 
ATOM     25  C   UNL     1       9.182  -1.066   2.459  0.00  0.00    +0.016 A 
ATOM     26  C   UNL     1       9.802  -0.367   1.477  0.00  0.00    +0.071 A 
ATOM     27  C   UNL     1      10.887  -0.936   0.776  0.00  0.00    +0.249 A 
ATOM     28  O   UNL     1      11.431  -0.290  -0.103  0.00  0.00    -0.268 OA
ATOM     29  N   UNL     1      11.344  -2.168   1.062  0.00  0.00    -0.319 N 
ATOM     30  H   UNL     1      12.092  -2.529   0.562  0.00  0.00    +0.169 HD
ATOM     31  O   UNL     1      12.262  -4.737   1.640  0.00  0.00    -0.286 OA
ENDBRANCH  18  19
BRANCH  18  32
ATOM     32  O   UNL     1       7.833  -3.272   5.830  0.00  0.00    -0.389 OA
ATOM     33  H   UNL     1       7.714  -4.231   5.781  0.00  0.00    +0.210 HD
ENDBRANCH  18  32
ENDBRANCH   1  18
TORSDOF 7
