REMARK  Name = ZINC19880670
REMARK  12 active torsions:
REMARK  status: ('A' for Active; 'I' for Inactive)
REMARK    1  A    between atoms: C_1  and  C_2
REMARK    2  A    between atoms: C_3  and  C_27
REMARK    3  A    between atoms: C_4  and  C_16
REMARK    4  A    between atoms: C_10  and  C_14
REMARK    5  A    between atoms: C_10  and  C_15
REMARK    6  A    between atoms: C_18  and  O_25
REMARK    7  A    between atoms: C_19  and  O_24
REMARK    8  A    between atoms: C_20  and  O_22
REMARK    9  A    between atoms: O_22  and  C_23
REMARK   10  A    between atoms: O_25  and  C_26
REMARK   11  A    between atoms: C_27  and  O_29
REMARK   12  A    between atoms: O_29  and  C_30
REMARK                            x       y       z     vdW  Elec       q    Type
REMARK                         _______ _______ _______ _____ _____    ______ ____
ROOT
ATOM      1  C   UNL     1       0.180  -4.191  -0.839  0.00  0.00    +0.061 C 
ATOM      2  C   UNL     1       0.056  -2.752  -0.410  0.00  0.00    +0.016 C 
ATOM      3  C   UNL     1      -1.153  -2.163  -0.390  0.00  0.00    +0.065 C 
ATOM      4  C   UNL     1      -1.316  -0.735   0.040  0.00  0.00    +0.092 C 
ATOM      5  C   UNL     1       0.002  -0.004   0.002  0.00  0.00    +0.024 C 
ATOM      6  C   UNL     1       1.167  -0.685  -0.034  0.00  0.00    +0.016 C 
ATOM      7  N   UNL     1       1.172  -2.054  -0.043  0.00  0.00    -0.321 N 
ATOM      8  C   UNL     1       2.490   0.040  -0.070  0.00  0.00    +0.058 C 
ATOM      9  C   UNL     1       2.365   1.374   0.670  0.00  0.00    -0.023 C 
ATOM     10  C   UNL     1       1.260   2.198   0.002  0.00  0.00    +0.086 C 
ATOM     11  C   UNL     1      -0.017   1.402   0.010  0.00  0.00    +0.162 C 
ATOM     12  O   UNL     1      -1.083   1.984   0.018  0.00  0.00    -0.292 OA
ATOM     13  C   UNL     1       2.002   1.118   2.134  0.00  0.00    +0.011 C 
ATOM     14  C   UNL     1       3.693   2.130   0.595  0.00  0.00    +0.011 C 
ATOM     15  H   UNL     1       2.086  -2.592   0.250  0.00  0.00    +0.152 HD
ENDROOT
BRANCH   4  16
ATOM     16  C   UNL     1      -1.861  -0.701   1.444  0.00  0.00    -0.028 A 
ATOM     17  C   UNL     1      -1.137  -1.264   2.478  0.00  0.00    +0.054 A 
ATOM     18  C   UNL     1      -1.632  -1.229   3.773  0.00  0.00    +0.165 A 
ATOM     19  C   UNL     1      -2.864  -0.639   4.028  0.00  0.00    +0.201 A 
ATOM     20  C   UNL     1      -3.592  -0.079   2.985  0.00  0.00    +0.165 A 
ATOM     21  C   UNL     1      -3.087  -0.113   1.694  0.00  0.00    +0.054 A 
BRANCH  20  22
ATOM     22  O   UNL     1      -4.798   0.500   3.229  0.00  0.00    -0.491 OA
ATOM     23  C   UNL     1      -5.490   1.055   2.109  0.00  0.00    +0.277 C 
ENDBRANCH  20  22
BRANCH  19  24
ATOM     24  O   UNL     1      -3.357  -0.609   5.297  0.00  0.00    -0.501 OA
ATOM     25  H   UNL     1      -4.332  -0.141   5.497  0.00  0.00    +0.292 HD
ENDBRANCH  19  24
BRANCH  18  26
ATOM     26  O   UNL     1      -0.916  -1.778   4.791  0.00  0.00    -0.491 OA
ATOM     27  C   UNL     1       0.342  -2.367   4.455  0.00  0.00    +0.277 C 
ENDBRANCH  18  26
ENDBRANCH   4  16
BRANCH   3  28
ATOM     28  C   UNL     1      -2.292  -2.905  -0.782  0.00  0.00    +0.338 C 
ATOM     29  O   UNL     1      -2.172  -4.064  -1.133  0.00  0.00    -0.245 OA
BRANCH  28  30
ATOM     30  O   UNL     1      -3.511  -2.326  -0.767  0.00  0.00    -0.458 OA
BRANCH  30  31
ATOM     31  C   UNL     1      -4.617  -3.134  -1.175  0.00  0.00    +0.177 C 
ATOM     32  C   UNL     1      -4.882  -2.944  -2.683  0.00  0.00    +0.044 C 
ATOM     33  C   UNL     1      -6.425  -2.989  -2.806  0.00  0.00    +0.004 C 
ATOM     34  C   UNL     1      -6.892  -2.239  -1.534  0.00  0.00    +0.004 C 
ATOM     35  C   UNL     1      -5.895  -2.686  -0.445  0.00  0.00    +0.044 C 
ENDBRANCH  30  31
ENDBRANCH  28  30
ENDBRANCH   3  28
TORSDOF 7
