REMARK  Name = ZINC12314849
REMARK  7 active torsions:
REMARK  status: ('A' for Active; 'I' for Inactive)
REMARK    1  A    between atoms: C_3  and  C_6
REMARK    2  A    between atoms: C_6  and  C_7
REMARK    3  A    between atoms: N_9  and  C_10
REMARK    4  A    between atoms: N_9  and  C_21
REMARK    5  A    between atoms: C_10  and  C_11
REMARK    6  A    between atoms: C_16  and  N_61
REMARK    7  A    between atoms: C_21  and  C_22
REMARK                            x       y       z     vdW  Elec       q    Type
REMARK                         _______ _______ _______ _____ _____    ______ ____
ROOT
ATOM      1  C   UNL     1       3.686  -2.745  -0.135  0.00  0.00    +0.220 C 
ATOM      2  O   UNL     1       4.869  -3.008  -0.159  0.00  0.00    -0.275 OA
ATOM      3  N   UNL     1       3.199  -1.918   0.812  0.00  0.00    -0.298 N 
ENDROOT
BRANCH   1   4
ATOM      4  C   UNL     1       2.760  -3.341  -1.163  0.00  0.00    +0.138 C 
BRANCH   4   7
ATOM      5  C   UNL     1       4.574  -6.151  -2.986  0.00  0.00    +0.008 A 
ATOM      6  C   UNL     1       3.824  -5.544  -1.996  0.00  0.00    +0.011 A 
ATOM      7  C   UNL     1       3.548  -4.221  -2.099  0.00  0.00    -0.001 A 
ATOM      8  S   UNL     1       4.354  -3.793  -3.633  0.00  0.00    -0.101 S 
ATOM      9  C   UNL     1       5.012  -5.405  -4.029  0.00  0.00    +0.045 A 
ENDBRANCH   4   7
ENDBRANCH   1   4
BRANCH   3  10
ATOM     10  C   UNL     1       4.099  -1.339   1.812  0.00  0.00    +0.111 C 
BRANCH  10  11
ATOM     11  C   UNL     1       4.178  -2.267   3.026  0.00  0.00    +0.003 C 
ATOM     12  C   UNL     1       2.811  -2.330   3.712  0.00  0.00    -0.014 C 
ATOM     13  C   UNL     1       2.912  -3.211   4.959  0.00  0.00    -0.078 C 
ATOM     14  C   UNL     1       5.244  -2.624   5.255  0.00  0.00    -0.078 C 
ATOM     15  C   UNL     1       5.213  -1.725   4.017  0.00  0.00    -0.014 C 
ATOM     16  N   UNL     1       3.905  -2.623   5.883  0.00  0.00    +0.382 N 
ATOM     17  H   UNL     1       3.635  -1.654   6.089  0.00  0.00    -0.081 HD
BRANCH  16  18
ATOM     18  C   UNL     1       3.938  -3.391   7.144  0.00  0.00    -0.069 C 
ATOM     19  C   UNL     1       4.322  -4.864   6.889  0.00  0.00    -0.015 C 
ATOM     20  C   UNL     1       3.455  -5.662   7.894  0.00  0.00    -0.002 C 
ATOM     21  C   UNL     1       2.114  -4.887   7.879  0.00  0.00    -0.002 C 
ATOM     22  C   UNL     1       2.534  -3.406   7.774  0.00  0.00    -0.015 C 
ENDBRANCH  16  18
ENDBRANCH  10  11
ENDBRANCH   3  10
BRANCH   3  23
ATOM     23  C   UNL     1       1.769  -1.600   0.841  0.00  0.00    +0.139 C 
BRANCH  23  24
ATOM     24  C   UNL     1       1.506  -0.359  -0.014  0.00  0.00    +0.136 C 
ATOM     25  C   UNL     1       0.002  -0.004   0.002  0.00  0.00    +0.035 C 
ATOM     26  C   UNL     1      -0.019   1.541   0.011  0.00  0.00    +0.031 C 
ATOM     27  C   UNL     1       1.474   1.937  -0.002  0.00  0.00    +0.160 C 
ATOM     28  O   UNL     1       2.163   0.795   0.553  0.00  0.00    -0.375 OA
ENDBRANCH  23  24
ENDBRANCH   3  23
TORSDOF 7
