REMARK  Name = ZINC22920518
REMARK  8 active torsions:
REMARK  status: ('A' for Active; 'I' for Inactive)
REMARK    1  A    between atoms: C_1  and  C_2
REMARK    2  A    between atoms: C_3  and  C_28
REMARK    3  A    between atoms: C_11  and  C_13
REMARK    4  A    between atoms: C_13  and  S_14
REMARK    5  A    between atoms: S_14  and  C_15
REMARK    6  A    between atoms: C_15  and  C_17
REMARK    7  A    between atoms: C_15  and  C_18
REMARK    8  A    between atoms: N_20  and  C_21
REMARK                            x       y       z     vdW  Elec       q    Type
REMARK                         _______ _______ _______ _____ _____    ______ ____
ROOT
ATOM      1  C   UNL     1       0.125  -3.432   4.534  0.00  0.00    +0.144 C 
ENDROOT
BRANCH   1  12
ATOM      2  C   UNL     1       0.048   1.491  -0.017  0.00  0.00    +0.045 C 
ATOM      3  C   UNL     1       0.058  -0.016  -0.021  0.00  0.00    -0.026 A 
ATOM      4  C   UNL     1       0.056  -0.692  -1.181  0.00  0.00    -0.008 A 
ATOM      5  S   UNL     1       0.070  -2.398  -0.664  0.00  0.00    -0.073 S 
ATOM      6  C   UNL     1       0.078  -2.153   1.093  0.00  0.00    +0.116 A 
ATOM      7  C   UNL     1       0.075  -0.753   1.229  0.00  0.00    +0.075 A 
ATOM      8  C   UNL     1       0.085  -0.261   2.575  0.00  0.00    +0.260 A 
ATOM      9  O   UNL     1       0.079   0.938   2.796  0.00  0.00    -0.267 OA
ATOM     10  N   UNL     1       0.101  -1.144   3.591  0.00  0.00    -0.310 N 
ATOM     11  H   UNL     1       0.108  -0.817   4.504  0.00  0.00    +0.170 HD
ATOM     12  C   UNL     1       0.107  -2.482   3.364  0.00  0.00    +0.121 A 
ATOM     13  N   UNL     1       0.089  -2.962   2.149  0.00  0.00    -0.226 NA
ATOM     14  C   UNL     1       0.043  -0.141  -2.583  0.00  0.00    +0.052 C 
ENDBRANCH   1  12
BRANCH   1  15
ATOM     15  S   UNL     1       0.130  -5.141   3.926  0.00  0.00    -0.141 S 
BRANCH  15  16
ATOM     16  C   UNL     1       0.151  -6.144   5.437  0.00  0.00    +0.130 C 
ATOM     17  C   UNL     1      -1.151  -5.927   6.212  0.00  0.00    +0.029 C 
BRANCH  16  18
ATOM     18  C   UNL     1       0.281  -7.600   5.072  0.00  0.00    +0.230 C 
ATOM     19  O   UNL     1      -0.007  -7.973   3.954  0.00  0.00    -0.274 OA
ATOM     20  N   UNL     1       0.716  -8.489   5.987  0.00  0.00    -0.284 N 
ATOM     21  H   UNL     1       1.008  -8.182   6.859  0.00  0.00    +0.155 HD
BRANCH  20  22
ATOM     22  C   UNL     1       0.748  -9.853   5.678  0.00  0.00    +0.047 A 
ATOM     23  C   UNL     1       1.045 -10.268   4.386  0.00  0.00    +0.024 A 
ATOM     24  C   UNL     1       1.076 -11.615   4.085  0.00  0.00    +0.002 A 
ATOM     25  C   UNL     1       0.810 -12.552   5.067  0.00  0.00    +0.001 A 
ATOM     26  C   UNL     1       0.513 -12.143   6.354  0.00  0.00    +0.017 A 
ATOM     27  C   UNL     1       0.487 -10.796   6.664  0.00  0.00    +0.039 A 
ATOM     28 BR   UNL     1       0.088 -10.238   8.426  0.00  0.00    -0.048 Br
ENDBRANCH  20  22
ENDBRANCH  16  18
ENDBRANCH  15  16
ENDBRANCH   1  15
TORSDOF 5
