REMARK  Name = ZINC36207827
REMARK  16 active torsions:
REMARK  status: ('A' for Active; 'I' for Inactive)
REMARK    1  A    between atoms: C_1  and  C_2
REMARK    2  A    between atoms: C_2  and  C_3
REMARK    3  A    between atoms: C_2  and  C_4
REMARK    4  A    between atoms: C_4  and  N_5
REMARK    5  A    between atoms: N_5  and  C_6
REMARK    6  A    between atoms: N_5  and  C_26
REMARK    7  A    between atoms: C_6  and  C_7
REMARK    8  A    between atoms: C_13  and  C_18
REMARK    9  A    between atoms: C_21  and  O_24
REMARK   10  A    between atoms: O_24  and  C_25
REMARK   11  A    between atoms: C_26  and  C_27
REMARK   12  A    between atoms: C_27  and  C_29
REMARK   13  A    between atoms: C_27  and  O_34
REMARK   14  A    between atoms: C_29  and  O_30
REMARK   15  A    between atoms: O_30  and  C_31
REMARK   16  A    between atoms: C_31  and  C_32
REMARK                            x       y       z     vdW  Elec       q    Type
REMARK                         _______ _______ _______ _____ _____    ______ ____
ROOT
ATOM      1  C   UNL     1      -1.602  -1.142   4.252  0.00  0.00    +0.094 A 
ATOM      2  N   UNL     1      -2.569  -2.035   4.582  0.00  0.00    -0.312 N 
ATOM      3  H   UNL     1      -2.929  -2.621   3.898  0.00  0.00    +0.170 HD
ATOM      4  C   UNL     1      -3.039  -2.125   5.840  0.00  0.00    +0.260 A 
ATOM      5  O   UNL     1      -3.907  -2.933   6.121  0.00  0.00    -0.267 OA
ATOM      6  C   UNL     1      -2.502  -1.257   6.844  0.00  0.00    +0.080 A 
ATOM      7  C   UNL     1      -2.841  -1.163   8.259  0.00  0.00    +0.004 A 
ATOM      8  C   UNL     1      -2.191  -0.254   9.025  0.00  0.00    +0.056 A 
ATOM      9  S   UNL     1      -1.079   0.534   7.877  0.00  0.00    -0.076 S 
ATOM     10  C   UNL     1      -1.507  -0.366   6.410  0.00  0.00    +0.116 A 
ATOM     11  N   UNL     1      -1.089  -0.340   5.147  0.00  0.00    -0.229 NA
ENDROOT
BRANCH   7  12
ATOM     12  C   UNL     1      -3.876  -2.046   8.849  0.00  0.00    -0.016 A 
ATOM     13  C   UNL     1      -5.122  -2.168   8.234  0.00  0.00    +0.012 A 
ATOM     14  C   UNL     1      -6.082  -2.991   8.785  0.00  0.00    +0.046 A 
ATOM     15  C   UNL     1      -5.811  -3.695   9.949  0.00  0.00    +0.120 A 
ATOM     16  C   UNL     1      -4.572  -3.575  10.564  0.00  0.00    +0.046 A 
ATOM     17  C   UNL     1      -3.604  -2.759  10.015  0.00  0.00    +0.012 A 
BRANCH  15  18
ATOM     18  O   UNL     1      -6.760  -4.505  10.489  0.00  0.00    -0.495 OA
ATOM     19  C   UNL     1      -6.413  -5.201  11.688  0.00  0.00    +0.277 C 
ENDBRANCH  15  18
ENDBRANCH   7  12
BRANCH   1  20
ATOM     20  C   UNL     1      -1.107  -1.078   2.830  0.00  0.00    -0.003 C 
BRANCH  20  21
ATOM     21  N   UNL     1       0.033  -0.154   2.750  0.00  0.00    +0.386 N 
ATOM     22  H   UNL     1      -0.217   0.726   3.174  0.00  0.00    -0.081 HD
BRANCH  21  23
ATOM     23  C   UNL     1       0.388   0.064   1.341  0.00  0.00    -0.075 C 
BRANCH  23  25
ATOM     24  C   UNL     1      -1.090   2.076   1.237  0.00  0.00    +0.005 C 
ATOM     25  C   UNL     1      -0.792   0.712   0.613  0.00  0.00    -0.034 C 
ATOM     26  C   UNL     1      -0.442   0.892  -0.866  0.00  0.00    +0.005 C 
ENDBRANCH  23  25
ENDBRANCH  21  23
BRANCH  21  27
ATOM     27  C   UNL     1       1.182  -0.732   3.460  0.00  0.00    -0.044 C 
BRANCH  27  28
ATOM     28  C   UNL     1       2.303   0.306   3.545  0.00  0.00    +0.124 C 
BRANCH  28  29
ATOM     29  O   UNL     1       2.853   0.521   2.244  0.00  0.00    -0.391 OA
ATOM     30  H   UNL     1       3.229  -0.272   1.839  0.00  0.00    +0.210 HD
ENDBRANCH  28  29
BRANCH  28  31
ATOM     31  C   UNL     1       3.399  -0.202   4.484  0.00  0.00    +0.189 C 
BRANCH  31  32
ATOM     32  O   UNL     1       4.389   0.814   4.655  0.00  0.00    -0.373 OA
BRANCH  32  33
ATOM     33  C   UNL     1       5.463   0.439   5.519  0.00  0.00    +0.186 C 
BRANCH  33  34
ATOM     34  C   UNL     1       6.443   1.579   5.626  0.00  0.00    -0.007 C 
ATOM     35  C   UNL     1       6.919   1.926   6.797  0.00  0.00    +0.006 C 
ENDBRANCH  33  34
ENDBRANCH  32  33
ENDBRANCH  31  32
ENDBRANCH  28  31
ENDBRANCH  27  28
ENDBRANCH  21  27
ENDBRANCH  20  21
ENDBRANCH   1  20
TORSDOF 13
