REMARK  Name = ZINC04406203
REMARK  6 active torsions:
REMARK  status: ('A' for Active; 'I' for Inactive)
REMARK    1  A    between atoms: C_1  and  C_2
REMARK    2  A    between atoms: C_6  and  N_9
REMARK    3  A    between atoms: C_7  and  C_8
REMARK    4  A    between atoms: C_10  and  C_12
REMARK    5  A    between atoms: C_12  and  S_13
REMARK    6  A    between atoms: S_13  and  C_14
REMARK                            x       y       z     vdW  Elec       q    Type
REMARK                         _______ _______ _______ _____ _____    ______ ____
ROOT
ATOM      1  C   UNL     1      -6.349   2.500   0.058  0.00  0.00    +0.173 C 
ENDROOT
BRANCH   1   3
ATOM      2  N   UNL     1      -8.486   1.254   0.087  0.00  0.00    -0.285 N 
ATOM      3  C   UNL     1      -7.139   1.217   0.071  0.00  0.00    +0.227 C 
ATOM      4  O   UNL     1      -6.562   0.150   0.067  0.00  0.00    -0.275 OA
ATOM      5  H   UNL     1      -8.947   2.104   0.171  0.00  0.00    +0.155 HD
BRANCH   2  11
ATOM      6  C   UNL     1     -12.631  -1.247   0.944  0.00  0.00    +0.044 C 
ATOM      7  C   UNL     1     -11.232  -1.173   0.389  0.00  0.00    -0.046 A 
ATOM      8  C   UNL     1     -10.673  -2.278  -0.226  0.00  0.00    +0.004 A 
ATOM      9  C   UNL     1      -9.389  -2.214  -0.737  0.00  0.00    +0.002 A 
ATOM     10  C   UNL     1      -8.662  -1.044  -0.635  0.00  0.00    +0.023 A 
ATOM     11  C   UNL     1      -9.220   0.068  -0.018  0.00  0.00    +0.037 A 
ATOM     12  C   UNL     1     -10.507  -0.002   0.499  0.00  0.00    -0.026 A 
ATOM     13  C   UNL     1     -11.115   1.200   1.175  0.00  0.00    +0.046 C 
ENDBRANCH   2  11
ENDBRANCH   1   3
BRANCH   1  14
ATOM     14  S   UNL     1      -4.576   2.119   0.038  0.00  0.00    -0.076 S 
BRANCH  14  15
ATOM     15  C   UNL     1      -3.800   3.701   0.025  0.00  0.00    +0.197 A 
ATOM     16  N   UNL     1      -4.418   4.853   0.029  0.00  0.00    -0.121 NA
ATOM     17  N   UNL     1      -3.449   5.866   0.015  0.00  0.00    -0.121 NA
ATOM     18  C   UNL     1      -2.284   5.292   0.003  0.00  0.00    +0.202 A 
ATOM     19  N   UNL     1      -2.433   3.930   0.008  0.00  0.00    -0.264 N 
ATOM     20  C   UNL     1      -1.274   3.139  -0.003  0.00  0.00    +0.065 A 
ATOM     21  C   UNL     1      -1.220   1.736  -0.005  0.00  0.00    +0.027 A 
ATOM     22  C   UNL     1      -0.013   1.078  -0.013  0.00  0.00    +0.002 A 
ATOM     23  C   UNL     1       1.184   1.774  -0.029  0.00  0.00    +0.001 A 
ATOM     24  C   UNL     1       1.160   3.157  -0.032  0.00  0.00    +0.017 A 
ATOM     25  C   UNL     1      -0.049   3.814  -0.019  0.00  0.00    +0.040 A 
ATOM     26  S   UNL     1      -0.522   5.526  -0.018  0.00  0.00    -0.048 S 
ENDBRANCH  14  15
ENDBRANCH   1  14
TORSDOF 4
