REMARK  Name = ZINC28049238
REMARK  9 active torsions:
REMARK  status: ('A' for Active; 'I' for Inactive)
REMARK    1  A    between atoms: C_1  and  N_2
REMARK    2  A    between atoms: C_5  and  N_20
REMARK    3  A    between atoms: C_6  and  S_13
REMARK    4  A    between atoms: N_9  and  C_12
REMARK    5  A    between atoms: S_13  and  C_14
REMARK    6  A    between atoms: N_20  and  S_21
REMARK    7  A    between atoms: S_21  and  C_24
REMARK    8  A    between atoms: C_27  and  O_30
REMARK    9  A    between atoms: O_30  and  C_31
REMARK                            x       y       z     vdW  Elec       q    Type
REMARK                         _______ _______ _______ _____ _____    ______ ____
ROOT
ATOM      1  C   UNL     1      -1.696   1.956   1.267  0.00  0.00    +0.154 C 
ATOM      2  N   UNL     1      -0.444   1.202   1.175  0.00  0.00    -0.295 N 
ATOM      3  C   UNL     1      -0.321  -0.133   0.787  0.00  0.00    +0.071 A 
ATOM      4  C   UNL     1      -1.240  -1.099   0.403  0.00  0.00    +0.053 A 
ATOM      5  C   UNL     1      -0.806  -2.369   0.066  0.00  0.00    +0.063 A 
ATOM      6  C   UNL     1       0.555  -2.679   0.112  0.00  0.00    +0.033 A 
ATOM      7  C   UNL     1       1.474  -1.716   0.495  0.00  0.00    +0.044 A 
ATOM      8  C   UNL     1       1.039  -0.442   0.833  0.00  0.00    +0.071 A 
ATOM      9  N   UNL     1       1.702   0.714   1.247  0.00  0.00    -0.295 N 
ATOM     10  C   UNL     1       0.785   1.680   1.444  0.00  0.00    +0.330 A 
ATOM     11  O   UNL     1       1.031   2.815   1.809  0.00  0.00    -0.246 OA
ATOM     12  C   UNL     1       3.148   0.852   1.436  0.00  0.00    +0.154 C 
ENDROOT
BRANCH   5  13
ATOM     13  N   UNL     1      -1.734  -3.346  -0.322  0.00  0.00    -0.215 N 
ATOM     14  H   UNL     1      -1.575  -4.398  -0.041  0.00  0.00    +0.174 HD
BRANCH  13  15
ATOM     15  S   UNL     1      -3.068  -2.917  -1.204  0.00  0.00    +0.072 S 
ATOM     16  O   UNL     1      -3.733  -4.125  -1.548  0.00  0.00    -0.150 OA
ATOM     17  O   UNL     1      -3.710  -1.872  -0.486  0.00  0.00    -0.150 OA
BRANCH  15  18
ATOM     18  C   UNL     1      -2.492  -2.212  -2.712  0.00  0.00    +0.109 A 
ATOM     19  C   UNL     1      -2.260  -0.851  -2.794  0.00  0.00    +0.032 A 
ATOM     20  C   UNL     1      -1.802  -0.297  -3.973  0.00  0.00    +0.047 A 
ATOM     21  C   UNL     1      -1.586  -1.105  -5.080  0.00  0.00    +0.120 A 
ATOM     22  C   UNL     1      -1.825  -2.469  -4.997  0.00  0.00    +0.047 A 
ATOM     23  C   UNL     1      -2.277  -3.019  -3.814  0.00  0.00    +0.032 A 
BRANCH  21  24
ATOM     24  O   UNL     1      -1.141  -0.561  -6.243  0.00  0.00    -0.495 OA
ATOM     25  C   UNL     1      -0.917   0.851  -6.255  0.00  0.00    +0.277 C 
ENDBRANCH  21  24
ENDBRANCH  15  18
ENDBRANCH  13  15
ENDBRANCH   5  13
BRANCH   6  26
ATOM     26  S   UNL     1       1.104  -4.298  -0.316  0.00  0.00    -0.120 S 
BRANCH  26  27
ATOM     27  C   UNL     1       2.913  -4.170  -0.285  0.00  0.00    +0.051 C 
ATOM     28  C   UNL     1       3.385  -3.323  -1.468  0.00  0.00    +0.014 C 
ATOM     29  C   UNL     1       4.911  -3.215  -1.441  0.00  0.00    +0.001 C 
ATOM     30  C   UNL     1       5.523  -4.614  -1.539  0.00  0.00    +0.000 C 
ATOM     31  C   UNL     1       5.051  -5.462  -0.356  0.00  0.00    +0.001 C 
ATOM     32  C   UNL     1       3.525  -5.569  -0.383  0.00  0.00    +0.014 C 
ENDBRANCH  26  27
ENDBRANCH   6  26
TORSDOF 6
