REMARK  Name = ZINC09492108
REMARK  10 active torsions:
REMARK  status: ('A' for Active; 'I' for Inactive)
REMARK    1  A    between atoms: C_1  and  C_2
REMARK    2  A    between atoms: C_2  and  N_59
REMARK    3  A    between atoms: C_3  and  C_4
REMARK    4  A    between atoms: C_3  and  N_59
REMARK    5  A    between atoms: N_6  and  C_7
REMARK    6  A    between atoms: C_12  and  C_13
REMARK    7  A    between atoms: C_13  and  C_15
REMARK    8  A    between atoms: C_21  and  C_22
REMARK    9  A    between atoms: C_21  and  N_59
REMARK   10  A    between atoms: N_24  and  C_25
REMARK                            x       y       z     vdW  Elec       q    Type
REMARK                         _______ _______ _______ _____ _____    ______ ____
ROOT
ATOM      1  C   UNL     1      -0.013  -0.216  -0.138  0.00  0.00    +0.201 C 
ATOM      2  O   UNL     1       1.011  -0.855  -0.251  0.00  0.00    -0.278 OA
ATOM      3  N   UNL     1       0.026   1.131  -0.172  0.00  0.00    -0.286 N 
ATOM      4  H   UNL     1      -0.799   1.641  -0.157  0.00  0.00    +0.155 HD
ENDROOT
BRANCH   3   5
ATOM      5  C   UNL     1       1.251   1.791  -0.235  0.00  0.00    +0.044 A 
ATOM      6  C   UNL     1       2.310   1.231  -0.938  0.00  0.00    +0.024 A 
ATOM      7  C   UNL     1       3.523   1.886  -0.999  0.00  0.00    +0.002 A 
ATOM      8  C   UNL     1       3.695   3.105  -0.362  0.00  0.00    +0.001 A 
ATOM      9  C   UNL     1       2.657   3.677   0.340  0.00  0.00    +0.013 A 
ATOM     10  C   UNL     1       1.420   3.028   0.407  0.00  0.00    +0.043 A 
BRANCH  10  11
ATOM     11  C   UNL     1       0.303   3.636   1.151  0.00  0.00    +0.195 C 
ATOM     12  O   UNL     1      -0.304   4.577   0.676  0.00  0.00    -0.287 OA
BRANCH  11  13
ATOM     13  C   UNL     1      -0.081   3.103   2.475  0.00  0.00    +0.022 A 
ATOM     14  C   UNL     1       0.677   2.091   3.070  0.00  0.00    +0.012 A 
ATOM     15  C   UNL     1       0.316   1.601   4.308  0.00  0.00    +0.001 A 
ATOM     16  C   UNL     1      -0.800   2.102   4.955  0.00  0.00    +0.000 A 
ATOM     17  C   UNL     1      -1.558   3.100   4.369  0.00  0.00    +0.001 A 
ATOM     18  C   UNL     1      -1.206   3.603   3.134  0.00  0.00    +0.012 A 
ENDBRANCH  11  13
ENDBRANCH  10  11
ENDBRANCH   3   5
BRANCH   1  19
ATOM     19  C   UNL     1      -1.329  -0.927   0.041  0.00  0.00    +0.020 C 
BRANCH  19  20
ATOM     20  N   UNL     1      -1.090  -2.385   0.021  0.00  0.00    +0.391 N 
ATOM     21  H   UNL     1      -0.546  -2.623  -0.817  0.00  0.00    -0.080 HD
BRANCH  20  23
ATOM     22  C   UNL     1      -1.135  -2.517   2.489  0.00  0.00    -0.017 C 
ATOM     23  C   UNL     1      -0.325  -2.788   1.220  0.00  0.00    -0.081 C 
ENDBRANCH  20  23
BRANCH  20  24
ATOM     24  C   UNL     1      -2.378  -3.108  -0.022  0.00  0.00    +0.019 C 
BRANCH  24  25
ATOM     25  C   UNL     1      -2.118  -4.539  -0.417  0.00  0.00    +0.197 C 
ATOM     26  O   UNL     1      -0.979  -4.933  -0.549  0.00  0.00    -0.278 OA
ATOM     27  N   UNL     1      -3.151  -5.379  -0.625  0.00  0.00    -0.312 N 
ATOM     28  H   UNL     1      -4.062  -5.064  -0.519  0.00  0.00    +0.149 HD
BRANCH  27  29
ATOM     29  C   UNL     1      -2.897  -6.770  -1.010  0.00  0.00    +0.095 C 
ATOM     30  C   UNL     1      -2.746  -6.867  -2.537  0.00  0.00    +0.046 C 
ATOM     31  C   UNL     1      -2.800  -8.349  -2.979  0.00  0.00    +0.168 C 
ATOM     32  S   UNL     1      -3.838  -9.123  -1.673  0.00  0.00    -0.029 S 
ATOM     33  O   UNL     1      -3.060 -10.086  -0.975  0.00  0.00    -0.174 OA
ATOM     34  O   UNL     1      -5.083  -9.508  -2.239  0.00  0.00    -0.174 OA
ATOM     35  C   UNL     1      -4.100  -7.660  -0.585  0.00  0.00    +0.188 C 
ENDBRANCH  27  29
ENDBRANCH  24  25
ENDBRANCH  20  24
ENDBRANCH  19  20
ENDBRANCH   1  19
TORSDOF 9
