REMARK  Name = ZINC38620949
REMARK  10 active torsions:
REMARK  status: ('A' for Active; 'I' for Inactive)
REMARK    1  A    between atoms: C_1  and  C_2
REMARK    2  A    between atoms: C_2  and  C_3
REMARK    3  A    between atoms: C_3  and  C_4
REMARK    4  A    between atoms: C_7  and  S_10
REMARK    5  A    between atoms: S_10  and  N_13
REMARK    6  A    between atoms: N_13  and  C_14
REMARK    7  A    between atoms: C_14  and  C_15
REMARK    8  A    between atoms: C_15  and  C_17
REMARK    9  A    between atoms: C_15  and  N_26
REMARK   10  A    between atoms: N_29  and  C_32
REMARK                            x       y       z     vdW  Elec       q    Type
REMARK                         _______ _______ _______ _____ _____    ______ ____
ROOT
ATOM      1  C   UNL     1      -0.102  -7.591  -2.538  0.00  0.00    +0.102 C 
ENDROOT
BRANCH   1   2
ATOM      2  C   UNL     1       0.660  -7.293  -3.803  0.00  0.00    -0.025 A 
ATOM      3  C   UNL     1       0.069  -7.512  -5.033  0.00  0.00    +0.009 A 
ATOM      4  C   UNL     1       0.763  -7.240  -6.196  0.00  0.00    +0.050 A 
ATOM      5  C   UNL     1       2.057  -6.746  -6.132  0.00  0.00    +0.166 A 
ATOM      6  C   UNL     1       2.653  -6.525  -4.893  0.00  0.00    +0.167 A 
ATOM      7  C   UNL     1       1.948  -6.795  -3.731  0.00  0.00    +0.054 A 
ATOM      8  O   UNL     1       3.913  -6.043  -5.096  0.00  0.00    -0.453 OA
ATOM      9  C   UNL     1       4.229  -6.356  -6.465  0.00  0.00    +0.466 C 
ATOM     10  O   UNL     1       2.943  -6.402  -7.111  0.00  0.00    -0.453 OA
ENDBRANCH   1   2
BRANCH   1  11
ATOM     11  N   UNL     1       0.502  -8.748  -1.864  0.00  0.00    -0.291 NA
ATOM     12  C   UNL     1       1.915  -8.498  -1.552  0.00  0.00    +0.104 C 
ATOM     13  C   UNL     1       2.457  -9.646  -0.694  0.00  0.00    +0.120 C 
ATOM     14  N   UNL     1       2.188 -10.915  -1.388  0.00  0.00    -0.325 N 
ATOM     15  C   UNL     1       0.818 -11.177  -1.855  0.00  0.00    +0.120 C 
ATOM     16  C   UNL     1       0.341  -9.968  -2.667  0.00  0.00    +0.104 C 
BRANCH  14  17
ATOM     17  C   UNL     1       3.209 -11.848  -1.599  0.00  0.00    +0.065 A 
ATOM     18  C   UNL     1       3.454 -12.836  -0.655  0.00  0.00    +0.026 A 
ATOM     19  C   UNL     1       4.462 -13.756  -0.867  0.00  0.00    +0.002 A 
ATOM     20  C   UNL     1       5.228 -13.694  -2.016  0.00  0.00    +0.003 A 
ATOM     21  C   UNL     1       4.988 -12.712  -2.959  0.00  0.00    +0.040 A 
ATOM     22  C   UNL     1       3.976 -11.791  -2.757  0.00  0.00    +0.144 A 
ATOM     23  F   UNL     1       3.738 -10.834  -3.681  0.00  0.00    -0.204 F 
ENDBRANCH  14  17
ENDBRANCH   1  11
BRANCH   1  24
ATOM     24  C   UNL     1      -0.047  -6.375  -1.611  0.00  0.00    +0.129 C 
BRANCH  24  25
ATOM     25  N   UNL     1      -0.684  -6.705  -0.334  0.00  0.00    -0.188 NA
ATOM     26  H   UNL     1      -1.243  -7.495  -0.260  0.00  0.00    +0.148 HD
BRANCH  25  27
ATOM     27  S   UNL     1      -0.452  -5.730   0.984  0.00  0.00    +0.058 S 
ATOM     28  O   UNL     1       0.948  -5.508   1.084  0.00  0.00    -0.153 OA
ATOM     29  O   UNL     1      -1.212  -6.293   2.045  0.00  0.00    -0.153 OA
BRANCH  27  33
ATOM     30  C   UNL     1      -2.333  -1.723   0.035  0.00  0.00    -0.047 A 
ATOM     31  C   UNL     1      -3.084  -2.713   0.641  0.00  0.00    +0.005 A 
ATOM     32  C   UNL     1      -2.510  -3.936   0.931  0.00  0.00    +0.029 A 
ATOM     33  C   UNL     1      -1.185  -4.170   0.614  0.00  0.00    +0.105 A 
ATOM     34  C   UNL     1      -0.434  -3.181   0.007  0.00  0.00    +0.029 A 
ATOM     35  C   UNL     1      -1.009  -1.959  -0.286  0.00  0.00    +0.005 A 
BRANCH  30  36
ATOM     36  C   UNL     1      -2.958  -0.389  -0.281  0.00  0.00    +0.035 C 
BRANCH  36  38
ATOM     37  C   UNL     1      -4.208   0.922  -2.002  0.00  0.00    +0.004 C 
ATOM     38  C   UNL     1      -3.573  -0.433  -1.681  0.00  0.00    +0.001 C 
ENDBRANCH  36  38
ENDBRANCH  30  36
ENDBRANCH  27  33
ENDBRANCH  25  27
ENDBRANCH  24  25
ENDBRANCH   1  24
TORSDOF 9
