REMARK  Name = ZINC40441766
REMARK  6 active torsions:
REMARK  status: ('A' for Active; 'I' for Inactive)
REMARK    1  A    between atoms: C_4  and  C_7
REMARK    2  A    between atoms: C_8  and  C_17
REMARK    3  A    between atoms: N_18  and  N_19
REMARK    4  A    between atoms: C_24  and  C_27
REMARK    5  A    between atoms: C_27  and  C_28
REMARK    6  A    between atoms: C_28  and  C_30
REMARK                            x       y       z     vdW  Elec       q    Type
REMARK                         _______ _______ _______ _____ _____    ______ ____
ROOT
ATOM      1  C   UNL     1       3.126  -2.400  -1.835  0.00  0.00    +0.145 C 
ATOM      2  N   UNL     1       3.558  -3.419  -2.532  0.00  0.00    -0.155 NA
ENDROOT
BRANCH   1   4
ATOM      3  C   UNL     1       3.693  -0.681  -0.038  0.00  0.00    +0.056 A 
ATOM      4  C   UNL     1       4.002  -1.762  -0.850  0.00  0.00    +0.028 A 
ATOM      5  C   UNL     1       5.388  -2.143  -0.523  0.00  0.00    +0.009 A 
ATOM      6  C   UNL     1       6.248  -3.135  -0.992  0.00  0.00    +0.010 A 
ATOM      7  C   UNL     1       7.519  -3.237  -0.472  0.00  0.00    +0.001 A 
ATOM      8  C   UNL     1       7.946  -2.358   0.513  0.00  0.00    +0.002 A 
ATOM      9  C   UNL     1       7.107  -1.373   0.986  0.00  0.00    +0.026 A 
ATOM     10  C   UNL     1       5.818  -1.252   0.474  0.00  0.00    +0.048 A 
ATOM     11  N   UNL     1       4.782  -0.381   0.743  0.00  0.00    -0.354 N 
ATOM     12  H   UNL     1       4.817   0.339   1.392  0.00  0.00    +0.166 HD
BRANCH   3  16
ATOM     13  C   UNL     1      -0.017   1.380   0.010  0.00  0.00    +0.000 A 
ATOM     14  C   UNL     1       1.168   2.095   0.002  0.00  0.00    +0.001 A 
ATOM     15  C   UNL     1       2.377   1.432  -0.013  0.00  0.00    +0.010 A 
ATOM     16  C   UNL     1       2.404   0.035  -0.021  0.00  0.00    -0.001 A 
ATOM     17  C   UNL     1       1.204  -0.681  -0.013  0.00  0.00    +0.010 A 
ATOM     18  C   UNL     1       0.002  -0.004   0.002  0.00  0.00    +0.001 A 
ENDBRANCH   3  16
ENDBRANCH   1   4
BRANCH   2  19
ATOM     19  N   UNL     1       2.719  -4.029  -3.474  0.00  0.00    -0.127 NA
ATOM     20  C   UNL     1       3.153  -5.053  -4.176  0.00  0.00    +0.183 C 
ATOM     21  N   UNL     1       4.390  -5.663  -4.117  0.00  0.00    -0.263 N 
ATOM     22  C   UNL     1       4.708  -6.695  -4.880  0.00  0.00    +0.232 C 
ATOM     23  O   UNL     1       5.796  -7.227  -4.823  0.00  0.00    -0.274 OA
ATOM     24  C   UNL     1       3.624  -7.173  -5.833  0.00  0.00    +0.147 C 
ATOM     25  S   UNL     1       2.279  -5.987  -5.423  0.00  0.00    -0.075 S 
ATOM     26  H   UNL     1       5.050  -5.323  -3.493  0.00  0.00    +0.157 HD
BRANCH  24  27
ATOM     27  C   UNL     1       3.206  -8.611  -5.520  0.00  0.00    +0.103 C 
BRANCH  27  28
ATOM     28  C   UNL     1       2.223  -9.086  -6.560  0.00  0.00    +0.165 C 
ATOM     29  O   UNL     1       1.891  -8.347  -7.462  0.00  0.00    -0.292 OA
BRANCH  28  30
ATOM     30  C   UNL     1       1.668 -10.445  -6.480  0.00  0.00    +0.018 A 
ATOM     31  C   UNL     1       2.045 -11.298  -5.437  0.00  0.00    +0.013 A 
ATOM     32  C   UNL     1       1.520 -12.571  -5.368  0.00  0.00    +0.020 A 
ATOM     33  C   UNL     1       0.621 -13.006  -6.329  0.00  0.00    +0.041 A 
ATOM     34  C   UNL     1       0.243 -12.166  -7.365  0.00  0.00    +0.020 A 
ATOM     35  C   UNL     1       0.755 -10.889  -7.443  0.00  0.00    +0.013 A 
ATOM     36 CL   UNL     1      -0.035 -14.611  -6.235  0.00  0.00    -0.084 Cl
ENDBRANCH  28  30
ENDBRANCH  27  28
ENDBRANCH  24  27
ENDBRANCH   2  19
TORSDOF 6
