REMARK  Name = ZINC65417431
REMARK  9 active torsions:
REMARK  status: ('A' for Active; 'I' for Inactive)
REMARK    1  A    between atoms: C_1  and  C_2
REMARK    2  A    between atoms: C_2  and  C_3
REMARK    3  A    between atoms: C_3  and  C_4
REMARK    4  A    between atoms: N_6  and  C_7
REMARK    5  A    between atoms: C_11  and  N_14
REMARK    6  A    between atoms: C_12  and  C_13
REMARK    7  A    between atoms: N_17  and  C_18
REMARK    8  A    between atoms: C_18  and  C_19
REMARK    9  A    between atoms: C_24  and  N_25
REMARK                            x       y       z     vdW  Elec       q    Type
REMARK                         _______ _______ _______ _____ _____    ______ ____
ROOT
ATOM      1  N   UNL     1       2.895  -6.705  -4.154  0.00  0.00    -0.269 N 
ATOM      2  C   UNL     1       2.912  -8.053  -4.171  0.00  0.00    +0.304 C 
ATOM      3  O   UNL     1       2.391  -8.678  -3.268  0.00  0.00    -0.252 OA
ATOM      4  N   UNL     1       3.506  -8.707  -5.188  0.00  0.00    -0.295 N 
ATOM      5  H   UNL     1       3.369  -6.206  -4.837  0.00  0.00    +0.156 HD
ATOM      6  H   UNL     1       3.921  -8.207  -5.909  0.00  0.00    +0.151 HD
ENDROOT
BRANCH   1  11
ATOM      7  C   UNL     1       0.858  -4.160  -2.443  0.00  0.00    +0.038 A 
ATOM      8  C   UNL     1       0.806  -4.689  -1.160  0.00  0.00    +0.024 A 
ATOM      9  C   UNL     1       1.444  -5.880  -0.875  0.00  0.00    +0.004 A 
ATOM     10  C   UNL     1       2.137  -6.550  -1.866  0.00  0.00    +0.024 A 
ATOM     11  C   UNL     1       2.193  -6.027  -3.151  0.00  0.00    +0.039 A 
ATOM     12  C   UNL     1       1.547  -4.833  -3.442  0.00  0.00    -0.008 A 
ATOM     13  C   UNL     1       1.600  -4.266  -4.837  0.00  0.00    +0.047 C 
BRANCH   7  16
ATOM     14  C   UNL     1      -0.837  -2.556  -1.982  0.00  0.00    +0.217 C 
ATOM     15  O   UNL     1      -1.283  -3.289  -1.125  0.00  0.00    -0.275 OA
ATOM     16  N   UNL     1       0.211  -2.953  -2.731  0.00  0.00    -0.285 N 
ATOM     17  H   UNL     1       0.516  -2.403  -3.468  0.00  0.00    +0.155 HD
BRANCH  14  18
ATOM     18  C   UNL     1      -1.455  -1.200  -2.210  0.00  0.00    +0.096 C 
BRANCH  18  20
ATOM     19  C   UNL     1      -3.245   0.377  -1.468  0.00  0.00    +0.004 C 
ATOM     20  C   UNL     1      -2.618  -0.999  -1.236  0.00  0.00    +0.006 C 
ENDBRANCH  18  20
ENDBRANCH  14  18
ENDBRANCH   7  16
ENDBRANCH   1  11
BRANCH   4  21
ATOM     21  C   UNL     1       3.525 -10.171  -5.206  0.00  0.00    +0.143 C 
BRANCH  21  22
ATOM     22  C   UNL     1       4.244 -10.649  -6.441  0.00  0.00    -0.005 A 
ATOM     23  C   UNL     1       3.523 -11.066  -7.544  0.00  0.00    +0.007 A 
ATOM     24  C   UNL     1       4.183 -11.505  -8.677  0.00  0.00    +0.000 A 
ATOM     25  C   UNL     1       5.565 -11.528  -8.711  0.00  0.00    +0.002 A 
ATOM     26  C   UNL     1       6.291 -11.113  -7.612  0.00  0.00    +0.028 A 
ATOM     27  C   UNL     1       5.632 -10.666  -6.474  0.00  0.00    +0.070 A 
BRANCH  27  28
ATOM     28  N   UNL     1       6.366 -10.239  -5.359  0.00  0.00    -0.240 N 
ATOM     29  C   UNL     1       7.714 -10.199  -5.262  0.00  0.00    +0.114 A 
ATOM     30  C   UNL     1       8.024  -9.727  -4.032  0.00  0.00    +0.041 A 
ATOM     31  C   UNL     1       6.827  -9.470  -3.355  0.00  0.00    +0.135 A 
ATOM     32  N   UNL     1       5.833  -9.771  -4.151  0.00  0.00    -0.175 NA
ENDBRANCH  27  28
ENDBRANCH  21  22
ENDBRANCH   4  21
TORSDOF 7
