REMARK  Name = ZINC02368569
REMARK  7 active torsions:
REMARK  status: ('A' for Active; 'I' for Inactive)
REMARK    1  A    between atoms: C_1  and  C_2
REMARK    2  A    between atoms: C_4  and  C_30
REMARK    3  A    between atoms: C_5  and  N_9
REMARK    4  A    between atoms: C_6  and  C_8
REMARK    5  A    between atoms: C_10  and  C_12
REMARK    6  A    between atoms: C_13  and  N_29
REMARK    7  A    between atoms: C_15  and  C_24
REMARK                            x       y       z     vdW  Elec       q    Type
REMARK                         _______ _______ _______ _____ _____    ______ ____
ROOT
ATOM      1  C   UNL     1      -1.366  -3.255  -3.224  0.00  0.00    +0.097 A 
ATOM      2  C   UNL     1      -0.735  -2.969  -2.031  0.00  0.00    +0.054 A 
ATOM      3  C   UNL     1      -1.556  -2.695  -0.866  0.00  0.00    +0.040 A 
ATOM      4  C   UNL     1      -1.143  -2.383   0.466  0.00  0.00    +0.034 A 
ATOM      5  C   UNL     1      -2.116  -2.159   1.440  0.00  0.00    -0.015 A 
ATOM      6  C   UNL     1      -3.456  -2.244   1.112  0.00  0.00    +0.046 A 
ATOM      7  N   UNL     1      -3.824  -2.539  -0.125  0.00  0.00    -0.244 NA
ATOM      8  C   UNL     1      -2.950  -2.760  -1.082  0.00  0.00    +0.112 A 
ATOM      9  S   UNL     1      -3.096  -3.168  -2.805  0.00  0.00    -0.062 S 
ATOM     10  C   UNL     1      -4.301  -1.960   2.337  0.00  0.00    +0.056 C 
ATOM     11  C   UNL     1      -3.342  -2.124   3.535  0.00  0.00    +0.011 C 
ATOM     12  C   UNL     1      -1.968  -1.811   2.906  0.00  0.00    +0.038 C 
ENDROOT
BRANCH   4  13
ATOM     13  C   UNL     1       0.288  -2.294   0.804  0.00  0.00    +0.136 A 
ATOM     14  C   UNL     1       1.166  -3.334   0.847  0.00  0.00    +0.050 A 
ATOM     15  C   UNL     1       2.415  -2.796   1.211  0.00  0.00    +0.042 A 
ATOM     16  C   UNL     1       2.242  -1.468   1.370  0.00  0.00    +0.196 A 
ATOM     17  O   UNL     1       0.957  -1.168   1.124  0.00  0.00    -0.463 OA
ENDBRANCH   4  13
BRANCH   1  19
ATOM     18  N   UNL     1      -1.564  -3.805  -5.545  0.00  0.00    -0.281 N 
ATOM     19  C   UNL     1      -0.780  -3.548  -4.479  0.00  0.00    +0.257 C 
ATOM     20  O   UNL     1       0.432  -3.567  -4.595  0.00  0.00    -0.269 OA
ATOM     21  H   UNL     1      -2.526  -3.710  -5.473  0.00  0.00    +0.155 HD
BRANCH  18  26
ATOM     22  C   UNL     1       0.767  -5.442 -10.450  0.00  0.00    +0.044 C 
ATOM     23  C   UNL     1       0.148  -5.007  -9.147  0.00  0.00    -0.050 A 
ATOM     24  C   UNL     1      -0.813  -5.797  -8.542  0.00  0.00    +0.008 A 
ATOM     25  C   UNL     1      -1.382  -5.402  -7.348  0.00  0.00    -0.029 A 
ATOM     26  C   UNL     1      -0.989  -4.209  -6.754  0.00  0.00    +0.040 A 
ATOM     27  C   UNL     1      -0.028  -3.415  -7.367  0.00  0.00    -0.029 A 
ATOM     28  C   UNL     1       0.542  -3.820  -8.559  0.00  0.00    +0.008 A 
ATOM     29  C   UNL     1       0.397  -2.118  -6.730  0.00  0.00    +0.045 C 
ATOM     30  C   UNL     1      -2.429  -6.263  -6.689  0.00  0.00    +0.045 C 
ENDBRANCH  18  26
ENDBRANCH   1  19
BRANCH   2  31
ATOM     31  N   UNL     1       0.651  -2.940  -1.947  0.00  0.00    -0.356 N 
ATOM     32  H   UNL     1       1.083  -2.458  -1.224  0.00  0.00    +0.142 HD
ATOM     33  H   UNL     1       1.186  -3.401  -2.612  0.00  0.00    +0.142 HD
ENDBRANCH   2  31
TORSDOF 4
