REMARK  Name = ZINC25401447
REMARK  6 active torsions:
REMARK  status: ('A' for Active; 'I' for Inactive)
REMARK    1  A    between atoms: C_4  and  C_7
REMARK    2  A    between atoms: C_9  and  C_13
REMARK    3  A    between atoms: N_15  and  N_16
REMARK    4  A    between atoms: C_17  and  C_19
REMARK    5  A    between atoms: C_24  and  S_25
REMARK    6  A    between atoms: S_25  and  C_26
REMARK                            x       y       z     vdW  Elec       q    Type
REMARK                         _______ _______ _______ _____ _____    ______ ____
ROOT
ATOM      1  C   UNL     1       1.178  -0.662  -0.013  0.00  0.00    +0.278 C 
ATOM      2  O   UNL     1       2.223  -0.040  -0.019  0.00  0.00    -0.267 OA
ATOM      3  N   UNL     1       0.002  -0.004   0.002  0.00  0.00    -0.229 N 
ATOM      4  H   UNL     1      -0.943  -0.567   0.008  0.00  0.00    +0.173 HD
ENDROOT
BRANCH   1   7
ATOM      5  C   UNL     1       1.819  -4.262  -0.038  0.00  0.00    +0.093 A 
ATOM      6  C   UNL     1       2.316  -2.946  -0.036  0.00  0.00    +0.062 A 
ATOM      7  C   UNL     1       1.198  -2.134  -0.021  0.00  0.00    +0.122 A 
ATOM      8  N   UNL     1       0.115  -2.967  -0.009  0.00  0.00    -0.272 N 
ATOM      9  H   UNL     1      -0.902  -2.547   0.011  0.00  0.00    +0.189 HD
ATOM     10  N   UNL     1       0.505  -4.190  -0.025  0.00  0.00    -0.173 NA
BRANCH   5  14
ATOM     11  C   UNL     1       4.141  -7.825  -0.080  0.00  0.00    +0.000 A 
ATOM     12  C   UNL     1       2.760  -7.902  -0.066  0.00  0.00    +0.001 A 
ATOM     13  C   UNL     1       2.002  -6.749  -0.052  0.00  0.00    +0.010 A 
ATOM     14  C   UNL     1       2.630  -5.505  -0.052  0.00  0.00    +0.002 A 
ATOM     15  C   UNL     1       4.021  -5.433  -0.072  0.00  0.00    +0.010 A 
ATOM     16  C   UNL     1       4.769  -6.593  -0.080  0.00  0.00    +0.001 A 
ENDBRANCH   5  14
ENDBRANCH   1   7
BRANCH   3  17
ATOM     17  N   UNL     1      -0.017   1.397   0.010  0.00  0.00    -0.230 N 
ATOM     18  C   UNL     1      -1.193   2.055   0.019  0.00  0.00    +0.261 C 
ATOM     19  O   UNL     1      -2.238   1.432   0.020  0.00  0.00    -0.269 OA
ATOM     20  H   UNL     1       0.928   1.960   0.008  0.00  0.00    +0.173 HD
BRANCH  18  21
ATOM     21  C   UNL     1      -1.213   3.528   0.027  0.00  0.00    +0.052 A 
ATOM     22  C   UNL     1      -0.015   4.248   0.031  0.00  0.00    +0.014 A 
ATOM     23  C   UNL     1      -0.041   5.625   0.033  0.00  0.00    +0.001 A 
ATOM     24  C   UNL     1      -1.250   6.304   0.042  0.00  0.00    +0.001 A 
ATOM     25  C   UNL     1      -2.441   5.609   0.044  0.00  0.00    +0.015 A 
ATOM     26  C   UNL     1      -2.436   4.218   0.036  0.00  0.00    +0.025 A 
BRANCH  26  27
ATOM     27  S   UNL     1      -3.956   3.327   0.040  0.00  0.00    -0.055 S 
BRANCH  27  28
ATOM     28  C   UNL     1      -5.225   4.624   0.052  0.00  0.00    +0.404 C 
ATOM     29  F   UNL     1      -5.074   5.413   1.198  0.00  0.00    -0.197 F 
ATOM     30  F   UNL     1      -5.085   5.424  -1.087  0.00  0.00    -0.197 F 
ENDBRANCH  27  28
ENDBRANCH  26  27
ENDBRANCH  18  21
ENDBRANCH   3  17
TORSDOF 6
