REMARK  Name = ZINC20680225
REMARK  8 active torsions:
REMARK  status: ('A' for Active; 'I' for Inactive)
REMARK    1  A    between atoms: C_1  and  C_2
REMARK    2  A    between atoms: C_2  and  C_3
REMARK    3  A    between atoms: C_3  and  C_5
REMARK    4  A    between atoms: C_3  and  N_6
REMARK    5  A    between atoms: N_6  and  S_7
REMARK    6  A    between atoms: S_7  and  C_10
REMARK    7  A    between atoms: C_23  and  C_26
REMARK    8  A    between atoms: C_29  and  O_32
REMARK                            x       y       z     vdW  Elec       q    Type
REMARK                         _______ _______ _______ _____ _____    ______ ____
ROOT
ATOM      1  C   UNL     1       3.610  -3.202   1.014  0.00  0.00    +0.106 A 
ATOM      2  C   UNL     1       3.227  -3.963  -0.076  0.00  0.00    +0.030 A 
ATOM      3  C   UNL     1       2.210  -3.517  -0.896  0.00  0.00    +0.025 A 
ATOM      4  C   UNL     1       1.576  -2.311  -0.626  0.00  0.00    +0.031 A 
ATOM      5  C   UNL     1       1.956  -1.546   0.466  0.00  0.00    -0.018 A 
ATOM      6  C   UNL     1       2.980  -2.005   1.284  0.00  0.00    +0.034 A 
ATOM      7  C   UNL     1       1.298  -0.245   0.800  0.00  0.00    +0.049 C 
ATOM      8  C   UNL     1       2.180   0.927   0.439  0.00  0.00    -0.023 C 
ATOM      9  C   UNL     1       1.451   1.924  -0.002  0.00  0.00    -0.030 C 
ATOM     10  C   UNL     1      -0.019   1.553   0.011  0.00  0.00    +0.033 C 
ATOM     11  C   UNL     1       0.002  -0.004   0.002  0.00  0.00    +0.029 C 
ATOM     12  C   UNL     1       0.193  -0.449  -1.451  0.00  0.00    +0.105 C 
ATOM     13  N   UNL     1       0.549  -1.872  -1.469  0.00  0.00    -0.336 N 
ATOM     14  H   UNL     1       0.012  -2.565  -2.133  0.00  0.00    +0.147 HD
ENDROOT
BRANCH  12  15
ATOM     15  C   UNL     1      -1.088  -0.239  -2.216  0.00  0.00    -0.027 A 
ATOM     16  C   UNL     1      -2.113  -1.161  -2.111  0.00  0.00    +0.009 A 
ATOM     17  C   UNL     1      -3.291  -0.968  -2.807  0.00  0.00    +0.046 A 
ATOM     18  C   UNL     1      -3.440   0.146  -3.620  0.00  0.00    +0.117 A 
ATOM     19  C   UNL     1      -2.408   1.067  -3.728  0.00  0.00    +0.046 A 
ATOM     20  C   UNL     1      -1.234   0.872  -3.026  0.00  0.00    +0.009 A 
BRANCH  18  21
ATOM     21  O   UNL     1      -4.595   0.336  -4.310  0.00  0.00    -0.507 OA
ATOM     22  H   UNL     1      -4.713   1.219  -4.955  0.00  0.00    +0.292 HD
ENDBRANCH  18  21
ENDBRANCH  12  15
BRANCH   1  23
ATOM     23  S   UNL     1       4.909  -3.766   2.063  0.00  0.00    +0.059 S 
ATOM     24  O   UNL     1       4.712  -3.142   3.325  0.00  0.00    -0.153 OA
ATOM     25  O   UNL     1       4.968  -5.178   1.913  0.00  0.00    -0.153 OA
BRANCH  23  26
ATOM     26  N   UNL     1       6.326  -3.165   1.454  0.00  0.00    -0.187 NA
ATOM     27  H   UNL     1       7.008  -3.839   0.915  0.00  0.00    +0.148 HD
BRANCH  26  28
ATOM     28  C   UNL     1       6.563  -1.719   1.441  0.00  0.00    +0.073 C 
ATOM     29  C   UNL     1       6.161  -1.149   0.080  0.00  0.00    +0.025 C 
BRANCH  28  31
ATOM     30  C   UNL     1       8.420  -1.901   3.103  0.00  0.00    +0.005 C 
ATOM     31  C   UNL     1       8.047  -1.443   1.692  0.00  0.00    +0.017 C 
ENDBRANCH  28  31
ENDBRANCH  26  28
ENDBRANCH  23  26
ENDBRANCH   1  23
TORSDOF 6
