REMARK  Name = ZINC64714377
REMARK  9 active torsions:
REMARK  status: ('A' for Active; 'I' for Inactive)
REMARK    1  A    between atoms: C_1  and  C_2
REMARK    2  A    between atoms: C_2  and  C_3
REMARK    3  A    between atoms: C_3  and  N_4
REMARK    4  A    between atoms: C_8  and  S_13
REMARK    5  A    between atoms: S_13  and  N_16
REMARK    6  A    between atoms: C_21  and  C_23
REMARK    7  A    between atoms: N_25  and  C_26
REMARK    8  A    between atoms: C_26  and  C_27
REMARK    9  A    between atoms: C_27  and  C_28
REMARK                            x       y       z     vdW  Elec       q    Type
REMARK                         _______ _______ _______ _____ _____    ______ ____
ROOT
ATOM      1  N   UNL     1      -2.892  -7.197   4.773  0.00  0.00    -0.165 NA
ATOM      2  C   UNL     1      -3.628  -6.738   5.959  0.00  0.00    +0.110 C 
ATOM      3  C   UNL     1      -4.689  -7.785   6.316  0.00  0.00    +0.017 C 
ATOM      4  C   UNL     1      -5.569  -8.051   5.094  0.00  0.00    +0.003 C 
ATOM      5  C   UNL     1      -4.710  -8.604   3.954  0.00  0.00    +0.030 C 
ATOM      6  C   UNL     1      -3.650  -7.561   3.568  0.00  0.00    +0.165 C 
ENDROOT
BRANCH   6   7
ATOM      7  C   UNL     1      -2.714  -8.146   2.541  0.00  0.00    +0.232 C 
ATOM      8  O   UNL     1      -2.184  -9.218   2.744  0.00  0.00    -0.274 OA
ATOM      9  N   UNL     1      -2.467  -7.477   1.397  0.00  0.00    -0.314 N 
ATOM     10  H   UNL     1      -2.891  -6.620   1.235  0.00  0.00    +0.149 HD
BRANCH   9  11
ATOM     11  C   UNL     1      -1.558  -8.045   0.399  0.00  0.00    +0.110 C 
BRANCH  11  12
ATOM     12  C   UNL     1      -1.453  -7.093  -0.795  0.00  0.00    +0.073 C 
BRANCH  12  13
ATOM     13  C   UNL     1      -0.517  -7.678  -1.822  0.00  0.00    +0.035 A 
ATOM     14  H   UNL     1       0.375  -9.426  -4.246  0.00  0.00    +0.166 HD
ATOM     15  C   UNL     1      -0.849  -8.563  -2.781  0.00  0.00    +0.105 A 
ATOM     16  N   UNL     1       0.293  -8.825  -3.490  0.00  0.00    -0.352 N 
ATOM     17  C   UNL     1       1.282  -8.090  -2.939  0.00  0.00    +0.171 A 
ATOM     18  N   UNL     1       0.789  -7.402  -1.945  0.00  0.00    -0.350 N 
ATOM     19  H   UNL     1       1.290  -6.790  -1.383  0.00  0.00    +0.166 HD
ENDBRANCH  12  13
ENDBRANCH  11  12
ENDBRANCH   9  11
ENDBRANCH   6   7
BRANCH   1  20
ATOM     20  S   UNL     1      -1.239  -7.295   4.792  0.00  0.00    +0.062 S 
ATOM     21  O   UNL     1      -0.780  -6.256   5.646  0.00  0.00    -0.153 OA
ATOM     22  O   UNL     1      -0.823  -7.407   3.438  0.00  0.00    -0.153 OA
BRANCH  20  27
ATOM     23  N   UNL     1       0.183 -12.244   7.680  0.00  0.00    -0.249 N 
ATOM     24  C   UNL     1      -0.151 -11.209   6.800  0.00  0.00    +0.068 A 
ATOM     25  C   UNL     1      -0.339 -11.161   5.429  0.00  0.00    +0.028 A 
ATOM     26  C   UNL     1      -0.671  -9.963   4.821  0.00  0.00    +0.030 A 
ATOM     27  C   UNL     1      -0.816  -8.815   5.577  0.00  0.00    +0.107 A 
ATOM     28  C   UNL     1      -0.630  -8.855   6.947  0.00  0.00    +0.054 A 
ATOM     29  C   UNL     1      -0.297 -10.049   7.564  0.00  0.00    +0.067 A 
ATOM     30  N   UNL     1      -0.051 -10.397   8.896  0.00  0.00    -0.263 N 
ATOM     31  N   UNL     1       0.232 -11.732   8.944  0.00  0.00    -0.160 NA
ATOM     32  H   UNL     1      -0.080  -9.794   9.656  0.00  0.00    +0.168 HD
ATOM     33  H   UNL     1       1.135 -11.893   9.365  0.00  0.00    +0.168 HD
BRANCH  23  34
ATOM     34  C   UNL     1       0.431 -13.640   7.309  0.00  0.00    +0.125 C 
BRANCH  34  36
ATOM     35  C   UNL     1       2.176 -15.288   6.618  0.00  0.00    +0.005 C 
ATOM     36  C   UNL     1       1.918 -13.831   7.005  0.00  0.00    +0.017 C 
ENDBRANCH  34  36
ENDBRANCH  23  34
ENDBRANCH  20  27
ENDBRANCH   1  20
TORSDOF 8
