REMARK  Name = ZINC09910571
REMARK  8 active torsions:
REMARK  status: ('A' for Active; 'I' for Inactive)
REMARK    1  A    between atoms: C_1  and  C_2
REMARK    2  A    between atoms: C_9  and  N_13
REMARK    3  A    between atoms: C_10  and  C_11
REMARK    4  A    between atoms: C_14  and  C_16
REMARK    5  A    between atoms: C_16  and  C_17
REMARK    6  A    between atoms: C_17  and  C_18
REMARK    7  A    between atoms: C_18  and  S_19
REMARK    8  A    between atoms: S_19  and  C_20
REMARK                            x       y       z     vdW  Elec       q    Type
REMARK                         _______ _______ _______ _____ _____    ______ ____
ROOT
ATOM      1  N   UNL     1       1.446   3.473   0.007  0.00  0.00    -0.279 N 
ATOM      2  C   UNL     1       2.712   3.933  -0.003  0.00  0.00    +0.218 C 
ATOM      3  O   UNL     1       3.641   3.152  -0.016  0.00  0.00    -0.275 OA
ATOM      4  H   UNL     1       0.703   4.098   0.017  0.00  0.00    +0.155 HD
ENDROOT
BRANCH   1  12
ATOM      5  C   UNL     1       0.500  -4.293  -0.119  0.00  0.00    +0.008 C 
ATOM      6  C   UNL     1       0.290  -2.802  -0.394  0.00  0.00    -0.009 C 
ATOM      7  C   UNL     1      -0.872  -2.282   0.457  0.00  0.00    +0.008 C 
ATOM      8  C   UNL     1      -1.252  -0.869   0.011  0.00  0.00    +0.037 C 
ATOM      9  C   UNL     1       0.002  -0.004   0.002  0.00  0.00    -0.018 A 
ATOM     10  C   UNL     1       1.233  -0.563  -0.013  0.00  0.00    -0.004 A 
ATOM     11  S   UNL     1       2.352   0.809  -0.016  0.00  0.00    -0.077 S 
ATOM     12  C   UNL     1       1.203   2.107   0.002  0.00  0.00    +0.090 A 
ATOM     13  C   UNL     1      -0.018   1.448   0.010  0.00  0.00    +0.084 A 
ATOM     14  C   UNL     1       1.561  -2.023  -0.025  0.00  0.00    +0.046 C 
BRANCH  13  15
ATOM     15  C   UNL     1      -1.252   2.174   0.020  0.00  0.00    +0.102 C 
ATOM     16  N   UNL     1      -2.232   2.749   0.028  0.00  0.00    -0.191 NA
ENDBRANCH  13  15
ENDBRANCH   1  12
BRANCH   2  17
ATOM     17  C   UNL     1       2.976   5.417   0.002  0.00  0.00    +0.097 C 
BRANCH  17  18
ATOM     18  C   UNL     1       4.485   5.667  -0.011  0.00  0.00    +0.020 C 
BRANCH  18  19
ATOM     19  C   UNL     1       4.753   7.173  -0.006  0.00  0.00    +0.075 C 
BRANCH  19  20
ATOM     20  S   UNL     1       6.542   7.470  -0.021  0.00  0.00    -0.125 S 
BRANCH  20  21
ATOM     21  C   UNL     1       6.684   9.226  -0.013  0.00  0.00    +0.008 A 
ATOM     22  C   UNL     1       5.541  10.016  -0.004  0.00  0.00    +0.016 A 
ATOM     23  C   UNL     1       5.654  11.392   0.007  0.00  0.00    +0.021 A 
ATOM     24  C   UNL     1       6.905  11.985  -0.002  0.00  0.00    +0.041 A 
ATOM     25  C   UNL     1       8.045  11.200  -0.017  0.00  0.00    +0.021 A 
ATOM     26  C   UNL     1       7.938   9.823  -0.022  0.00  0.00    +0.016 A 
ATOM     27 CL   UNL     1       7.044  13.715   0.006  0.00  0.00    -0.084 Cl
ENDBRANCH  20  21
ENDBRANCH  19  20
ENDBRANCH  18  19
ENDBRANCH  17  18
ENDBRANCH   2  17
TORSDOF 7
