REMARK  Name = ZINC03876673
REMARK  7 active torsions:
REMARK  status: ('A' for Active; 'I' for Inactive)
REMARK    1  A    between atoms: C_1  and  C_2
REMARK    2  A    between atoms: C_2  and  C_27
REMARK    3  A    between atoms: C_3  and  N_21
REMARK    4  A    between atoms: N_5  and  N_9
REMARK    5  A    between atoms: N_12  and  C_13
REMARK    6  A    between atoms: N_21  and  O_26
REMARK    7  A    between atoms: N_24  and  C_25
REMARK                            x       y       z     vdW  Elec       q    Type
REMARK                         _______ _______ _______ _____ _____    ______ ____
ROOT
ATOM      1  C   UNL     1       2.344   1.256  -0.165  0.00  0.00    +0.026 C 
ATOM      2  C   UNL     1       1.468   0.014   0.015  0.00  0.00    +0.056 C 
ATOM      3  C   UNL     1       0.930  -0.488  -1.341  0.00  0.00    +0.228 C 
ATOM      4  N   UNL     1      -0.512  -0.451  -1.431  0.00  0.00    -0.212 N 
ATOM      5  C   UNL     1      -1.254  -0.013  -0.403  0.00  0.00    +0.128 C 
ATOM      6  S   UNL     1      -2.961   0.097  -0.335  0.00  0.00    -0.026 S 
ATOM      7  S   UNL     1      -0.096   0.428   0.876  0.00  0.00    -0.091 S 
ATOM      8  C   UNL     1       2.228  -1.091   0.750  0.00  0.00    +0.026 C 
ENDROOT
BRANCH   4   9
ATOM      9  N   UNL     1      -1.142  -0.878  -2.607  0.00  0.00    -0.215 N 
ATOM     10  C   UNL     1      -1.663   0.027  -3.459  0.00  0.00    +0.320 C 
ATOM     11  O   UNL     1      -2.210  -0.344  -4.479  0.00  0.00    -0.251 OA
ATOM     12  N   UNL     1      -1.577   1.343  -3.180  0.00  0.00    -0.268 N 
ATOM     13  H   UNL     1      -1.204  -1.825  -2.807  0.00  0.00    +0.175 HD
ATOM     14  H   UNL     1      -1.082   1.642  -2.402  0.00  0.00    +0.156 HD
BRANCH  12  15
ATOM     15  C   UNL     1      -2.203   2.277  -4.014  0.00  0.00    +0.036 A 
ATOM     16  C   UNL     1      -2.280   2.047  -5.382  0.00  0.00    +0.025 A 
ATOM     17  C   UNL     1      -2.898   2.970  -6.203  0.00  0.00    +0.023 A 
ATOM     18  C   UNL     1      -3.440   4.124  -5.665  0.00  0.00    +0.059 A 
ATOM     19  C   UNL     1      -3.365   4.356  -4.301  0.00  0.00    +0.061 A 
ATOM     20  C   UNL     1      -2.752   3.432  -3.475  0.00  0.00    +0.044 A 
ATOM     21 CL   UNL     1      -4.046   5.804  -3.629  0.00  0.00    -0.082 Cl
ATOM     22 CL   UNL     1      -4.215   5.282  -6.700  0.00  0.00    -0.082 Cl
ENDBRANCH  12  15
ENDBRANCH   4   9
BRANCH   3  23
ATOM     23  N   UNL     1       1.490   0.346  -2.408  0.00  0.00    -0.144 N 
ATOM     24  C   UNL     1       2.390  -0.172  -3.267  0.00  0.00    +0.327 C 
ATOM     25  O   UNL     1       2.807  -1.302  -3.102  0.00  0.00    -0.250 OA
ATOM     26  N   UNL     1       2.828   0.562  -4.308  0.00  0.00    -0.301 N 
ATOM     27  C   UNL     1       3.721  -0.037  -5.303  0.00  0.00    +0.130 C 
ATOM     28  H   UNL     1       2.552   1.488  -4.399  0.00  0.00    +0.150 HD
BRANCH  23  29
ATOM     29  O   UNL     1       1.085   1.697  -2.536  0.00  0.00    -0.289 OA
ATOM     30  H   UNL     1       1.451   2.145  -3.311  0.00  0.00    +0.242 HD
ENDBRANCH  23  29
ENDBRANCH   3  23
TORSDOF 4
