REMARK  Name = ZINC65422756
REMARK  5 active torsions:
REMARK  status: ('A' for Active; 'I' for Inactive)
REMARK    1  A    between atoms: C_1  and  C_2
REMARK    2  A    between atoms: C_7  and  C_8
REMARK    3  A    between atoms: C_11  and  C_13
REMARK    4  A    between atoms: C_22  and  C_26
REMARK    5  A    between atoms: C_23  and  O_25
REMARK                            x       y       z     vdW  Elec       q    Type
REMARK                         _______ _______ _______ _____ _____    ______ ____
ROOT
ATOM      1  C   UNL     1       0.050   1.253   6.480  0.00  0.00    +0.068 C 
ATOM      2  C   UNL     1      -1.180   0.626   7.138  0.00  0.00    +0.109 C 
ATOM      3  C   UNL     1      -1.029  -0.871   7.183  0.00  0.00    +0.218 C 
ATOM      4  O   UNL     1      -2.006  -1.576   7.042  0.00  0.00    -0.275 OA
ATOM      5  N   UNL     1       0.176  -1.436   7.377  0.00  0.00    -0.285 N 
ATOM      6  C   UNL     1       1.317  -0.641   7.525  0.00  0.00    +0.041 A 
ATOM      7  C   UNL     1       1.299   0.682   7.099  0.00  0.00    -0.017 A 
ATOM      8  C   UNL     1       2.424   1.470   7.243  0.00  0.00    +0.013 A 
ATOM      9  C   UNL     1       3.570   0.945   7.811  0.00  0.00    -0.009 A 
ATOM     10  C   UNL     1       3.593  -0.376   8.237  0.00  0.00    +0.122 A 
ATOM     11  C   UNL     1       2.466  -1.169   8.096  0.00  0.00    +0.069 A 
ATOM     12  C   UNL     1       4.795   1.808   7.966  0.00  0.00    +0.047 C 
ATOM     13  H   UNL     1       0.255  -2.402   7.415  0.00  0.00    +0.155 HD
ENDROOT
BRANCH   1  17
ATOM     14  C   UNL     1       0.025   0.018   2.493  0.00  0.00    +0.109 A 
ATOM     15  N   UNL     1       0.003   1.323   2.721  0.00  0.00    -0.247 NA
ATOM     16  C   UNL     1       0.009   1.802   3.943  0.00  0.00    +0.123 A 
ATOM     17  C   UNL     1       0.037   0.951   5.004  0.00  0.00    +0.018 A 
ATOM     18  S   UNL     1       0.049  -0.626   4.160  0.00  0.00    -0.072 S 
BRANCH  14  25
ATOM     19  C   UNL     1      -0.018   1.503   0.010  0.00  0.00    +0.044 C 
ATOM     20  C   UNL     1       0.002  -0.004   0.002  0.00  0.00    -0.041 A 
ATOM     21  C   UNL     1       0.006  -0.689  -1.196  0.00  0.00    +0.004 A 
ATOM     22  C   UNL     1       0.025  -2.072  -1.205  0.00  0.00    +0.000 A 
ATOM     23  C   UNL     1       0.040  -2.778  -0.015  0.00  0.00    +0.001 A 
ATOM     24  C   UNL     1       0.037  -2.105   1.189  0.00  0.00    +0.011 A 
ATOM     25  C   UNL     1       0.023  -0.710   1.206  0.00  0.00    +0.010 A 
ENDBRANCH  14  25
ENDBRANCH   1  17
BRANCH  10  26
ATOM     26  O   UNL     1       4.721  -0.890   8.795  0.00  0.00    -0.506 OA
ATOM     27  H   UNL     1       4.767  -0.786   9.755  0.00  0.00    +0.292 HD
ENDBRANCH  10  26
TORSDOF 3
