REMARK  Name = ZINC67437235
REMARK  10 active torsions:
REMARK  status: ('A' for Active; 'I' for Inactive)
REMARK    1  A    between atoms: C_1  and  C_2
REMARK    2  A    between atoms: C_5  and  C_9
REMARK    3  A    between atoms: C_11  and  C_19
REMARK    4  A    between atoms: C_12  and  C_18
REMARK    5  A    between atoms: N_13  and  C_17
REMARK    6  A    between atoms: C_19  and  O_21
REMARK    7  A    between atoms: O_21  and  C_22
REMARK    8  A    between atoms: C_22  and  C_23
REMARK    9  A    between atoms: C_23  and  O_24
REMARK   10  A    between atoms: O_24  and  C_25
REMARK                            x       y       z     vdW  Elec       q    Type
REMARK                         _______ _______ _______ _____ _____    ______ ____
ROOT
ATOM      1  C   UNL     1       0.287  -4.324   0.071  0.00  0.00    +0.144 C 
ATOM      2  C   UNL     1      -1.053  -4.990  -0.164  0.00  0.00    +0.078 C 
ATOM      3  C   UNL     1      -1.571  -5.733   0.838  0.00  0.00    +0.024 C 
ATOM      4  N   UNL     1      -0.907  -5.878   2.023  0.00  0.00    -0.262 N 
ATOM      5  C   UNL     1       0.278  -5.313   2.284  0.00  0.00    +0.307 C 
ATOM      6  O   UNL     1       0.792  -5.500   3.369  0.00  0.00    -0.252 OA
ATOM      7  N   UNL     1       0.919  -4.543   1.383  0.00  0.00    -0.288 N 
ATOM      8  C   UNL     1      -1.527  -6.698   3.067  0.00  0.00    +0.139 C 
ATOM      9  C   UNL     1      -2.902  -6.413   0.646  0.00  0.00    +0.061 C 
ATOM     10  H   UNL     1       1.777  -4.143   1.594  0.00  0.00    +0.151 HD
ENDROOT
BRANCH   1  15
ATOM     11  C   UNL     1      -0.403   1.369  -0.652  0.00  0.00    +0.047 C 
ATOM     12  C   UNL     1      -0.223  -0.115  -0.463  0.00  0.00    -0.015 A 
ATOM     13  C   UNL     1       0.248  -0.893  -1.504  0.00  0.00    +0.006 A 
ATOM     14  C   UNL     1       0.414  -2.254  -1.330  0.00  0.00    +0.006 A 
ATOM     15  C   UNL     1       0.107  -2.840  -0.116  0.00  0.00    -0.020 A 
ATOM     16  C   UNL     1      -0.364  -2.064   0.926  0.00  0.00    +0.044 A 
ATOM     17  C   UNL     1      -0.525  -0.700   0.756  0.00  0.00    +0.127 A 
ATOM     18  F   UNL     1      -0.981   0.060   1.775  0.00  0.00    -0.205 F 
ENDBRANCH   1  15
BRANCH   2  19
ATOM     19  C   UNL     1      -1.740  -4.839  -1.392  0.00  0.00    +0.339 C 
ATOM     20  O   UNL     1      -2.817  -5.379  -1.557  0.00  0.00    -0.245 OA
BRANCH  19  21
ATOM     21  O   UNL     1      -1.199  -4.096  -2.380  0.00  0.00    -0.459 OA
BRANCH  21  22
ATOM     22  C   UNL     1      -1.947  -3.986  -3.593  0.00  0.00    +0.260 C 
BRANCH  22  23
ATOM     23  C   UNL     1      -1.181  -3.111  -4.587  0.00  0.00    +0.200 C 
BRANCH  23  24
ATOM     24  O   UNL     1       0.038  -3.761  -4.952  0.00  0.00    -0.380 OA
ATOM     25  C   UNL     1       0.834  -3.024  -5.883  0.00  0.00    +0.194 C 
ENDBRANCH  23  24
ENDBRANCH  22  23
ENDBRANCH  21  22
ENDBRANCH  19  21
ENDBRANCH   2  19
TORSDOF 6
