REMARK  Name = ZINC39842094
REMARK  16 active torsions:
REMARK  status: ('A' for Active; 'I' for Inactive)
REMARK    1  A    between atoms: C_1  and  C_2
REMARK    2  A    between atoms: N_4  and  C_5
REMARK    3  A    between atoms: C_7  and  O_39
REMARK    4  A    between atoms: C_9  and  O_35
REMARK    5  A    between atoms: C_11  and  C_30
REMARK    6  A    between atoms: C_14  and  O_16
REMARK    7  A    between atoms: O_16  and  C_17
REMARK    8  A    between atoms: C_17  and  C_18
REMARK    9  A    between atoms: C_18  and  N_19
REMARK   10  A    between atoms: C_30  and  O_31
REMARK   11  A    between atoms: O_31  and  C_32
REMARK   12  A    between atoms: C_32  and  C_34
REMARK   13  A    between atoms: O_35  and  C_36
REMARK   14  A    between atoms: C_36  and  C_38
REMARK   15  A    between atoms: O_39  and  C_40
REMARK   16  A    between atoms: C_40  and  C_42
REMARK                            x       y       z     vdW  Elec       q    Type
REMARK                         _______ _______ _______ _____ _____    ______ ____
ROOT
ATOM      1  C   UNL     1       0.020  -2.136  -1.177  0.00  0.00    +0.173 C 
ATOM      2  C   UNL     1       0.505  -2.634  -2.542  0.00  0.00    +0.244 C 
ATOM      3  C   UNL     1      -0.489  -2.188  -3.618  0.00  0.00    +0.251 C 
ATOM      4  C   UNL     1      -1.882  -2.718  -3.268  0.00  0.00    +0.203 C 
ATOM      5  O   UNL     1      -2.259  -2.243  -1.974  0.00  0.00    -0.339 OA
ATOM      6  C   UNL     1      -1.392  -2.669  -0.919  0.00  0.00    +0.275 C 
ENDROOT
BRANCH   1  10
ATOM      7  C   UNL     1       1.079   1.522  -0.791  0.00  0.00    +0.109 C 
ATOM      8  C   UNL     1       1.099   0.015  -0.799  0.00  0.00    +0.210 C 
ATOM      9  O   UNL     1       2.105  -0.579  -0.474  0.00  0.00    -0.276 OA
ATOM     10  N   UNL     1       0.000  -0.672  -1.169  0.00  0.00    -0.304 N 
ATOM     11  H   UNL     1      -0.804  -0.196  -1.429  0.00  0.00    +0.149 HD
ENDBRANCH   1  10
BRANCH   6  12
ATOM     12  O   UNL     1      -1.872  -2.163   0.329  0.00  0.00    -0.348 OA
BRANCH  12  13
ATOM     13  C   UNL     1      -3.084  -2.772   0.775  0.00  0.00    +0.182 C 
BRANCH  13  14
ATOM     14  C   UNL     1      -3.502  -2.156   2.112  0.00  0.00    +0.145 C 
BRANCH  14  15
ATOM     15  N   UNL     1      -3.828  -0.741   1.918  0.00  0.00    -0.232 N 
ATOM     16  C   UNL     1      -2.940   0.265   2.016  0.00  0.00    +0.254 C 
ATOM     17  O   UNL     1      -1.760   0.146   2.276  0.00  0.00    -0.270 OA
ATOM     18  C   UNL     1      -3.642   1.539   1.754  0.00  0.00    +0.049 A 
ATOM     19  C   UNL     1      -3.252   2.869   1.717  0.00  0.00    +0.014 A 
ATOM     20  C   UNL     1      -4.188   3.851   1.431  0.00  0.00    +0.001 A 
ATOM     21  C   UNL     1      -5.505   3.514   1.183  0.00  0.00    +0.001 A 
ATOM     22  C   UNL     1      -5.909   2.188   1.216  0.00  0.00    +0.014 A 
ATOM     23  C   UNL     1      -4.985   1.195   1.500  0.00  0.00    +0.049 A 
ATOM     24  C   UNL     1      -5.053  -0.277   1.612  0.00  0.00    +0.254 C 
ATOM     25  O   UNL     1      -6.049  -0.955   1.456  0.00  0.00    -0.270 OA
ENDBRANCH  14  15
ENDBRANCH  13  14
ENDBRANCH  12  13
ENDBRANCH   6  12
BRANCH   4  26
ATOM     26  C   UNL     1      -2.892  -2.226  -4.306  0.00  0.00    +0.267 C 
BRANCH  26  27
ATOM     27  O   UNL     1      -4.168  -2.814  -4.046  0.00  0.00    -0.462 OA
BRANCH  27  28
ATOM     28  C   UNL     1      -5.172  -2.483  -4.873  0.00  0.00    +0.304 C 
ATOM     29  O   UNL     1      -4.974  -1.719  -5.788  0.00  0.00    -0.251 OA
ATOM     30  C   UNL     1      -6.546  -3.064  -4.661  0.00  0.00    +0.136 C 
ENDBRANCH  27  28
ENDBRANCH  26  27
ENDBRANCH   4  26
BRANCH   3  31
ATOM     31  O   UNL     1      -0.521  -0.760  -3.676  0.00  0.00    -0.455 OA
BRANCH  31  32
ATOM     32  C   UNL     1      -0.802  -0.204  -4.865  0.00  0.00    +0.304 C 
ATOM     33  O   UNL     1      -1.013  -0.907  -5.826  0.00  0.00    -0.251 OA
ATOM     34  C   UNL     1      -0.853   1.295  -5.003  0.00  0.00    +0.136 C 
ENDBRANCH  31  32
ENDBRANCH   3  31
BRANCH   2  35
ATOM     35  O   UNL     1       1.794  -2.084  -2.821  0.00  0.00    -0.456 OA
BRANCH  35  36
ATOM     36  C   UNL     1       2.618  -2.819  -3.585  0.00  0.00    +0.304 C 
ATOM     37  O   UNL     1       2.256  -3.894  -4.002  0.00  0.00    -0.251 OA
ATOM     38  C   UNL     1       3.993  -2.304  -3.921  0.00  0.00    +0.136 C 
ENDBRANCH  35  36
ENDBRANCH   2  35
TORSDOF 12
