REMARK  Name = ZINC00643958
REMARK  7 active torsions:
REMARK  status: ('A' for Active; 'I' for Inactive)
REMARK    1  A    between atoms: C_1  and  C_2
REMARK    2  A    between atoms: C_2  and  C_3
REMARK    3  A    between atoms: C_2  and  C_4
REMARK    4  A    between atoms: C_2  and  C_5
REMARK    5  A    between atoms: C_12  and  N_22
REMARK    6  A    between atoms: C_13  and  C_14
REMARK    7  A    between atoms: C_23  and  C_25
REMARK                            x       y       z     vdW  Elec       q    Type
REMARK                         _______ _______ _______ _____ _____    ______ ____
ROOT
ATOM      1  C   UNL     1       1.809   0.216   6.790  0.00  0.00    -0.000 C 
ATOM      2  C   UNL     1       0.393   0.182   6.209  0.00  0.00    +0.009 C 
ATOM      3  C   UNL     1       0.458   0.035   4.687  0.00  0.00    +0.037 C 
ATOM      4  C   UNL     1       1.348  -1.154   4.346  0.00  0.00    -0.023 A 
ATOM      5  C   UNL     1       2.206  -1.664   5.256  0.00  0.00    -0.004 A 
ATOM      6  S   UNL     1       2.997  -3.013   4.425  0.00  0.00    -0.077 S 
ATOM      7  C   UNL     1       2.195  -2.906   2.893  0.00  0.00    +0.085 A 
ATOM      8  C   UNL     1       1.334  -1.830   3.060  0.00  0.00    +0.069 A 
ATOM      9  C   UNL     1       2.433  -1.180   6.655  0.00  0.00    +0.046 C 
ENDROOT
BRANCH   8  10
ATOM     10  C   UNL     1       0.449  -1.389   1.978  0.00  0.00    +0.249 C 
ATOM     11  O   UNL     1      -0.669  -1.860   1.876  0.00  0.00    -0.270 OA
ATOM     12  N   UNL     1       0.873  -0.462   1.096  0.00  0.00    -0.293 N 
ATOM     13  C   UNL     1       0.002  -0.004   0.002  0.00  0.00    +0.136 C 
ATOM     14  C   UNL     1      -0.019   1.529   0.010  0.00  0.00    +0.179 C 
ATOM     15  O   UNL     1       1.325   2.018   0.000  0.00  0.00    -0.377 OA
ATOM     16  C   UNL     1       2.091   1.647   1.149  0.00  0.00    +0.179 C 
ATOM     17  C   UNL     1       2.220   0.121   1.199  0.00  0.00    +0.136 C 
ENDBRANCH   8  10
BRANCH   1  19
ATOM     18  C   UNL     1       3.162   0.626   8.850  0.00  0.00    +0.011 C 
ATOM     19  C   UNL     1       1.747   0.609   8.268  0.00  0.00    -0.035 C 
ATOM     20  C   UNL     1       1.125   2.001   8.400  0.00  0.00    +0.011 C 
ATOM     21  C   UNL     1       0.893  -0.406   9.030  0.00  0.00    +0.011 C 
ENDBRANCH   1  19
BRANCH   7  22
ATOM     22  N   UNL     1       2.370  -3.702   1.772  0.00  0.00    -0.275 N 
ATOM     23  C   UNL     1       3.262  -4.712   1.796  0.00  0.00    +0.249 C 
ATOM     24  O   UNL     1       3.913  -4.925   2.800  0.00  0.00    -0.270 OA
ATOM     25  H   UNL     1       1.851  -3.532   0.971  0.00  0.00    +0.156 HD
BRANCH  23  26
ATOM     26  C   UNL     1       3.449  -5.560   0.601  0.00  0.00    +0.037 A 
ATOM     27  C   UNL     1       2.699  -5.322  -0.552  0.00  0.00    +0.016 A 
ATOM     28  C   UNL     1       2.881  -6.113  -1.666  0.00  0.00    +0.039 A 
ATOM     29  C   UNL     1       3.799  -7.152  -1.639  0.00  0.00    +0.123 A 
ATOM     30  C   UNL     1       4.543  -7.397  -0.494  0.00  0.00    +0.039 A 
ATOM     31  C   UNL     1       4.373  -6.608   0.623  0.00  0.00    +0.016 A 
ATOM     32  F   UNL     1       3.970  -7.928  -2.731  0.00  0.00    -0.205 F 
ENDBRANCH  23  26
ENDBRANCH   7  22
TORSDOF 4
