REMARK  Name = ZINC43741681
REMARK  8 active torsions:
REMARK  status: ('A' for Active; 'I' for Inactive)
REMARK    1  A    between atoms: C_1  and  C_2
REMARK    2  A    between atoms: C_2  and  O_4
REMARK    3  A    between atoms: O_4  and  C_5
REMARK    4  A    between atoms: C_8  and  O_37
REMARK    5  A    between atoms: C_16  and  O_36
REMARK    6  A    between atoms: C_20  and  C_35
REMARK    7  A    between atoms: C_25  and  C_34
REMARK    8  A    between atoms: C_26  and  C_28
REMARK                            x       y       z     vdW  Elec       q    Type
REMARK                         _______ _______ _______ _____ _____    ______ ____
ROOT
ATOM      1  C   UNL     1      -1.187  -2.121   0.186  0.00  0.00    +0.187 C 
ATOM      2  C   UNL     1      -1.293  -2.822   1.548  0.00  0.00    +0.080 C 
ATOM      3  C   UNL     1      -2.666  -3.541   1.575  0.00  0.00    +0.079 C 
ATOM      4  C   UNL     1      -3.652  -2.684   2.352  0.00  0.00    +0.025 C 
ATOM      5  C   UNL     1      -3.434  -1.189   2.161  0.00  0.00    +0.007 C 
ATOM      6  C   UNL     1      -4.287  -0.460   3.208  0.00  0.00    +0.004 C 
ATOM      7  C   UNL     1      -5.764  -0.737   2.943  0.00  0.00    -0.002 C 
ATOM      8  C   UNL     1      -6.204   0.012   1.690  0.00  0.00    +0.035 C 
ATOM      9  C   UNL     1      -7.713  -0.173   1.510  0.00  0.00    +0.115 C 
ATOM     10  C   UNL     1      -7.977  -1.660   1.267  0.00  0.00    +0.032 C 
ATOM     11  C   UNL     1      -7.514  -2.491   2.449  0.00  0.00    +0.010 C 
ATOM     12  C   UNL     1      -6.077  -2.219   2.895  0.00  0.00    -0.026 C 
ATOM     13  C   UNL     1      -5.101  -3.047   2.068  0.00  0.00    +0.001 C 
ATOM     14  C   UNL     1      -5.386  -2.932   0.575  0.00  0.00    +0.005 C 
ATOM     15  C   UNL     1      -4.487  -3.888  -0.196  0.00  0.00    +0.010 C 
ATOM     16  C   UNL     1      -3.018  -3.763   0.103  0.00  0.00    +0.007 C 
ATOM     17  C   UNL     1      -2.263  -2.732  -0.729  0.00  0.00    +0.068 C 
ATOM     18  C   UNL     1      -2.402  -5.142  -0.276  0.00  0.00    +0.015 C 
ATOM     19  C   UNL     1      -5.990  -2.748   4.355  0.00  0.00    +0.012 C 
ENDROOT
BRANCH  17  20
ATOM     20  C   UNL     1      -3.143  -1.658  -1.313  0.00  0.00    -0.019 C 
ATOM     21  C   UNL     1      -4.158  -1.835  -2.157  0.00  0.00    +0.094 C 
ATOM     22  C   UNL     1      -4.747  -0.531  -2.475  0.00  0.00    +0.332 C 
ATOM     23  O   UNL     1      -5.692  -0.354  -3.219  0.00  0.00    -0.246 OA
ATOM     24  O   UNL     1      -4.085   0.441  -1.820  0.00  0.00    -0.457 OA
ATOM     25  C   UNL     1      -3.049  -0.174  -1.048  0.00  0.00    +0.264 C 
ENDBRANCH  17  20
BRANCH   9  26
ATOM     26  O   UNL     1      -8.158   0.585   0.385  0.00  0.00    -0.392 OA
ATOM     27  H   UNL     1      -9.107   0.513   0.213  0.00  0.00    +0.210 HD
ENDBRANCH   9  26
BRANCH   3  28
ATOM     28  O   UNL     1      -2.528  -4.828   2.237  0.00  0.00    -0.388 OA
ATOM     29  H   UNL     1      -2.241  -4.769   3.158  0.00  0.00    +0.210 HD
ENDBRANCH   3  28
BRANCH   1  30
ATOM     30  O   UNL     1      -1.375  -0.712   0.309  0.00  0.00    -0.461 OA
BRANCH  30  32
ATOM     31  C   UNL     1      -0.396   1.532   0.633  0.00  0.00    +0.136 C 
ATOM     32  C   UNL     1      -0.276   0.036   0.495  0.00  0.00    +0.304 C 
ATOM     33  O   UNL     1       0.810  -0.490   0.550  0.00  0.00    -0.251 OA
ENDBRANCH  30  32
ENDBRANCH   1  30
TORSDOF 5
