REMARK  Name = ZINC18120621
REMARK  9 active torsions:
REMARK  status: ('A' for Active; 'I' for Inactive)
REMARK    1  A    between atoms: C_1  and  C_2
REMARK    2  A    between atoms: C_2  and  C_3
REMARK    3  A    between atoms: C_5  and  C_13
REMARK    4  A    between atoms: C_6  and  O_12
REMARK    5  A    between atoms: C_8  and  O_9
REMARK    6  A    between atoms: O_9  and  C_10
REMARK    7  A    between atoms: C_10  and  C_11
REMARK    8  A    between atoms: C_14  and  C_19
REMARK    9  A    between atoms: C_21  and  C_24
REMARK                            x       y       z     vdW  Elec       q    Type
REMARK                         _______ _______ _______ _____ _____    ______ ____
ROOT
ATOM      1  C   UNL     1      -1.412  -0.526   0.013  0.00  0.00    -0.005 A 
ATOM      2  C   UNL     1      -2.011  -0.862   1.208  0.00  0.00    +0.020 A 
ATOM      3  C   UNL     1      -3.321  -1.346   1.219  0.00  0.00    +0.042 A 
ATOM      4  C   UNL     1      -4.021  -1.486   0.013  0.00  0.00    +0.129 A 
ATOM      5  C   UNL     1      -3.409  -1.145  -1.181  0.00  0.00    +0.092 A 
ATOM      6  C   UNL     1      -2.109  -0.660  -1.181  0.00  0.00    +0.127 A 
ENDROOT
BRANCH   3   7
ATOM      7  C   UNL     1      -3.965  -1.708   2.496  0.00  0.00    +0.079 A 
ATOM      8  C   UNL     1      -4.366  -2.981   2.890  0.00  0.00    +0.052 A 
ATOM      9  C   UNL     1      -4.931  -2.860   4.175  0.00  0.00    +0.145 A 
ATOM     10  N   UNL     1      -4.877  -1.607   4.536  0.00  0.00    -0.181 NA
ATOM     11  N   UNL     1      -4.276  -0.860   3.517  0.00  0.00    -0.276 N 
ATOM     12  H   UNL     1      -4.112   0.096   3.533  0.00  0.00    +0.189 HD
BRANCH   8  13
ATOM     13  C   UNL     1      -4.227  -4.225   2.108  0.00  0.00    +0.112 A 
ATOM     14  N   UNL     1      -4.590  -5.462   2.420  0.00  0.00    -0.244 NA
ATOM     15  C   UNL     1      -4.387  -6.461   1.592  0.00  0.00    +0.046 A 
ATOM     16  C   UNL     1      -3.794  -6.235   0.391  0.00  0.00    +0.070 A 
ATOM     17  S   UNL     1      -3.529  -4.469   0.480  0.00  0.00    -0.075 S 
ATOM     18  C   UNL     1      -4.810  -7.856   1.974  0.00  0.00    +0.066 C 
ENDBRANCH   8  13
ENDBRANCH   3   7
BRANCH   1  20
ATOM     19  C   UNL     1      -0.019   1.526   0.010  0.00  0.00    +0.009 C 
ATOM     20  C   UNL     1       0.002  -0.004   0.002  0.00  0.00    +0.035 C 
ENDBRANCH   1  20
BRANCH   4  21
ATOM     21  O   UNL     1      -5.295  -1.956   0.015  0.00  0.00    -0.506 OA
ATOM     22  H   UNL     1      -5.968  -1.267   0.097  0.00  0.00    +0.292 HD
ENDBRANCH   4  21
BRANCH   6  23
ATOM     23  O   UNL     1      -1.514  -0.321  -2.354  0.00  0.00    -0.492 OA
BRANCH  23  24
ATOM     24  C   UNL     1      -2.287  -0.484  -3.545  0.00  0.00    +0.225 C 
ATOM     25  C   UNL     1      -1.457  -0.054  -4.756  0.00  0.00    +0.048 C 
ENDBRANCH  23  24
ENDBRANCH   6  23
TORSDOF 6
