REMARK  Name = ZINC10383332
REMARK  10 active torsions:
REMARK  status: ('A' for Active; 'I' for Inactive)
REMARK    1  A    between atoms: C_1  and  C_2
REMARK    2  A    between atoms: C_2  and  C_3
REMARK    3  A    between atoms: C_2  and  N_4
REMARK    4  A    between atoms: C_5  and  C_7
REMARK    5  A    between atoms: C_7  and  C_8
REMARK    6  A    between atoms: C_8  and  C_9
REMARK    7  A    between atoms: C_9  and  N_10
REMARK    8  A    between atoms: N_10  and  C_11
REMARK    9  A    between atoms: N_10  and  S_12
REMARK   10  A    between atoms: S_12  and  C_15
REMARK                            x       y       z     vdW  Elec       q    Type
REMARK                         _______ _______ _______ _____ _____    ______ ____
ROOT
ATOM      1  C   UNL     1      -0.927   1.900   1.439  0.00  0.00    +0.106 A 
ATOM      2  C   UNL     1      -0.714   3.146   2.000  0.00  0.00    +0.029 A 
ATOM      3  C   UNL     1      -1.425   3.542   3.120  0.00  0.00    +0.014 A 
ATOM      4  C   UNL     1      -2.353   2.677   3.693  0.00  0.00    +0.033 A 
ATOM      5  C   UNL     1      -2.566   1.408   3.126  0.00  0.00    +0.035 A 
ATOM      6  C   UNL     1      -1.846   1.028   1.997  0.00  0.00    +0.041 A 
ATOM      7  C   UNL     1      -3.550   0.484   3.728  0.00  0.00    +0.195 C 
ATOM      8  O   UNL     1      -3.733  -0.613   3.239  0.00  0.00    -0.287 OA
ATOM      9  C   UNL     1      -4.309   0.896   4.927  0.00  0.00    +0.033 A 
ATOM     10  C   UNL     1      -5.238   0.032   5.501  0.00  0.00    +0.012 A 
ATOM     11  C   UNL     1      -5.945   0.426   6.624  0.00  0.00    +0.001 A 
ATOM     12  C   UNL     1      -5.735   1.674   7.181  0.00  0.00    +0.001 A 
ATOM     13  C   UNL     1      -4.816   2.545   6.623  0.00  0.00    +0.012 A 
ATOM     14  C   UNL     1      -4.097   2.165   5.494  0.00  0.00    +0.033 A 
ATOM     15  C   UNL     1      -3.113   3.089   4.892  0.00  0.00    +0.195 C 
ATOM     16  O   UNL     1      -2.929   4.186   5.382  0.00  0.00    -0.287 OA
ENDROOT
BRANCH   1  17
ATOM     17  S   UNL     1      -0.017   1.417   0.010  0.00  0.00    +0.061 S 
ATOM     18  O   UNL     1       0.002  -0.004   0.002  0.00  0.00    -0.153 OA
ATOM     19  O   UNL     1       1.172   2.195   0.003  0.00  0.00    -0.153 OA
BRANCH  17  20
ATOM     20  N   UNL     1      -0.897   1.885  -1.312  0.00  0.00    -0.180 NA
ATOM     21  C   UNL     1      -0.691   3.213  -1.897  0.00  0.00    +0.131 C 
BRANCH  20  22
ATOM     22  C   UNL     1      -1.883   0.973  -1.897  0.00  0.00    +0.109 C 
BRANCH  22  23
ATOM     23  C   UNL     1      -3.267   1.280  -1.323  0.00  0.00    +0.026 C 
BRANCH  23  24
ATOM     24  C   UNL     1      -4.296   0.327  -1.934  0.00  0.00    +0.097 C 
BRANCH  24  26
ATOM     25  N   UNL     1      -6.728  -0.090  -1.764  0.00  0.00    -0.313 N 
ATOM     26  C   UNL     1      -5.659   0.629  -1.367  0.00  0.00    +0.213 C 
ATOM     27  O   UNL     1      -5.795   1.520  -0.555  0.00  0.00    -0.276 OA
ATOM     28  H   UNL     1      -6.620  -0.802  -2.413  0.00  0.00    +0.149 HD
BRANCH  25  30
ATOM     29  C   UNL     1      -8.700   1.335  -2.017  0.00  0.00    +0.027 C 
ATOM     30  C   UNL     1      -8.054   0.204  -1.213  0.00  0.00    +0.067 C 
ATOM     31  C   UNL     1      -8.930  -1.047  -1.297  0.00  0.00    +0.027 C 
ENDBRANCH  25  30
ENDBRANCH  24  26
ENDBRANCH  23  24
ENDBRANCH  22  23
ENDBRANCH  20  22
ENDBRANCH  17  20
ENDBRANCH   1  17
TORSDOF 7
