REMARK  Name = ZINC64435715
REMARK  3 active torsions:
REMARK  status: ('A' for Active; 'I' for Inactive)
REMARK    1  A    between atoms: C_4  and  C_7
REMARK    2  A    between atoms: C_20  and  C_23
REMARK    3  A    between atoms: N_25  and  C_26
REMARK                            x       y       z     vdW  Elec       q    Type
REMARK                         _______ _______ _______ _____ _____    ______ ____
ROOT
ATOM      1  C   UNL     1       5.112  -2.612  -3.958  0.00  0.00    +0.230 C 
ATOM      2  N   UNL     1       5.718  -1.315  -3.616  0.00  0.00    -0.241 N 
ATOM      3  N   UNL     1       5.256  -0.992  -2.336  0.00  0.00    -0.168 NA
ATOM      4  C   UNL     1       4.459  -1.915  -1.867  0.00  0.00    +0.161 C 
ATOM      5  N   UNL     1       4.300  -2.951  -2.780  0.00  0.00    -0.177 N 
ATOM      6  N   UNL     1       3.486  -4.048  -2.487  0.00  0.00    -0.161 NA
ATOM      7  C   UNL     1       2.849  -4.137  -1.352  0.00  0.00    +0.140 C 
ATOM      8  C   UNL     1       2.965  -3.087  -0.344  0.00  0.00    +0.048 C 
ATOM      9  C   UNL     1       3.748  -2.001  -0.584  0.00  0.00    +0.050 C 
ATOM     10  N   UNL     1       2.046  -5.249  -1.099  0.00  0.00    -0.314 N 
ATOM     11  C   UNL     1       2.011  -6.377  -2.040  0.00  0.00    +0.107 C 
ATOM     12  C   UNL     1       0.553  -6.655  -2.421  0.00  0.00    +0.031 C 
ATOM     13  C   UNL     1      -0.270  -6.872  -1.149  0.00  0.00    +0.078 C 
ATOM     14  C   UNL     1      -0.229  -5.605  -0.291  0.00  0.00    +0.031 C 
ATOM     15  C   UNL     1       1.224  -5.317   0.117  0.00  0.00    +0.107 C 
ATOM     16  H   UNL     1       6.319  -0.789  -4.168  0.00  0.00    +0.171 HD
ENDROOT
BRANCH   1  20
ATOM     17  C   UNL     1       8.138  -5.559  -4.590  0.00  0.00    +0.000 A 
ATOM     18  C   UNL     1       8.374  -4.241  -4.934  0.00  0.00    +0.000 A 
ATOM     19  C   UNL     1       7.395  -3.288  -4.730  0.00  0.00    +0.007 A 
ATOM     20  C   UNL     1       6.179  -3.652  -4.182  0.00  0.00    -0.006 A 
ATOM     21  C   UNL     1       5.943  -4.970  -3.839  0.00  0.00    +0.007 A 
ATOM     22  C   UNL     1       6.923  -5.923  -4.042  0.00  0.00    +0.000 A 
ENDBRANCH   1  20
BRANCH  13  23
ATOM     23  C   UNL     1      -1.697  -7.180  -1.522  0.00  0.00    +0.219 C 
ATOM     24  O   UNL     1      -2.024  -7.223  -2.689  0.00  0.00    -0.275 OA
ATOM     25  N   UNL     1      -2.611  -7.409  -0.557  0.00  0.00    -0.278 N 
ATOM     26  H   UNL     1      -2.350  -7.375   0.376  0.00  0.00    +0.152 HD
BRANCH  25  27
ATOM     27  C   UNL     1      -3.998  -7.708  -0.919  0.00  0.00    +0.269 C 
ATOM     28  N   UNL     1      -4.702  -6.473  -1.286  0.00  0.00    -0.348 N 
ATOM     29  C   UNL     1      -5.693  -6.326  -0.455  0.00  0.00    +0.061 A 
ATOM     30  C   UNL     1      -6.737  -5.301  -0.316  0.00  0.00    +0.027 A 
ATOM     31  C   UNL     1      -7.654  -5.415   0.665  0.00  0.00    +0.002 A 
ATOM     32  C   UNL     1      -7.660  -6.486   1.576  0.00  0.00    +0.002 A 
ATOM     33  C   UNL     1      -6.749  -7.478   1.538  0.00  0.00    +0.027 A 
ATOM     34  C   UNL     1      -5.700  -7.460   0.509  0.00  0.00    +0.061 A 
ATOM     35  N   UNL     1      -4.712  -8.263   0.237  0.00  0.00    -0.348 N 
ATOM     36  H   UNL     1      -4.470  -5.875  -2.014  0.00  0.00    +0.163 HD
ATOM     37  H   UNL     1      -4.489  -9.079   0.712  0.00  0.00    +0.163 HD
ENDBRANCH  25  27
ENDBRANCH  13  23
TORSDOF 3
