REMARK  Name = ZINC24206552
REMARK  10 active torsions:
REMARK  status: ('A' for Active; 'I' for Inactive)
REMARK    1  A    between atoms: C_1  and  C_2
REMARK    2  A    between atoms: C_5  and  C_30
REMARK    3  A    between atoms: C_6  and  N_8
REMARK    4  A    between atoms: C_9  and  C_11
REMARK    5  A    between atoms: C_11  and  C_13
REMARK    6  A    between atoms: C_11  and  S_19
REMARK    7  A    between atoms: S_19  and  C_20
REMARK    8  A    between atoms: C_23  and  S_25
REMARK    9  A    between atoms: S_25  and  C_26
REMARK   10  A    between atoms: C_26  and  C_27
REMARK                            x       y       z     vdW  Elec       q    Type
REMARK                         _______ _______ _______ _____ _____    ______ ____
ROOT
ATOM      1  C   UNL     1       0.146   0.110  -4.878  0.00  0.00    +0.169 C 
ENDROOT
BRANCH   1   2
ATOM      2  C   UNL     1      -1.233   0.559  -5.287  0.00  0.00    -0.025 A 
ATOM      3  C   UNL     1      -2.224  -0.376  -5.521  0.00  0.00    +0.005 A 
ATOM      4  C   UNL     1      -3.490   0.036  -5.892  0.00  0.00    +0.000 A 
ATOM      5  C   UNL     1      -3.763   1.383  -6.039  0.00  0.00    +0.000 A 
ATOM      6  C   UNL     1      -2.771   2.318  -5.811  0.00  0.00    +0.000 A 
ATOM      7  C   UNL     1      -1.506   1.906  -5.436  0.00  0.00    +0.005 A 
ENDBRANCH   1   2
BRANCH   1   9
ATOM      8  N   UNL     1      -0.033   0.011  -2.413  0.00  0.00    -0.284 N 
ATOM      9  C   UNL     1       0.061  -0.653  -3.582  0.00  0.00    +0.235 C 
ATOM     10  O   UNL     1       0.078  -1.866  -3.590  0.00  0.00    -0.274 OA
ATOM     11  H   UNL     1      -0.139   1.106  -2.410  0.00  0.00    +0.155 HD
BRANCH   8  17
ATOM     12  C   UNL     1       1.335  -3.970   0.128  0.00  0.00    +0.044 C 
ATOM     13  C   UNL     1       0.661  -2.624   0.056  0.00  0.00    -0.049 A 
ATOM     14  C   UNL     1       0.074  -2.084   1.187  0.00  0.00    +0.004 A 
ATOM     15  C   UNL     1      -0.545  -0.849   1.125  0.00  0.00    +0.005 A 
ATOM     16  C   UNL     1      -0.579  -0.151  -0.066  0.00  0.00    -0.029 A 
ATOM     17  C   UNL     1       0.005  -0.692  -1.203  0.00  0.00    +0.037 A 
ATOM     18  C   UNL     1       0.631  -1.930  -1.137  0.00  0.00    +0.027 A 
ATOM     19  C   UNL     1      -1.255   1.195  -0.132  0.00  0.00    +0.045 C 
ENDBRANCH   8  17
ENDBRANCH   1   9
BRANCH   1  20
ATOM     20  S   UNL     1       0.841  -0.961  -6.167  0.00  0.00    -0.079 S 
BRANCH  20  21
ATOM     21  C   UNL     1       1.012   0.104  -7.560  0.00  0.00    +0.160 A 
ATOM     22  N   UNL     1       0.710   1.383  -7.676  0.00  0.00    -0.134 NA
ATOM     23  N   UNL     1       0.930   2.033  -8.869  0.00  0.00    -0.134 NA
ATOM     24  C   UNL     1       1.433   1.371  -9.893  0.00  0.00    +0.160 A 
ATOM     25  S   UNL     1       1.634  -0.261  -9.194  0.00  0.00    -0.033 S 
BRANCH  24  26
ATOM     26  S   UNL     1       1.807   1.943 -11.518  0.00  0.00    -0.088 S 
BRANCH  26  27
ATOM     27  C   UNL     1       1.338   3.695 -11.484  0.00  0.00    +0.171 C 
BRANCH  27  28
ATOM     28  C   UNL     1       1.611   4.314 -12.831  0.00  0.00    +0.221 C 
ATOM     29  O   UNL     1       2.075   3.639 -13.726  0.00  0.00    -0.275 OA
ATOM     30  N   UNL     1       1.338   5.617 -13.042  0.00  0.00    -0.329 N 
ATOM     31  H   UNL     1       1.537   6.068 -14.025  0.00  0.00    +0.145 HD
ATOM     32  H   UNL     1       0.917   6.229 -12.230  0.00  0.00    +0.145 HD
ENDBRANCH  27  28
ENDBRANCH  26  27
ENDBRANCH  24  26
ENDBRANCH  20  21
ENDBRANCH   1  20
TORSDOF 8
