REMARK  Name = ZINC00662648
REMARK  7 active torsions:
REMARK  status: ('A' for Active; 'I' for Inactive)
REMARK    1  A    between atoms: C_1  and  O_2
REMARK    2  A    between atoms: O_2  and  C_3
REMARK    3  A    between atoms: C_5  and  N_12
REMARK    4  A    between atoms: C_7  and  N_9
REMARK    5  A    between atoms: C_13  and  C_15
REMARK    6  A    between atoms: C_20  and  C_33
REMARK    7  A    between atoms: C_23  and  C_26
REMARK                            x       y       z     vdW  Elec       q    Type
REMARK                         _______ _______ _______ _____ _____    ______ ____
ROOT
ATOM      1  C   UNL     1       1.185  -2.134  -0.234  0.00  0.00    +0.149 A 
ATOM      2  C   UNL     1       2.334  -2.946  -0.361  0.00  0.00    +0.078 A 
ATOM      3  C   UNL     1       1.920  -4.226  -0.443  0.00  0.00    +0.119 A 
ATOM      4  N   UNL     1       0.556  -4.238  -0.368  0.00  0.00    -0.238 N 
ATOM      5  N   UNL     1       0.122  -2.920  -0.234  0.00  0.00    -0.164 NA
ATOM      6  C   UNL     1      -0.250  -5.461  -0.419  0.00  0.00    +0.215 C 
ATOM      7  C   UNL     1       0.644  -6.660  -0.082  0.00  0.00    +0.063 C 
ATOM      8  C   UNL     1       1.919  -6.615  -0.932  0.00  0.00    +0.104 C 
ATOM      9  N   UNL     1       2.674  -5.395  -0.583  0.00  0.00    -0.322 N 
ATOM     10  H   UNL     1       3.635  -5.404  -0.458  0.00  0.00    +0.148 HD
ENDROOT
BRANCH   8  11
ATOM     11  C   UNL     1       1.552  -6.582  -2.393  0.00  0.00    -0.027 A 
ATOM     12  C   UNL     1       1.156  -5.395  -2.980  0.00  0.00    +0.006 A 
ATOM     13  C   UNL     1       0.824  -5.364  -4.321  0.00  0.00    +0.015 A 
ATOM     14  C   UNL     1       0.878  -6.523  -5.074  0.00  0.00    +0.018 A 
ATOM     15  C   UNL     1       1.268  -7.712  -4.485  0.00  0.00    +0.015 A 
ATOM     16  C   UNL     1       1.605  -7.741  -3.145  0.00  0.00    +0.006 A 
ATOM     17 BR   UNL     1       0.416  -6.482  -6.907  0.00  0.00    -0.050 Br
ENDBRANCH   8  11
BRANCH   1  19
ATOM     18  N   UNL     1       0.002  -0.004   0.002  0.00  0.00    -0.280 N 
ATOM     19  C   UNL     1       1.173  -0.661  -0.114  0.00  0.00    +0.268 C 
ATOM     20  O   UNL     1       2.219  -0.043  -0.121  0.00  0.00    -0.268 OA
ATOM     21  H   UNL     1      -0.828  -0.501   0.075  0.00  0.00    +0.155 HD
BRANCH  18  24
ATOM     22  C   UNL     1       0.997   3.482   0.633  0.00  0.00    +0.124 A 
ATOM     23  C   UNL     1       1.015   2.096   0.626  0.00  0.00    +0.069 A 
ATOM     24  C   UNL     1      -0.016   1.394   0.018  0.00  0.00    +0.039 A 
ATOM     25  C   UNL     1      -1.070   2.083  -0.571  0.00  0.00    +0.056 A 
ATOM     26  C   UNL     1      -1.088   3.464  -0.556  0.00  0.00    +0.131 A 
ATOM     27  C   UNL     1      -0.058   4.164   0.044  0.00  0.00    +0.078 A 
BRANCH  26  28
ATOM     28  N   UNL     1      -2.211   4.195  -1.183  0.00  0.00    +0.057 N 
ATOM     29  O   UNL     1      -3.119   3.579  -1.713  0.00  0.00    -0.126 OA
ATOM     30  O   UNL     1      -2.228   5.413  -1.171  0.00  0.00    -0.126 OA
ENDBRANCH  26  28
BRANCH  22  32
ATOM     31  C   UNL     1       1.920   5.598   1.199  0.00  0.00    +0.277 C 
ATOM     32  O   UNL     1       2.008   4.172   1.223  0.00  0.00    -0.495 OA
ENDBRANCH  22  32
ENDBRANCH  18  24
ENDBRANCH   1  19
BRANCH   6  33
ATOM     33  C   UNL     1      -1.388  -5.368   0.600  0.00  0.00    +0.412 C 
ATOM     34  F   UNL     1      -2.195  -4.266   0.298  0.00  0.00    -0.168 F 
ATOM     35  F   UNL     1      -2.156  -6.536   0.550  0.00  0.00    -0.168 F 
ATOM     36  F   UNL     1      -0.852  -5.216   1.883  0.00  0.00    -0.168 F 
ENDBRANCH   6  33
TORSDOF 6
