REMARK  Name = ZINC08583545
REMARK  13 active torsions:
REMARK  status: ('A' for Active; 'I' for Inactive)
REMARK    1  A    between atoms: C_1  and  C_2
REMARK    2  A    between atoms: C_2  and  C_3
REMARK    3  A    between atoms: C_3  and  C_4
REMARK    4  A    between atoms: C_4  and  N_5
REMARK    5  A    between atoms: N_5  and  C_6
REMARK    6  A    between atoms: N_5  and  C_7
REMARK    7  A    between atoms: C_7  and  C_8
REMARK    8  A    between atoms: C_8  and  N_9
REMARK    9  A    between atoms: C_10  and  C_12
REMARK   10  A    between atoms: C_14  and  C_32
REMARK   11  A    between atoms: C_19  and  S_22
REMARK   12  A    between atoms: S_22  and  N_25
REMARK   13  A    between atoms: C_28  and  C_31
REMARK                            x       y       z     vdW  Elec       q    Type
REMARK                         _______ _______ _______ _____ _____    ______ ____
ROOT
ATOM      1  C   UNL     1      -5.333  -8.166  -0.602  0.00  0.00    +0.048 A 
ATOM      2  C   UNL     1      -4.138  -8.861  -0.705  0.00  0.00    +0.042 A 
ATOM      3  C   UNL     1      -4.159 -10.259  -0.826  0.00  0.00    +0.074 A 
ATOM      4  N   UNL     1      -5.292 -10.933  -0.846  0.00  0.00    -0.247 NA
ATOM      5  C   UNL     1      -6.474 -10.323  -0.751  0.00  0.00    +0.072 A 
ATOM      6  C   UNL     1      -6.539  -8.913  -0.619  0.00  0.00    +0.014 A 
ATOM      7  C   UNL     1      -7.786  -8.283  -0.515  0.00  0.00    +0.039 A 
ATOM      8  C   UNL     1      -8.924  -9.032  -0.535  0.00  0.00    +0.106 A 
ATOM      9  C   UNL     1      -8.865 -10.418  -0.659  0.00  0.00    +0.030 A 
ATOM     10  C   UNL     1      -7.672 -11.062  -0.774  0.00  0.00    +0.030 A 
ENDROOT
BRANCH   3  11
ATOM     11  C   UNL     1      -2.877 -10.995  -0.936  0.00  0.00    +0.018 A 
ATOM     12  C   UNL     1      -2.867 -12.374  -1.168  0.00  0.00    +0.013 A 
ATOM     13  C   UNL     1      -1.644 -13.015  -1.263  0.00  0.00    +0.020 A 
ATOM     14  C   UNL     1      -0.481 -12.278  -1.125  0.00  0.00    +0.111 A 
ATOM     15  N   UNL     1      -0.522 -10.978  -0.907  0.00  0.00    -0.263 NA
ATOM     16  C   UNL     1      -1.662 -10.324  -0.815  0.00  0.00    +0.120 A 
ENDBRANCH   3  11
BRANCH   1  18
ATOM     17  N   UNL     1      -4.193  -6.015  -0.333  0.00  0.00    -0.313 N 
ATOM     18  C   UNL     1      -5.350  -6.693  -0.472  0.00  0.00    +0.245 C 
ATOM     19  O   UNL     1      -6.407  -6.093  -0.491  0.00  0.00    -0.270 OA
ATOM     20  H   UNL     1      -3.349  -6.494  -0.318  0.00  0.00    +0.149 HD
BRANCH  17  21
ATOM     21  C   UNL     1      -4.210  -4.556  -0.205  0.00  0.00    +0.086 C 
BRANCH  21  22
ATOM     22  C   UNL     1      -2.777  -4.040  -0.061  0.00  0.00    -0.060 C 
BRANCH  22  23
ATOM     23  N   UNL     1      -2.794  -2.577   0.068  0.00  0.00    +0.379 N 
ATOM     24  C   UNL     1      -3.469  -2.203   1.318  0.00  0.00    -0.096 C 
ATOM     25  H   UNL     1      -3.289  -2.176  -0.714  0.00  0.00    -0.082 HD
BRANCH  23  26
ATOM     26  C   UNL     1      -1.415  -2.071   0.086  0.00  0.00    -0.079 C 
BRANCH  26  27
ATOM     27  C   UNL     1      -1.433  -0.541   0.094  0.00  0.00    -0.019 C 
BRANCH  27  29
ATOM     28  C   UNL     1      -0.015   1.516   0.121  0.00  0.00    +0.004 C 
ATOM     29  C   UNL     1       0.003  -0.014   0.113  0.00  0.00    -0.005 C 
ENDBRANCH  27  29
ENDBRANCH  26  27
ENDBRANCH  23  26
ENDBRANCH  22  23
ENDBRANCH  21  22
ENDBRANCH  17  21
ENDBRANCH   1  18
BRANCH   8  30
ATOM     30  S   UNL     1     -10.491  -8.236  -0.403  0.00  0.00    +0.061 S 
ATOM     31  O   UNL     1     -11.398  -9.207   0.101  0.00  0.00    -0.153 OA
ATOM     32  O   UNL     1     -10.262  -6.995   0.250  0.00  0.00    -0.153 OA
BRANCH  30  33
ATOM     33  N   UNL     1     -10.989  -7.877  -1.941  0.00  0.00    -0.177 NA
ATOM     34  C   UNL     1     -10.632  -6.594  -2.563  0.00  0.00    +0.110 C 
ATOM     35  C   UNL     1     -11.912  -5.913  -3.058  0.00  0.00    +0.020 C 
ATOM     36  C   UNL     1     -12.670  -6.870  -3.981  0.00  0.00    -0.012 C 
ATOM     37  C   UNL     1     -13.062  -8.128  -3.203  0.00  0.00    +0.020 C 
ATOM     38  C   UNL     1     -11.790  -8.837  -2.712  0.00  0.00    +0.110 C 
ATOM     39  C   UNL     1     -13.931  -6.181  -4.505  0.00  0.00    +0.007 C 
ENDBRANCH  30  33
ENDBRANCH   8  30
TORSDOF 10
