REMARK  Name = ZINC36578853
REMARK  14 active torsions:
REMARK  status: ('A' for Active; 'I' for Inactive)
REMARK    1  A    between atoms: C_1  and  C_2
REMARK    2  A    between atoms: C_2  and  C_3
REMARK    3  A    between atoms: C_3  and  C_4
REMARK    4  A    between atoms: C_4  and  C_5
REMARK    5  A    between atoms: N_7  and  C_8
REMARK    6  A    between atoms: N_7  and  C_11
REMARK    7  A    between atoms: C_8  and  C_9
REMARK    8  A    between atoms: C_9  and  C_10
REMARK    9  A    between atoms: C_11  and  C_13
REMARK   10  A    between atoms: C_11  and  C_22
REMARK   11  A    between atoms: C_14  and  O_21
REMARK   12  A    between atoms: C_16  and  O_20
REMARK   13  A    between atoms: C_18  and  O_19
REMARK   14  A    between atoms: N_24  and  C_25
REMARK                            x       y       z     vdW  Elec       q    Type
REMARK                         _______ _______ _______ _____ _____    ______ ____
ROOT
ATOM      1  C   UNL     1       2.390  -4.626  -3.708  0.00  0.00    +0.199 C 
ENDROOT
BRANCH   1   2
ATOM      2  C   UNL     1       3.413  -5.543  -3.087  0.00  0.00    +0.065 A 
ATOM      3  C   UNL     1       3.065  -6.339  -2.007  0.00  0.00    +0.129 A 
ATOM      4  C   UNL     1       4.006  -7.183  -1.436  0.00  0.00    +0.091 A 
ATOM      5  C   UNL     1       5.295  -7.231  -1.946  0.00  0.00    +0.124 A 
ATOM      6  C   UNL     1       5.642  -6.435  -3.028  0.00  0.00    +0.091 A 
ATOM      7  C   UNL     1       4.700  -5.594  -3.601  0.00  0.00    +0.129 A 
BRANCH   7   8
ATOM      8  O   UNL     1       5.039  -4.818  -4.664  0.00  0.00    -0.506 OA
ATOM      9  H   UNL     1       5.383  -3.948  -4.421  0.00  0.00    +0.292 HD
ENDBRANCH   7   8
BRANCH   5  10
ATOM     10  O   UNL     1       6.217  -8.057  -1.387  0.00  0.00    -0.507 OA
ATOM     11  H   UNL     1       6.242  -8.941  -1.777  0.00  0.00    +0.292 HD
ENDBRANCH   5  10
BRANCH   3  12
ATOM     12  O   UNL     1       1.803  -6.292  -1.506  0.00  0.00    -0.506 OA
ATOM     13  H   UNL     1       1.216  -6.977  -1.855  0.00  0.00    +0.292 HD
ENDBRANCH   3  12
ENDBRANCH   1   2
BRANCH   1  14
ATOM     14  C   UNL     1       1.409  -5.439  -4.512  0.00  0.00    +0.239 C 
ATOM     15  O   UNL     1       0.217  -5.284  -4.349  0.00  0.00    -0.273 OA
ATOM     16  N   UNL     1       1.855  -6.338  -5.411  0.00  0.00    -0.311 N 
ATOM     17  H   UNL     1       2.809  -6.462  -5.541  0.00  0.00    +0.149 HD
BRANCH  16  18
ATOM     18  C   UNL     1       0.901  -7.128  -6.193  0.00  0.00    +0.073 C 
ATOM     19  C   UNL     1       0.480  -8.360  -5.389  0.00  0.00    +0.022 C 
ATOM     20  C   UNL     1      -0.516  -9.186  -6.205  0.00  0.00    +0.002 C 
ATOM     21  C   UNL     1       0.141  -9.630  -7.514  0.00  0.00    +0.000 C 
ATOM     22  C   UNL     1       0.561  -8.398  -8.317  0.00  0.00    +0.002 C 
ATOM     23  C   UNL     1       1.558  -7.573  -7.501  0.00  0.00    +0.022 C 
ENDBRANCH  16  18
ENDBRANCH   1  14
BRANCH   1  26
ATOM     24  C   UNL     1       2.254  -2.845  -2.051  0.00  0.00    +0.216 C 
ATOM     25  O   UNL     1       3.364  -2.488  -2.385  0.00  0.00    -0.276 OA
ATOM     26  N   UNL     1       1.677  -3.904  -2.651  0.00  0.00    -0.286 N 
BRANCH  24  27
ATOM     27  C   UNL     1       1.520  -2.102  -0.964  0.00  0.00    +0.096 C 
BRANCH  27  28
ATOM     28  C   UNL     1       2.391  -0.952  -0.455  0.00  0.00    +0.009 C 
BRANCH  28  30
ATOM     29  C   UNL     1       2.516   0.953   1.158  0.00  0.00    +0.004 C 
ATOM     30  C   UNL     1       1.646  -0.198   0.649  0.00  0.00    -0.003 C 
ENDBRANCH  28  30
ENDBRANCH  27  28
ENDBRANCH  24  27
BRANCH  26  31
ATOM     31  C   UNL     1       0.336  -4.335  -2.247  0.00  0.00    +0.108 C 
BRANCH  31  32
ATOM     32  C   UNL     1      -0.711  -3.459  -2.939  0.00  0.00    +0.016 C 
ATOM     33  C   UNL     1      -2.111  -3.900  -2.507  0.00  0.00    +0.005 C 
ENDBRANCH  31  32
ENDBRANCH  26  31
ENDBRANCH   1  26
TORSDOF 12
