REMARK  Name = ZINC10412893
REMARK  11 active torsions:
REMARK  status: ('A' for Active; 'I' for Inactive)
REMARK    1  A    between atoms: C_1  and  C_2
REMARK    2  A    between atoms: C_3  and  C_35
REMARK    3  A    between atoms: N_4  and  C_29
REMARK    4  A    between atoms: C_5  and  N_9
REMARK    5  A    between atoms: C_6  and  C_7
REMARK    6  A    between atoms: C_10  and  C_12
REMARK    7  A    between atoms: C_12  and  S_13
REMARK    8  A    between atoms: S_13  and  C_14
REMARK    9  A    between atoms: C_17  and  C_26
REMARK   10  A    between atoms: N_18  and  C_19
REMARK   11  A    between atoms: C_19  and  C_20
REMARK                            x       y       z     vdW  Elec       q    Type
REMARK                         _______ _______ _______ _____ _____    ______ ____
ROOT
ATOM      1  N   UNL     1      -7.008  -3.398  -4.794  0.00  0.00    -0.270 N 
ATOM      2  C   UNL     1      -6.665  -2.104  -4.634  0.00  0.00    +0.229 C 
ATOM      3  O   UNL     1      -6.991  -1.284  -5.466  0.00  0.00    -0.275 OA
ATOM      4  H   UNL     1      -6.684  -4.066  -4.169  0.00  0.00    +0.156 HD
ENDROOT
BRANCH   1   9
ATOM      5  C   UNL     1     -10.951  -4.920  -7.564  0.00  0.00    +0.047 C 
ATOM      6  C   UNL     1      -9.583  -4.460  -7.131  0.00  0.00    -0.010 A 
ATOM      7  C   UNL     1      -8.521  -4.247  -7.924  0.00  0.00    +0.027 A 
ATOM      8  N   UNL     1      -7.460  -3.834  -7.160  0.00  0.00    -0.300 N 
ATOM      9  C   UNL     1      -7.823  -3.774  -5.851  0.00  0.00    +0.128 A 
ATOM     10  C   UNL     1      -9.152  -4.162  -5.759  0.00  0.00    +0.095 A 
ATOM     11  C   UNL     1      -8.499  -4.432  -9.420  0.00  0.00    +0.064 C 
BRANCH   8  12
ATOM     12  C   UNL     1      -6.187  -3.522  -7.656  0.00  0.00    +0.048 A 
ATOM     13  C   UNL     1      -6.011  -2.413  -8.472  0.00  0.00    +0.026 A 
ATOM     14  C   UNL     1      -4.755  -2.104  -8.956  0.00  0.00    +0.002 A 
ATOM     15  C   UNL     1      -3.674  -2.905  -8.636  0.00  0.00    +0.000 A 
ATOM     16  C   UNL     1      -3.846  -4.013  -7.827  0.00  0.00    +0.002 A 
ATOM     17  C   UNL     1      -5.099  -4.324  -7.336  0.00  0.00    +0.026 A 
ENDBRANCH   8  12
BRANCH  10  18
ATOM     18  C   UNL     1      -9.944  -4.251  -4.569  0.00  0.00    +0.103 C 
ATOM     19  N   UNL     1     -10.572  -4.321  -3.625  0.00  0.00    -0.191 NA
ENDBRANCH  10  18
ENDBRANCH   1   9
BRANCH   2  20
ATOM     20  C   UNL     1      -5.877  -1.677  -3.423  0.00  0.00    +0.173 C 
BRANCH  20  21
ATOM     21  S   UNL     1      -5.576   0.106  -3.497  0.00  0.00    -0.077 S 
BRANCH  21  22
ATOM     22  C   UNL     1      -4.664   0.325  -2.005  0.00  0.00    +0.192 A 
ATOM     23  N   UNL     1      -4.343  -0.611  -1.142  0.00  0.00    -0.122 NA
ATOM     24  N   UNL     1      -3.672  -0.099  -0.172  0.00  0.00    -0.133 NA
ATOM     25  C   UNL     1      -3.536   1.184  -0.351  0.00  0.00    +0.137 A 
ATOM     26  N   UNL     1      -4.159   1.500  -1.527  0.00  0.00    -0.301 N 
BRANCH  25  27
ATOM     27  C   UNL     1      -2.817   2.142   0.564  0.00  0.00    +0.057 C 
ATOM     28  C   UNL     1      -1.333   1.886   0.831  0.00  0.00    +0.012 C 
ATOM     29  C   UNL     1      -2.364   1.613   1.927  0.00  0.00    +0.012 C 
ENDBRANCH  25  27
BRANCH  26  30
ATOM     30  C   UNL     1      -4.263   2.824  -2.145  0.00  0.00    +0.160 C 
BRANCH  30  31
ATOM     31  C   UNL     1      -3.088   3.044  -3.062  0.00  0.00    -0.028 A 
ATOM     32  C   UNL     1      -1.930   3.622  -2.576  0.00  0.00    +0.005 A 
ATOM     33  C   UNL     1      -0.850   3.819  -3.417  0.00  0.00    +0.000 A 
ATOM     34  C   UNL     1      -0.932   3.447  -4.746  0.00  0.00    +0.000 A 
ATOM     35  C   UNL     1      -2.091   2.873  -5.233  0.00  0.00    +0.000 A 
ATOM     36  C   UNL     1      -3.169   2.672  -4.391  0.00  0.00    +0.005 A 
ENDBRANCH  30  31
ENDBRANCH  26  30
ENDBRANCH  21  22
ENDBRANCH  20  21
ENDBRANCH   2  20
TORSDOF 9
