REMARK  Name = ZINC03387657
REMARK  9 active torsions:
REMARK  status: ('A' for Active; 'I' for Inactive)
REMARK    1  A    between atoms: C_1  and  N_60
REMARK    2  A    between atoms: C_2  and  C_3
REMARK    3  A    between atoms: C_2  and  N_60
REMARK    4  A    between atoms: C_6  and  O_9
REMARK    5  A    between atoms: O_9  and  C_10
REMARK    6  A    between atoms: C_13  and  N_14
REMARK    7  A    between atoms: C_13  and  N_60
REMARK    8  A    between atoms: N_17  and  C_31
REMARK    9  A    between atoms: C_18  and  C_20
REMARK                            x       y       z     vdW  Elec       q    Type
REMARK                         _______ _______ _______ _____ _____    ______ ____
ROOT
ATOM      1  N   UNL     1       7.421  -1.898  -1.204  0.00  0.00    -0.257 N 
ATOM      2  C   UNL     1       7.988  -1.614  -0.013  0.00  0.00    +0.181 A 
ATOM      3  S   UNL     1       9.541  -2.106   0.513  0.00  0.00    -0.011 S 
ATOM      4  N   UNL     1       7.109  -0.867   0.684  0.00  0.00    -0.272 N 
ATOM      5  C   UNL     1       5.982  -0.695  -0.085  0.00  0.00    +0.181 A 
ATOM      6  N   UNL     1       6.153  -1.301  -1.216  0.00  0.00    -0.153 NA
ENDROOT
BRANCH   5   7
ATOM      7  C   UNL     1       4.753   0.077   0.319  0.00  0.00    +0.278 C 
ATOM      8  C   UNL     1       4.726   1.427  -0.412  0.00  0.00    +0.281 C 
ATOM      9  O   UNL     1       3.542   2.127  -0.016  0.00  0.00    -0.484 OA
ATOM     10  C   UNL     1       2.382   1.415  -0.014  0.00  0.00    +0.162 A 
ATOM     11  C   UNL     1       1.169   2.088   0.002  0.00  0.00    +0.049 A 
ATOM     12  C   UNL     1      -0.017   1.378   0.010  0.00  0.00    +0.004 A 
ATOM     13  C   UNL     1       0.002  -0.004   0.002  0.00  0.00    +0.004 A 
ATOM     14  C   UNL     1       1.207  -0.681  -0.014  0.00  0.00    +0.049 A 
ATOM     15  C   UNL     1       2.401   0.025  -0.024  0.00  0.00    +0.163 A 
ATOM     16  O   UNL     1       3.579  -0.655  -0.048  0.00  0.00    -0.474 OA
ENDBRANCH   5   7
BRANCH   4  17
ATOM     17  C   UNL     1       7.308  -0.355   1.974  0.00  0.00    +0.050 A 
ATOM     18  C   UNL     1       7.380   1.017   2.174  0.00  0.00    +0.026 A 
ATOM     19  C   UNL     1       7.570   1.518   3.447  0.00  0.00    +0.002 A 
ATOM     20  C   UNL     1       7.700   0.655   4.519  0.00  0.00    +0.000 A 
ATOM     21  C   UNL     1       7.635  -0.712   4.322  0.00  0.00    +0.002 A 
ATOM     22  C   UNL     1       7.439  -1.219   3.052  0.00  0.00    +0.026 A 
ENDBRANCH   4  17
BRANCH   1  23
ATOM     23  C   UNL     1       8.021  -2.684  -2.285  0.00  0.00    +0.072 C 
BRANCH  23  25
ATOM     24  C   UNL     1       7.866  -0.870  -3.881  0.00  0.00    -0.093 C 
ATOM     25  N   UNL     1       8.787  -1.778  -3.166  0.00  0.00    +0.394 N 
ATOM     26  H   UNL     1       9.428  -1.218  -2.592  0.00  0.00    -0.079 HD
BRANCH  25  27
ATOM     27  C   UNL     1       9.576  -2.565  -4.137  0.00  0.00    -0.041 C 
BRANCH  27  28
ATOM     28  C   UNL     1      10.509  -1.637  -4.871  0.00  0.00    -0.064 A 
ATOM     29  C   UNL     1      10.105  -1.044  -6.053  0.00  0.00    +0.005 A 
ATOM     30  C   UNL     1      10.957  -0.189  -6.724  0.00  0.00    +0.046 A 
ATOM     31  C   UNL     1      12.223   0.066  -6.218  0.00  0.00    +0.127 A 
ATOM     32  C   UNL     1      12.628  -0.534  -5.035  0.00  0.00    +0.046 A 
ATOM     33  C   UNL     1      11.771  -1.384  -4.364  0.00  0.00    +0.005 A 
BRANCH  31  34
ATOM     34  O   UNL     1      13.065   0.902  -6.880  0.00  0.00    -0.434 OA
BRANCH  34  35
ATOM     35  C   UNL     1      12.581   1.485  -8.092  0.00  0.00    +0.541 C 
ATOM     36  F   UNL     1      12.265   0.471  -9.003  0.00  0.00    -0.166 F 
ATOM     37  F   UNL     1      11.436   2.242  -7.821  0.00  0.00    -0.166 F 
ENDBRANCH  34  35
ENDBRANCH  31  34
ENDBRANCH  27  28
ENDBRANCH  25  27
ENDBRANCH  23  25
ENDBRANCH   1  23
TORSDOF 8
