REMARK  Name = ZINC09165012
REMARK  4 active torsions:
REMARK  status: ('A' for Active; 'I' for Inactive)
REMARK    1  A    between atoms: N_14  and  C_15
REMARK    2  A    between atoms: C_15  and  C_16
REMARK    3  A    between atoms: N_18  and  C_19
REMARK    4  A    between atoms: C_22  and  C_25
REMARK                            x       y       z     vdW  Elec       q    Type
REMARK                         _______ _______ _______ _____ _____    ______ ____
ROOT
ATOM      1  C   UNL     1      -0.023   1.369  -0.012  0.00  0.00    +0.002 A 
ATOM      2  C   UNL     1       1.159   2.087  -0.024  0.00  0.00    +0.002 A 
ATOM      3  C   UNL     1       2.375   1.425  -0.032  0.00  0.00    +0.025 A 
ATOM      4  C   UNL     1       2.403   0.042  -0.028  0.00  0.00    +0.059 A 
ATOM      5  C   UNL     1       1.212  -0.684  -0.020  0.00  0.00    +0.055 A 
ATOM      6  C   UNL     1      -0.001  -0.014  -0.010  0.00  0.00    +0.025 A 
ATOM      7  N   UNL     1       1.256  -2.083  -0.029  0.00  0.00    -0.283 N 
ATOM      8  C   UNL     1       2.402  -2.737   0.241  0.00  0.00    +0.235 C 
ATOM      9  O   UNL     1       2.428  -3.948   0.186  0.00  0.00    -0.274 OA
ATOM     10  C   UNL     1       3.653  -1.981   0.611  0.00  0.00    +0.211 C 
ATOM     11  N   UNL     1       3.620  -0.658  -0.029  0.00  0.00    -0.245 N 
ATOM     12  C   UNL     1       4.723  -0.134  -0.600  0.00  0.00    +0.307 C 
ATOM     13  O   UNL     1       4.675   0.962  -1.124  0.00  0.00    -0.252 OA
ATOM     14  N   UNL     1       5.881  -0.825  -0.588  0.00  0.00    -0.290 N 
ATOM     15  H   UNL     1       0.453  -2.587  -0.231  0.00  0.00    +0.155 HD
ATOM     16  H   UNL     1       5.919  -1.699  -0.170  0.00  0.00    +0.151 HD
ENDROOT
BRANCH  14  17
ATOM     17  C   UNL     1       7.080  -0.256  -1.208  0.00  0.00    +0.202 C 
BRANCH  17  18
ATOM     18  C   UNL     1       8.228  -1.220  -1.060  0.00  0.00    +0.234 C 
ATOM     19  O   UNL     1       8.061  -2.279  -0.492  0.00  0.00    -0.274 OA
ATOM     20  N   UNL     1       9.441  -0.906  -1.558  0.00  0.00    -0.284 N 
ATOM     21  H   UNL     1       9.558  -0.091  -2.070  0.00  0.00    +0.155 HD
BRANCH  20  22
ATOM     22  C   UNL     1      10.529  -1.757  -1.337  0.00  0.00    +0.033 A 
ATOM     23  C   UNL     1      11.799  -1.227  -1.149  0.00  0.00    +0.024 A 
ATOM     24  C   UNL     1      12.872  -2.069  -0.931  0.00  0.00    +0.014 A 
ATOM     25  C   UNL     1      12.682  -3.438  -0.899  0.00  0.00    +0.055 A 
ATOM     26  C   UNL     1      11.419  -3.969  -1.085  0.00  0.00    +0.014 A 
ATOM     27  C   UNL     1      10.341  -3.132  -1.298  0.00  0.00    +0.024 A 
BRANCH  25  28
ATOM     28  C   UNL     1      13.855  -4.354  -0.661  0.00  0.00    +0.417 C 
ATOM     29  F   UNL     1      14.002  -4.577   0.713  0.00  0.00    -0.166 F 
ATOM     30  F   UNL     1      13.634  -5.574  -1.310  0.00  0.00    -0.166 F 
ATOM     31  F   UNL     1      15.019  -3.763  -1.164  0.00  0.00    -0.166 F 
ENDBRANCH  25  28
ENDBRANCH  20  22
ENDBRANCH  17  18
ENDBRANCH  14  17
TORSDOF 4
