REMARK  Name = ZINC39857335
REMARK  3 active torsions:
REMARK  status: ('A' for Active; 'I' for Inactive)
REMARK    1  A    between atoms: C_1  and  C_2
REMARK    2  A    between atoms: C_2  and  C_3
REMARK    3  A    between atoms: C_6  and  N_9
REMARK                            x       y       z     vdW  Elec       q    Type
REMARK                         _______ _______ _______ _____ _____    ______ ____
ROOT
ATOM      1  N   UNL     1       2.662  -1.793  -4.682  0.00  0.00    -0.197 N 
ATOM      2  C   UNL     1       3.981  -1.891  -4.678  0.00  0.00    +0.265 C 
ATOM      3  O   UNL     1       4.646  -1.557  -3.717  0.00  0.00    -0.269 OA
ATOM      4  C   UNL     1       4.606  -2.431  -5.916  0.00  0.00    +0.092 C 
ATOM      5  C   UNL     1       5.937  -2.648  -6.207  0.00  0.00    +0.065 C 
ATOM      6  C   UNL     1       7.088  -2.549  -5.285  0.00  0.00    +0.010 A 
ATOM      7  C   UNL     1       7.202  -2.231  -3.934  0.00  0.00    +0.010 A 
ATOM      8  C   UNL     1       8.446  -2.221  -3.337  0.00  0.00    +0.001 A 
ATOM      9  C   UNL     1       9.575  -2.526  -4.079  0.00  0.00    +0.002 A 
ATOM     10  C   UNL     1       9.473  -2.841  -5.419  0.00  0.00    +0.024 A 
ATOM     11  C   UNL     1       8.229  -2.858  -6.040  0.00  0.00    +0.042 A 
ATOM     12  N   UNL     1       7.853  -3.137  -7.349  0.00  0.00    -0.281 N 
ATOM     13  C   UNL     1       6.522  -3.037  -7.508  0.00  0.00    +0.250 C 
ATOM     14  O   UNL     1       5.908  -3.229  -8.541  0.00  0.00    -0.270 OA
ATOM     15  S   UNL     1       3.157  -2.724  -6.921  0.00  0.00    -0.025 S 
ATOM     16  C   UNL     1       1.929  -2.170  -5.749  0.00  0.00    +0.290 C 
ATOM     17  O   UNL     1       0.721  -2.138  -5.882  0.00  0.00    -0.262 OA
ATOM     18  H   UNL     1       8.472  -3.377  -8.056  0.00  0.00    +0.155 HD
ENDROOT
BRANCH   1  22
ATOM     19  C   UNL     1       0.724  -0.303  -1.307  0.00  0.00    -0.048 A 
ATOM     20  C   UNL     1       0.581  -1.634  -1.653  0.00  0.00    +0.005 A 
ATOM     21  C   UNL     1       1.222  -2.131  -2.771  0.00  0.00    +0.024 A 
ATOM     22  C   UNL     1       2.010  -1.292  -3.547  0.00  0.00    +0.045 A 
ATOM     23  C   UNL     1       2.151   0.044  -3.197  0.00  0.00    +0.024 A 
ATOM     24  C   UNL     1       1.504   0.536  -2.081  0.00  0.00    +0.005 A 
BRANCH  19  26
ATOM     25  C   UNL     1      -1.366   0.745  -0.479  0.00  0.00    +0.009 C 
ATOM     26  C   UNL     1       0.023   0.236  -0.086  0.00  0.00    +0.032 C 
ENDBRANCH  19  26
ENDBRANCH   1  22
TORSDOF 2
