REMARK  Name = ZINC39656105
REMARK  6 active torsions:
REMARK  status: ('A' for Active; 'I' for Inactive)
REMARK    1  A    between atoms: C_1  and  C_2
REMARK    2  A    between atoms: C_8  and  C_11
REMARK    3  A    between atoms: C_11  and  C_12
REMARK    4  A    between atoms: C_12  and  N_13
REMARK    5  A    between atoms: C_14  and  C_16
REMARK    6  A    between atoms: C_27  and  C_29
REMARK                            x       y       z     vdW  Elec       q    Type
REMARK                         _______ _______ _______ _____ _____    ______ ____
ROOT
ATOM      1  C   UNL     1       4.514  -0.128  -7.573  0.00  0.00    +0.100 C 
ATOM      2  C   UNL     1       4.682   0.733  -8.845  0.00  0.00    +0.121 C 
ATOM      3  N   UNL     1       5.597  -0.050  -9.709  0.00  0.00    -0.297 N 
ATOM      4  C   UNL     1       5.165  -1.456  -9.525  0.00  0.00    +0.115 C 
ATOM      5  C   UNL     1       4.832  -1.564  -8.023  0.00  0.00    -0.004 C 
ATOM      6  C   UNL     1       3.616  -2.463  -7.817  0.00  0.00    -0.010 C 
ATOM      7  C   UNL     1       3.974  -3.898  -8.217  0.00  0.00    -0.082 C 
ATOM      8  N   UNL     1       5.101  -4.368  -7.402  0.00  0.00    +0.379 N 
ATOM      9  C   UNL     1       6.292  -3.555  -7.676  0.00  0.00    -0.082 C 
ATOM     10  C   UNL     1       6.032  -2.107  -7.253  0.00  0.00    -0.010 C 
ATOM     11  C   UNL     1       6.596   0.412 -10.487  0.00  0.00    +0.260 C 
ATOM     12  O   UNL     1       6.889   1.589 -10.462  0.00  0.00    -0.271 OA
ATOM     13  H   UNL     1       4.861  -4.293  -6.424  0.00  0.00    -0.086 HD
ATOM     14  H   UNL     1       5.295  -5.333  -7.624  0.00  0.00    -0.086 HD
ENDROOT
BRANCH  11  15
ATOM     15  C   UNL     1       7.349  -0.533 -11.387  0.00  0.00    +0.296 C 
ATOM     16  C   UNL     1       6.422  -1.034 -12.502  0.00  0.00    +0.283 C 
ATOM     17  O   UNL     1       7.172  -1.917 -13.345  0.00  0.00    -0.484 OA
ATOM     18  C   UNL     1       8.408  -1.494 -13.727  0.00  0.00    +0.162 A 
ATOM     19  C   UNL     1       9.031  -2.103 -14.806  0.00  0.00    +0.049 A 
ATOM     20  C   UNL     1      10.288  -1.687 -15.204  0.00  0.00    +0.004 A 
ATOM     21  C   UNL     1      10.927  -0.664 -14.527  0.00  0.00    +0.004 A 
ATOM     22  C   UNL     1      10.310  -0.053 -13.452  0.00  0.00    +0.049 A 
ATOM     23  C   UNL     1       9.049  -0.465 -13.048  0.00  0.00    +0.163 A 
ATOM     24  O   UNL     1       8.451   0.152 -11.992  0.00  0.00    -0.473 OA
ENDBRANCH  11  15
BRANCH   1  26
ATOM     25  N   UNL     1       2.831  -0.319  -5.771  0.00  0.00    -0.315 N 
ATOM     26  C   UNL     1       3.100  -0.039  -7.062  0.00  0.00    +0.218 C 
ATOM     27  O   UNL     1       2.203   0.284  -7.812  0.00  0.00    -0.275 OA
ATOM     28  H   UNL     1       3.548  -0.578  -5.171  0.00  0.00    +0.149 HD
BRANCH  25  29
ATOM     29  C   UNL     1       1.455  -0.232  -5.274  0.00  0.00    +0.109 C 
BRANCH  29  30
ATOM     30  C   UNL     1       1.426  -0.597  -3.788  0.00  0.00    +0.056 C 
BRANCH  30  38
ATOM     31  C   UNL     1      -2.203  -4.995  -4.341  0.00  0.00    +0.044 C 
ATOM     32  C   UNL     1      -2.178  -3.595  -3.785  0.00  0.00    -0.050 A 
ATOM     33  C   UNL     1      -3.317  -3.070  -3.191  0.00  0.00    +0.005 A 
ATOM     34  C   UNL     1      -3.317  -1.792  -2.677  0.00  0.00    +0.026 A 
ATOM     35  C   UNL     1      -2.163  -1.018  -2.752  0.00  0.00    +0.047 A 
ATOM     36  N   UNL     1      -1.850   0.259  -2.343  0.00  0.00    -0.360 N 
ATOM     37  C   UNL     1      -0.551   0.545  -2.664  0.00  0.00    +0.087 A 
ATOM     38  C   UNL     1       0.011  -0.508  -3.277  0.00  0.00    -0.021 A 
ATOM     39  C   UNL     1      -1.011  -1.555  -3.355  0.00  0.00    +0.003 A 
ATOM     40  C   UNL     1      -1.033  -2.854  -3.865  0.00  0.00    +0.013 A 
ATOM     41  H   UNL     1      -2.460   0.866  -1.895  0.00  0.00    +0.165 HD
ENDBRANCH  30  38
ENDBRANCH  29  30
ENDBRANCH  25  29
ENDBRANCH   1  26
TORSDOF 5
