REMARK  Name = ZINC32944628
REMARK  13 active torsions:
REMARK  status: ('A' for Active; 'I' for Inactive)
REMARK    1  A    between atoms: C_1  and  C_2
REMARK    2  A    between atoms: C_5  and  C_8
REMARK    3  A    between atoms: C_8  and  C_10
REMARK    4  A    between atoms: C_10  and  S_11
REMARK    5  A    between atoms: S_11  and  C_12
REMARK    6  A    between atoms: C_16  and  C_28
REMARK    7  A    between atoms: N_22  and  C_23
REMARK    8  A    between atoms: C_23  and  C_24
REMARK    9  A    between atoms: C_24  and  C_25
REMARK   10  A    between atoms: C_25  and  C_26
REMARK   11  A    between atoms: C_25  and  C_27
REMARK   12  A    between atoms: N_30  and  C_31
REMARK   13  A    between atoms: C_31  and  C_32
REMARK                            x       y       z     vdW  Elec       q    Type
REMARK                         _______ _______ _______ _____ _____    ______ ____
ROOT
ATOM      1  C   UNL     1       3.777   6.729   0.003  0.00  0.00    +0.173 A 
ATOM      2  N   UNL     1       4.772   5.877  -0.011  0.00  0.00    -0.223 NA
ATOM      3  C   UNL     1       6.060   6.292  -0.022  0.00  0.00    +0.080 A 
ATOM      4  C   UNL     1       7.121   5.381  -0.037  0.00  0.00    +0.041 A 
ATOM      5  C   UNL     1       8.426   5.854  -0.046  0.00  0.00    +0.039 A 
ATOM      6  C   UNL     1       8.684   7.231  -0.041  0.00  0.00    +0.014 A 
ATOM      7  C   UNL     1       7.657   8.130  -0.026  0.00  0.00    +0.016 A 
ATOM      8  C   UNL     1       6.337   7.678  -0.016  0.00  0.00    +0.065 A 
ATOM      9  C   UNL     1       5.200   8.612   0.000  0.00  0.00    +0.262 A 
ATOM     10  O   UNL     1       5.374   9.816   0.005  0.00  0.00    -0.267 OA
ATOM     11  N   UNL     1       3.955   8.083   0.004  0.00  0.00    -0.287 N 
ENDROOT
BRANCH   5  12
ATOM     12  C   UNL     1       9.555   4.896  -0.062  0.00  0.00    +0.244 C 
ATOM     13  O   UNL     1       9.336   3.700  -0.066  0.00  0.00    -0.270 OA
ATOM     14  N   UNL     1      10.824   5.349  -0.071  0.00  0.00    -0.309 N 
ATOM     15  H   UNL     1      11.021   6.431  -0.067  0.00  0.00    +0.149 HD
BRANCH  14  16
ATOM     16  C   UNL     1      11.940   4.401  -0.086  0.00  0.00    +0.136 C 
BRANCH  16  17
ATOM     17  C   UNL     1      13.263   5.170  -0.095  0.00  0.00    +0.135 C 
ATOM     18  C   UNL     1      14.444   4.181  -0.111  0.00  0.00    +0.035 C 
ATOM     19  C   UNL     1      15.226   4.544  -1.396  0.00  0.00    +0.031 C 
ATOM     20  C   UNL     1      14.750   5.994  -1.667  0.00  0.00    +0.160 C 
ATOM     21  O   UNL     1      13.357   5.968  -1.287  0.00  0.00    -0.375 OA
ENDBRANCH  16  17
ENDBRANCH  14  16
ENDBRANCH   5  12
BRANCH   1  22
ATOM     22  S   UNL     1       2.131   6.098   0.016  0.00  0.00    -0.080 S 
BRANCH  22  23
ATOM     23  C   UNL     1       2.475   4.322   0.002  0.00  0.00    +0.157 C 
BRANCH  23  24
ATOM     24  C   UNL     1       1.176   3.558   0.010  0.00  0.00    +0.173 C 
ATOM     25  O   UNL     1       0.121   4.157   0.024  0.00  0.00    -0.291 OA
BRANCH  24  30
ATOM     26  C   UNL     1       1.219  -2.190  -0.021  0.00  0.00    +0.044 C 
ATOM     27  C   UNL     1       1.208  -0.683  -0.013  0.00  0.00    -0.050 A 
ATOM     28  C   UNL     1       0.002  -0.004   0.002  0.00  0.00    +0.004 A 
ATOM     29  C   UNL     1      -0.017   1.375   0.010  0.00  0.00    +0.011 A 
ATOM     30  C   UNL     1       1.187   2.087   0.002  0.00  0.00    +0.018 A 
ATOM     31  C   UNL     1       2.401   1.393  -0.013  0.00  0.00    +0.011 A 
ATOM     32  C   UNL     1       2.403   0.014  -0.020  0.00  0.00    +0.004 A 
ENDBRANCH  24  30
ENDBRANCH  23  24
ENDBRANCH  22  23
ENDBRANCH   1  22
BRANCH  11  33
ATOM     33  C   UNL     1       2.789   8.969   0.014  0.00  0.00    +0.127 C 
BRANCH  33  34
ATOM     34  C   UNL     1       2.394   9.276   1.460  0.00  0.00    +0.025 C 
BRANCH  34  35
ATOM     35  C   UNL     1       1.176  10.202   1.470  0.00  0.00    -0.016 C 
ATOM     36  C   UNL     1       0.705  10.409   2.911  0.00  0.00    +0.007 C 
ATOM     37  C   UNL     1       1.557  11.552   0.860  0.00  0.00    +0.007 C 
ENDBRANCH  34  35
ENDBRANCH  33  34
ENDBRANCH  11  33
TORSDOF 10
