REMARK  Name = ZINC07790492
REMARK  6 active torsions:
REMARK  status: ('A' for Active; 'I' for Inactive)
REMARK    1  A    between atoms: C_1  and  C_2
REMARK    2  A    between atoms: C_2  and  C_4
REMARK    3  A    between atoms: C_2  and  S_13
REMARK    4  A    between atoms: N_6  and  C_7
REMARK    5  A    between atoms: S_13  and  C_14
REMARK    6  A    between atoms: N_27  and  C_28
REMARK                            x       y       z     vdW  Elec       q    Type
REMARK                         _______ _______ _______ _____ _____    ______ ____
ROOT
ATOM      1  C   UNL     1       2.524   0.056   1.353  0.00  0.00    +0.180 C 
ATOM      2  N   UNL     1       2.930   0.562   0.223  0.00  0.00    -0.158 NA
ATOM      3  N   UNL     1       4.318   0.744   0.296  0.00  0.00    -0.221 N 
ATOM      4  C   UNL     1       4.716   0.326   1.513  0.00  0.00    +0.121 C 
ATOM      5  C   UNL     1       6.038   0.333   2.008  0.00  0.00    +0.040 C 
ATOM      6  C   UNL     1       7.228   0.278   1.265  0.00  0.00    +0.123 C 
ATOM      7  N   UNL     1       8.257   0.305   2.080  0.00  0.00    -0.254 NA
ATOM      8  C   UNL     1       7.881   0.376   3.369  0.00  0.00    +0.072 A 
ATOM      9  C   UNL     1       6.467   0.405   3.411  0.00  0.00    +0.012 A 
ATOM     10  C   UNL     1       5.807   0.484   4.634  0.00  0.00    +0.011 A 
ATOM     11  C   UNL     1       6.532   0.538   5.792  0.00  0.00    +0.001 A 
ATOM     12  C   UNL     1       7.921   0.514   5.758  0.00  0.00    +0.002 A 
ATOM     13  C   UNL     1       8.594   0.428   4.574  0.00  0.00    +0.028 A 
ATOM     14  N   UNL     1       3.609  -0.099   2.181  0.00  0.00    -0.262 N 
ATOM     15  H   UNL     1       4.887   1.104  -0.401  0.00  0.00    +0.176 HD
ENDROOT
BRANCH  14  16
ATOM     16  C   UNL     1       3.579  -0.633   3.545  0.00  0.00    +0.082 C 
ATOM     17  C   UNL     1       2.323  -1.390   3.980  0.00  0.00    +0.025 C 
ATOM     18  C   UNL     1       2.604   0.008   4.533  0.00  0.00    +0.025 C 
ENDBRANCH  14  16
BRANCH   1  19
ATOM     19  S   UNL     1       0.859  -0.354   1.756  0.00  0.00    -0.076 S 
BRANCH  19  21
ATOM     20  C   UNL     1      -0.004   1.595   0.041  0.00  0.00    +0.029 C 
ATOM     21  C   UNL     1      -0.074   0.083   0.262  0.00  0.00    +0.137 C 
BRANCH  21  22
ATOM     22  C   UNL     1      -1.512  -0.335   0.428  0.00  0.00    +0.226 C 
ATOM     23  O   UNL     1      -1.988  -0.443   1.538  0.00  0.00    -0.275 OA
ATOM     24  N   UNL     1      -2.270  -0.589  -0.657  0.00  0.00    -0.312 N 
ATOM     25  H   UNL     1      -1.889  -0.502  -1.546  0.00  0.00    +0.149 HD
BRANCH  24  26
ATOM     26  C   UNL     1      -3.668  -0.995  -0.496  0.00  0.00    +0.073 C 
ATOM     27  C   UNL     1      -3.738  -2.507  -0.276  0.00  0.00    +0.022 C 
ATOM     28  C   UNL     1      -5.198  -2.931  -0.107  0.00  0.00    +0.002 C 
ATOM     29  C   UNL     1      -5.984  -2.563  -1.367  0.00  0.00    +0.000 C 
ATOM     30  C   UNL     1      -5.915  -1.051  -1.587  0.00  0.00    +0.002 C 
ATOM     31  C   UNL     1      -4.455  -0.626  -1.756  0.00  0.00    +0.022 C 
ENDBRANCH  24  26
ENDBRANCH  21  22
ENDBRANCH  19  21
ENDBRANCH   1  19
TORSDOF 5
