REMARK  Name = ZINC09672833
REMARK  14 active torsions:
REMARK  status: ('A' for Active; 'I' for Inactive)
REMARK    1  A    between atoms: C_1  and  C_2
REMARK    2  A    between atoms: C_2  and  O_3
REMARK    3  A    between atoms: O_3  and  C_4
REMARK    4  A    between atoms: C_6  and  C_12
REMARK    5  A    between atoms: C_9  and  O_10
REMARK    6  A    between atoms: C_17  and  C_27
REMARK    7  A    between atoms: C_19  and  C_23
REMARK    8  A    between atoms: C_23  and  O_25
REMARK    9  A    between atoms: O_25  and  C_26
REMARK   10  A    between atoms: C_29  and  C_36
REMARK   11  A    between atoms: C_30  and  C_31
REMARK   12  A    between atoms: C_31  and  O_33
REMARK   13  A    between atoms: O_33  and  C_34
REMARK   14  A    between atoms: C_34  and  C_35
REMARK                            x       y       z     vdW  Elec       q    Type
REMARK                         _______ _______ _______ _____ _____    ______ ____
ROOT
ATOM      1  C   UNL     1      -0.025   4.263  -0.240  0.00  0.00    +0.092 C 
ATOM      2  C   UNL     1       0.135   5.633   0.370  0.00  0.00    +0.025 C 
ATOM      3  C   UNL     1       1.362   6.152   0.586  0.00  0.00    +0.016 C 
ATOM      4  C   UNL     1       1.530   7.527   1.183  0.00  0.00    +0.055 C 
ATOM      5  C   UNL     1       0.362   7.824   2.126  0.00  0.00    +0.013 C 
ATOM      6  C   UNL     1      -0.944   7.717   1.331  0.00  0.00    +0.171 C 
ATOM      7  C   UNL     1      -1.026   6.350   0.707  0.00  0.00    +0.176 C 
ATOM      8  O   UNL     1      -2.115   5.858   0.491  0.00  0.00    -0.291 OA
ATOM      9  C   UNL     1       0.353   6.807   3.269  0.00  0.00    +0.009 C 
ATOM     10  N   UNL     1       2.485   5.436   0.268  0.00  0.00    -0.321 N 
ATOM     11  C   UNL     1       2.424   4.080   0.108  0.00  0.00    +0.016 C 
ATOM     12  C   UNL     1       1.248   3.476  -0.137  0.00  0.00    +0.065 C 
ATOM     13  C   UNL     1       3.683   3.257   0.203  0.00  0.00    +0.061 C 
ATOM     14  H   UNL     1       3.448   5.953   0.138  0.00  0.00    +0.152 HD
ENDROOT
BRANCH   1  17
ATOM     15  C   UNL     1      -1.954   4.043  -3.481  0.00  0.00    +0.163 A 
ATOM     16  C   UNL     1      -1.604   3.905  -2.147  0.00  0.00    +0.054 A 
ATOM     17  C   UNL     1      -0.401   4.410  -1.692  0.00  0.00    -0.030 A 
ATOM     18  C   UNL     1       0.462   5.044  -2.567  0.00  0.00    +0.023 A 
ATOM     19  C   UNL     1       0.121   5.181  -3.900  0.00  0.00    +0.063 A 
ATOM     20  C   UNL     1      -1.087   4.681  -4.362  0.00  0.00    +0.173 A 
ATOM     21 BR   UNL     1       1.304   6.049  -5.094  0.00  0.00    -0.046 Br
BRANCH  20  22
ATOM     22  O   UNL     1      -1.423   4.815  -5.673  0.00  0.00    -0.503 OA
ATOM     23  H   UNL     1      -0.737   5.319  -6.368  0.00  0.00    +0.292 HD
ENDBRANCH  20  22
BRANCH  15  24
ATOM     24  O   UNL     1      -3.140   3.551  -3.929  0.00  0.00    -0.489 OA
BRANCH  24  26
ATOM     25  C   UNL     1      -5.260   2.423  -3.653  0.00  0.00    +0.048 C 
ATOM     26  C   UNL     1      -3.980   2.908  -2.969  0.00  0.00    +0.226 C 
ENDBRANCH  24  26
ENDBRANCH  15  24
ENDBRANCH   1  17
BRANCH   6  27
ATOM     27  C   UNL     1      -2.116   7.920   2.257  0.00  0.00    +0.318 C 
ATOM     28  O   UNL     1      -1.928   8.129   3.432  0.00  0.00    -0.250 OA
BRANCH  27  29
ATOM     29  O   UNL     1      -3.368   7.868   1.776  0.00  0.00    -0.467 OA
ATOM     30  C   UNL     1      -4.447   8.073   2.725  0.00  0.00    +0.280 C 
ENDBRANCH  27  29
ENDBRANCH   6  27
BRANCH  12  31
ATOM     31  C   UNL     1       1.210   2.071  -0.297  0.00  0.00    +0.338 C 
ATOM     32  O   UNL     1       0.760   1.370   0.590  0.00  0.00    -0.245 OA
BRANCH  31  33
ATOM     33  O   UNL     1       1.674   1.508  -1.432  0.00  0.00    -0.462 OA
BRANCH  33  34
ATOM     34  C   UNL     1       1.605   0.084  -1.525  0.00  0.00    +0.229 C 
ATOM     35  C   UNL     1       2.171  -0.367  -2.873  0.00  0.00    +0.048 C 
ENDBRANCH  33  34
ENDBRANCH  31  33
ENDBRANCH  12  31
TORSDOF 9
