REMARK  Name = ZINC63654897
REMARK  8 active torsions:
REMARK  status: ('A' for Active; 'I' for Inactive)
REMARK    1  A    between atoms: C_1  and  O_2
REMARK    2  A    between atoms: O_2  and  C_3
REMARK    3  A    between atoms: C_6  and  C_9
REMARK    4  A    between atoms: C_11  and  S_19
REMARK    5  A    between atoms: S_19  and  C_20
REMARK    6  A    between atoms: C_20  and  C_21
REMARK    7  A    between atoms: C_21  and  N_22
REMARK    8  A    between atoms: C_23  and  C_25
REMARK                            x       y       z     vdW  Elec       q    Type
REMARK                         _______ _______ _______ _____ _____    ______ ____
ROOT
ATOM      1  C   UNL     1       2.494  -2.504  -4.348  0.00  0.00    +0.147 C 
ATOM      2  C   UNL     1       3.883  -2.971  -3.974  0.00  0.00    +0.021 C 
ATOM      3  C   UNL     1       3.872  -4.353  -4.136  0.00  0.00    +0.010 A 
ATOM      4  C   UNL     1       4.861  -5.342  -3.944  0.00  0.00    +0.011 A 
ATOM      5  C   UNL     1       4.565  -6.646  -4.185  0.00  0.00    +0.001 A 
ATOM      6  C   UNL     1       3.299  -7.039  -4.620  0.00  0.00    +0.002 A 
ATOM      7  C   UNL     1       2.302  -6.142  -4.825  0.00  0.00    +0.026 A 
ATOM      8  C   UNL     1       2.536  -4.763  -4.594  0.00  0.00    +0.044 A 
ATOM      9  N   UNL     1       1.746  -3.710  -4.717  0.00  0.00    -0.373 N 
ATOM     10  H   UNL     1       0.820  -3.731  -5.005  0.00  0.00    +0.161 HD
ENDROOT
BRANCH   1  14
ATOM     11  C   UNL     1       0.636  -0.586  -1.011  0.00  0.00    +0.120 A 
ATOM     12  C   UNL     1       1.193   0.175  -2.029  0.00  0.00    +0.046 A 
ATOM     13  C   UNL     1       1.793  -0.447  -3.106  0.00  0.00    +0.009 A 
ATOM     14  C   UNL     1       1.839  -1.827  -3.171  0.00  0.00    -0.020 A 
ATOM     15  C   UNL     1       1.284  -2.588  -2.159  0.00  0.00    +0.009 A 
ATOM     16  C   UNL     1       0.689  -1.970  -1.076  0.00  0.00    +0.046 A 
BRANCH  11  18
ATOM     17  C   UNL     1       0.029   1.453   0.050  0.00  0.00    +0.277 C 
ATOM     18  O   UNL     1       0.046   0.025   0.050  0.00  0.00    -0.495 OA
ENDBRANCH  11  18
ENDBRANCH   1  14
BRANCH   2  19
ATOM     19  S   UNL     1       5.156  -2.030  -3.474  0.00  0.00    -0.125 S 
BRANCH  19  20
ATOM     20  C   UNL     1       6.446  -3.230  -3.044  0.00  0.00    +0.093 C 
BRANCH  20  21
ATOM     21  C   UNL     1       7.639  -2.498  -2.427  0.00  0.00    +0.115 C 
BRANCH  21  22
ATOM     22  N   UNL     1       8.681  -3.467  -2.079  0.00  0.00    -0.314 N 
ATOM     23  C   UNL     1       9.832  -3.047  -1.518  0.00  0.00    +0.219 C 
ATOM     24  O   UNL     1      10.005  -1.866  -1.301  0.00  0.00    -0.275 OA
ATOM     25  H   UNL     1       8.543  -4.411  -2.253  0.00  0.00    +0.149 HD
BRANCH  23  26
ATOM     26  C   UNL     1      10.904  -4.044  -1.160  0.00  0.00    +0.048 C 
ATOM     27  C   UNL     1      10.348  -5.051  -0.152  0.00  0.00    +0.019 C 
ATOM     28  C   UNL     1      11.436  -6.064   0.211  0.00  0.00    -0.009 C 
ATOM     29  C   UNL     1      12.629  -5.331   0.828  0.00  0.00    +0.007 C 
ATOM     30  C   UNL     1      13.185  -4.324  -0.180  0.00  0.00    -0.009 C 
ATOM     31  C   UNL     1      12.097  -3.311  -0.543  0.00  0.00    +0.019 C 
ATOM     32  C   UNL     1      13.637  -5.061  -1.442  0.00  0.00    +0.007 C 
ATOM     33  C   UNL     1      12.444  -5.794  -2.059  0.00  0.00    -0.009 C 
ATOM     34  C   UNL     1      11.887  -6.802  -1.051  0.00  0.00    +0.007 C 
ATOM     35  C   UNL     1      11.356  -4.782  -2.422  0.00  0.00    +0.019 C 
ENDBRANCH  23  26
ENDBRANCH  21  22
ENDBRANCH  20  21
ENDBRANCH  19  20
ENDBRANCH   2  19
TORSDOF 7
