REMARK  Name = ZINC12847375
REMARK  4 active torsions:
REMARK  status: ('A' for Active; 'I' for Inactive)
REMARK    1  A    between atoms: C_3  and  C_6
REMARK    2  A    between atoms: C_9  and  C_28
REMARK    3  A    between atoms: C_13  and  C_16
REMARK    4  A    between atoms: N_18  and  C_19
REMARK                            x       y       z     vdW  Elec       q    Type
REMARK                         _______ _______ _______ _____ _____    ______ ____
ROOT
ATOM      1  C   UNL     1       3.597   0.624  -0.029  0.00  0.00    +0.140 C 
ATOM      2  C   UNL     1       4.128   0.352   1.383  0.00  0.00    +0.066 C 
ATOM      3  C   UNL     1       5.661   0.376   1.375  0.00  0.00    +0.215 C 
ATOM      4  N   UNL     1       6.143  -0.477   0.284  0.00  0.00    -0.238 N 
ATOM      5  C   UNL     1       5.379  -0.852  -0.769  0.00  0.00    +0.130 A 
ATOM      6  C   UNL     1       6.158  -1.647  -1.588  0.00  0.00    +0.096 A 
ATOM      7  C   UNL     1       7.435  -1.735  -0.978  0.00  0.00    +0.149 A 
ATOM      8  N   UNL     1       7.409  -1.038   0.126  0.00  0.00    -0.177 NA
ATOM      9  N   UNL     1       4.061  -0.455  -0.924  0.00  0.00    -0.319 N 
ATOM     10  H   UNL     1       3.474  -0.866  -1.579  0.00  0.00    +0.148 HD
ENDROOT
BRANCH   1  13
ATOM     11  C   UNL     1      -0.021   1.322   0.023  0.00  0.00    +0.041 A 
ATOM     12  C   UNL     1       1.324   1.757   0.005  0.00  0.00    +0.046 A 
ATOM     13  C   UNL     1       2.091   0.651  -0.008  0.00  0.00    +0.125 A 
ATOM     14  O   UNL     1       1.285  -0.423   0.002  0.00  0.00    -0.466 OA
ATOM     15  C   UNL     1       0.004  -0.023   0.021  0.00  0.00    +0.195 A 
ENDBRANCH   1  13
BRANCH   6  16
ATOM     16  C   UNL     1       5.743  -2.280  -2.846  0.00  0.00    +0.253 C 
ATOM     17  O   UNL     1       4.610  -2.124  -3.261  0.00  0.00    -0.270 OA
ATOM     18  N   UNL     1       6.618  -3.034  -3.542  0.00  0.00    -0.281 N 
ATOM     19  H   UNL     1       7.539  -3.104  -3.247  0.00  0.00    +0.155 HD
BRANCH  18  20
ATOM     20  C   UNL     1       6.196  -3.715  -4.688  0.00  0.00    +0.036 A 
ATOM     21  C   UNL     1       6.725  -4.963  -4.989  0.00  0.00    +0.043 A 
ATOM     22  C   UNL     1       6.307  -5.635  -6.123  0.00  0.00    +0.044 A 
ATOM     23  C   UNL     1       5.362  -5.063  -6.958  0.00  0.00    +0.040 A 
ATOM     24  C   UNL     1       4.834  -3.819  -6.660  0.00  0.00    +0.044 A 
ATOM     25  C   UNL     1       5.245  -3.147  -5.524  0.00  0.00    +0.043 A 
ATOM     26 CL   UNL     1       3.650  -3.106  -7.711  0.00  0.00    -0.083 Cl
ATOM     27 CL   UNL     1       6.967  -7.195  -6.500  0.00  0.00    -0.083 Cl
ENDBRANCH  18  20
ENDBRANCH   6  16
BRANCH   3  28
ATOM     28  C   UNL     1       6.188  -0.149   2.712  0.00  0.00    +0.412 C 
ATOM     29  F   UNL     1       5.745  -1.462   2.904  0.00  0.00    -0.168 F 
ATOM     30  F   UNL     1       7.587  -0.126   2.703  0.00  0.00    -0.168 F 
ATOM     31  F   UNL     1       5.715   0.660   3.750  0.00  0.00    -0.168 F 
ENDBRANCH   3  28
TORSDOF 4
