REMARK  Name = ZINC12482357
REMARK  10 active torsions:
REMARK  status: ('A' for Active; 'I' for Inactive)
REMARK    1  A    between atoms: C_1  and  C_2
REMARK    2  A    between atoms: C_5  and  C_7
REMARK    3  A    between atoms: C_7  and  C_9
REMARK    4  A    between atoms: C_7  and  N_19
REMARK    5  A    between atoms: N_11  and  C_12
REMARK    6  A    between atoms: C_12  and  C_13
REMARK    7  A    between atoms: N_19  and  C_20
REMARK    8  A    between atoms: C_20  and  C_21
REMARK    9  A    between atoms: C_28  and  C_30
REMARK   10  A    between atoms: C_30  and  N_31
REMARK                            x       y       z     vdW  Elec       q    Type
REMARK                         _______ _______ _______ _____ _____    ______ ____
ROOT
ATOM      1  N   UNL     1      -1.028   5.984  -1.540  0.00  0.00    -0.278 N 
ATOM      2  C   UNL     1       0.137   5.441  -1.134  0.00  0.00    +0.238 C 
ATOM      3  O   UNL     1       0.895   4.954  -1.946  0.00  0.00    -0.274 OA
ENDROOT
BRANCH   1   4
ATOM      4  C   UNL     1      -1.439   5.872  -2.942  0.00  0.00    +0.228 C 
BRANCH   4   9
ATOM      5  C   UNL     1      -6.309   5.101  -1.876  0.00  0.00    +0.086 C 
ATOM      6  C   UNL     1      -4.963   5.000  -2.547  0.00  0.00    +0.102 A 
ATOM      7  C   UNL     1      -4.667   4.221  -3.604  0.00  0.00    +0.045 A 
ATOM      8  C   UNL     1      -3.303   4.438  -3.902  0.00  0.00    +0.047 A 
ATOM      9  C   UNL     1      -2.846   5.335  -3.011  0.00  0.00    +0.135 A 
ATOM     10  O   UNL     1      -3.854   5.668  -2.189  0.00  0.00    -0.462 OA
ENDBRANCH   4   9
BRANCH   4  11
ATOM     11  C   UNL     1      -1.387   7.231  -3.591  0.00  0.00    +0.241 C 
ATOM     12  O   UNL     1      -0.828   8.149  -3.031  0.00  0.00    -0.273 OA
ATOM     13  N   UNL     1      -1.963   7.425  -4.794  0.00  0.00    -0.311 N 
ATOM     14  H   UNL     1      -2.411   6.690  -5.242  0.00  0.00    +0.149 HD
BRANCH  13  15
ATOM     15  C   UNL     1      -1.913   8.746  -5.426  0.00  0.00    +0.135 C 
BRANCH  15  16
ATOM     16  C   UNL     1      -2.635   8.695  -6.773  0.00  0.00    +0.135 C 
ATOM     17  C   UNL     1      -2.588  10.081  -7.446  0.00  0.00    +0.035 C 
ATOM     18  C   UNL     1      -1.880   9.822  -8.798  0.00  0.00    +0.031 C 
ATOM     19  C   UNL     1      -2.091   8.298  -8.989  0.00  0.00    +0.160 C 
ATOM     20  O   UNL     1      -1.969   7.771  -7.650  0.00  0.00    -0.375 OA
ENDBRANCH  15  16
ENDBRANCH  13  15
ENDBRANCH   4  11
ENDBRANCH   1   4
BRANCH   1  21
ATOM     21  C   UNL     1      -1.882   6.688  -0.580  0.00  0.00    +0.145 C 
BRANCH  21  22
ATOM     22  C   UNL     1      -1.990   8.139  -0.973  0.00  0.00    -0.012 A 
ATOM     23  C   UNL     1      -3.142   8.608  -1.577  0.00  0.00    +0.006 A 
ATOM     24  C   UNL     1      -3.241   9.938  -1.936  0.00  0.00    +0.000 A 
ATOM     25  C   UNL     1      -2.188  10.801  -1.693  0.00  0.00    +0.001 A 
ATOM     26  C   UNL     1      -1.036  10.334  -1.090  0.00  0.00    +0.020 A 
ATOM     27  C   UNL     1      -0.939   9.003  -0.724  0.00  0.00    +0.046 A 
ATOM     28 CL   UNL     1       0.505   8.416   0.041  0.00  0.00    -0.083 Cl
ENDBRANCH  21  22
ENDBRANCH   1  21
BRANCH   2  29
ATOM     29  C   UNL     1       0.497   5.437   0.329  0.00  0.00    +0.241 C 
BRANCH  29  30
ATOM     30  N   UNL     1       1.741   4.689   0.524  0.00  0.00    -0.235 N 
ATOM     31  C   UNL     1       1.860   3.342   0.774  0.00  0.00    +0.090 A 
ATOM     32  C   UNL     1       0.949   2.302   0.920  0.00  0.00    +0.029 A 
ATOM     33  C   UNL     1       1.398   1.036   1.171  0.00  0.00    +0.002 A 
ATOM     34  C   UNL     1       2.758   0.777   1.283  0.00  0.00    +0.002 A 
ATOM     35  C   UNL     1       3.672   1.780   1.143  0.00  0.00    +0.032 A 
ATOM     36  C   UNL     1       3.238   3.087   0.885  0.00  0.00    +0.113 A 
ATOM     37  N   UNL     1       3.886   4.255   0.705  0.00  0.00    -0.129 NA
ATOM     38  N   UNL     1       3.045   5.205   0.492  0.00  0.00    -0.064 NA
ENDBRANCH  29  30
ENDBRANCH   2  29
TORSDOF 9
