REMARK  Name = ZINC18025959
REMARK  9 active torsions:
REMARK  status: ('A' for Active; 'I' for Inactive)
REMARK    1  A    between atoms: C_1  and  C_2
REMARK    2  A    between atoms: C_5  and  C_8
REMARK    3  A    between atoms: N_10  and  N_11
REMARK    4  A    between atoms: C_12  and  C_14
REMARK    5  A    between atoms: C_14  and  S_15
REMARK    6  A    between atoms: S_15  and  C_16
REMARK    7  A    between atoms: C_17  and  C_31
REMARK    8  A    between atoms: C_18  and  C_27
REMARK    9  A    between atoms: C_20  and  C_22
REMARK                            x       y       z     vdW  Elec       q    Type
REMARK                         _______ _______ _______ _____ _____    ______ ____
ROOT
ATOM      1  S   UNL     1      -0.772   8.681   0.056  0.00  0.00    -0.095 S 
ENDROOT
BRANCH   1   2
ATOM      2  C   UNL     1       0.430   7.393   0.037  0.00  0.00    +0.116 A 
ATOM      3  C   UNL     1       1.800   7.716   0.025  0.00  0.00    +0.095 A 
ATOM      4  C   UNL     1       2.743   6.678   0.011  0.00  0.00    +0.077 A 
ATOM      5  C   UNL     1       2.289   5.376   0.009  0.00  0.00    +0.042 A 
ATOM      6  C   UNL     1       0.913   5.129   0.021  0.00  0.00    +0.079 A 
ATOM      7  N   UNL     1       0.038   6.130   0.030  0.00  0.00    -0.239 NA
BRANCH   6   8
ATOM      8  C   UNL     1       0.425   3.737   0.018  0.00  0.00    +0.038 A 
ATOM      9  C   UNL     1      -0.866   3.274   0.028  0.00  0.00    +0.017 A 
ATOM     10  C   UNL     1      -1.081   1.916   0.017  0.00  0.00    +0.008 A 
ATOM     11  C   UNL     1      -0.013   1.076   0.008  0.00  0.00    +0.046 A 
ATOM     12  S   UNL     1       1.360   2.217   0.001  0.00  0.00    -0.095 S 
ENDBRANCH   6   8
BRANCH   4  13
ATOM     13  C   UNL     1       4.220   6.979  -0.003  0.00  0.00    +0.419 C 
ATOM     14  F   UNL     1       4.940   5.780  -0.017  0.00  0.00    -0.166 F 
ATOM     15  F   UNL     1       4.533   7.725  -1.144  0.00  0.00    -0.166 F 
ATOM     16  F   UNL     1       4.557   7.713   1.140  0.00  0.00    -0.166 F 
ENDBRANCH   4  13
BRANCH   3  17
ATOM     17  C   UNL     1       2.224   9.083   0.028  0.00  0.00    +0.102 C 
ATOM     18  N   UNL     1       2.561  10.168   0.030  0.00  0.00    -0.191 NA
ENDBRANCH   3  17
ENDBRANCH   1   2
BRANCH   1  19
ATOM     19  C   UNL     1      -2.290   7.696   0.066  0.00  0.00    +0.173 C 
BRANCH  19  21
ATOM     20  N   UNL     1      -4.730   8.098   0.092  0.00  0.00    -0.233 N 
ATOM     21  C   UNL     1      -3.485   8.613   0.082  0.00  0.00    +0.239 C 
ATOM     22  O   UNL     1      -3.326   9.816   0.087  0.00  0.00    -0.273 OA
ATOM     23  H   UNL     1      -4.857   7.136   0.088  0.00  0.00    +0.173 HD
BRANCH  20  26
ATOM     24  C   UNL     1      -7.087   8.436   0.117  0.00  0.00    +0.260 C 
ATOM     25  O   UNL     1      -7.246   7.231   0.112  0.00  0.00    -0.269 OA
ATOM     26  N   UNL     1      -5.841   8.951   0.107  0.00  0.00    -0.230 N 
ATOM     27  H   UNL     1      -5.715   9.913   0.111  0.00  0.00    +0.173 HD
BRANCH  24  32
ATOM     28  C   UNL     1     -11.651  11.940   0.182  0.00  0.00    +0.044 C 
ATOM     29  C   UNL     1     -10.456  11.023   0.165  0.00  0.00    -0.050 A 
ATOM     30  C   UNL     1     -10.640   9.651   0.159  0.00  0.00    +0.004 A 
ATOM     31  C   UNL     1      -9.550   8.806   0.143  0.00  0.00    +0.013 A 
ATOM     32  C   UNL     1      -8.259   9.336   0.133  0.00  0.00    +0.038 A 
ATOM     33  C   UNL     1      -8.080  10.720   0.144  0.00  0.00    +0.013 A 
ATOM     34  C   UNL     1      -9.178  11.555   0.155  0.00  0.00    +0.004 A 
ENDBRANCH  24  32
ENDBRANCH  20  26
ENDBRANCH  19  21
ENDBRANCH   1  19
TORSDOF 8
