REMARK  Name = ZINC02473089
REMARK  10 active torsions:
REMARK  status: ('A' for Active; 'I' for Inactive)
REMARK    1  A    between atoms: C_1  and  C_2
REMARK    2  A    between atoms: C_7  and  O_9
REMARK    3  A    between atoms: O_9  and  C_10
REMARK    4  A    between atoms: C_10  and  C_12
REMARK    5  A    between atoms: C_13  and  C_30
REMARK    6  A    between atoms: C_18  and  C_20
REMARK    7  A    between atoms: C_22  and  O_28
REMARK    8  A    between atoms: C_25  and  O_26
REMARK    9  A    between atoms: O_26  and  C_27
REMARK   10  A    between atoms: O_28  and  C_29
REMARK                            x       y       z     vdW  Elec       q    Type
REMARK                         _______ _______ _______ _____ _____    ______ ____
ROOT
ATOM      1  C   UNL     1      -2.882   0.048  -1.695  0.00  0.00    +0.078 C 
ATOM      2  C   UNL     1      -4.181  -0.177  -1.990  0.00  0.00    +0.019 C 
ATOM      3  N   UNL     1      -5.059  -0.591  -1.032  0.00  0.00    -0.300 N 
ATOM      4  C   UNL     1      -4.720  -0.805   0.245  0.00  0.00    +0.135 C 
ATOM      5  S   UNL     1      -5.923  -1.325   1.346  0.00  0.00    -0.019 S 
ATOM      6  N   UNL     1      -3.461  -0.624   0.693  0.00  0.00    -0.315 N 
ATOM      7  C   UNL     1      -2.435  -0.177  -0.264  0.00  0.00    +0.145 C 
ATOM      8  C   UNL     1      -4.667   0.033  -3.401  0.00  0.00    +0.061 C 
ATOM      9  H   UNL     1      -6.114  -0.768  -1.292  0.00  0.00    +0.154 HD
ATOM     10  H   UNL     1      -3.193  -0.801   1.745  0.00  0.00    +0.149 HD
ENDROOT
BRANCH   7  11
ATOM     11  C   UNL     1      -1.333  -1.204  -0.277  0.00  0.00    +0.022 A 
ATOM     12  C   UNL     1      -0.023  -0.815  -0.074  0.00  0.00    +0.055 A 
ATOM     13  C   UNL     1       0.992  -1.760  -0.086  0.00  0.00    +0.121 A 
ATOM     14  C   UNL     1       0.691  -3.097  -0.302  0.00  0.00    +0.049 A 
ATOM     15  C   UNL     1      -0.619  -3.487  -0.500  0.00  0.00    +0.049 A 
ATOM     16  C   UNL     1      -1.633  -2.541  -0.493  0.00  0.00    +0.126 A 
BRANCH  16  17
ATOM     17  O   UNL     1      -2.922  -2.924  -0.693  0.00  0.00    -0.495 OA
ATOM     18  C   UNL     1      -3.148  -4.297  -1.018  0.00  0.00    +0.277 C 
ENDBRANCH  16  17
BRANCH  13  19
ATOM     19  O   UNL     1       2.281  -1.377   0.115  0.00  0.00    -0.495 OA
ATOM     20  C   UNL     1       3.274  -2.404   0.089  0.00  0.00    +0.277 C 
ENDBRANCH  13  19
ENDBRANCH   7  11
BRANCH   1  21
ATOM     21  C   UNL     1      -1.970   0.476  -2.687  0.00  0.00    +0.339 C 
ATOM     22  O   UNL     1      -2.316   0.524  -3.852  0.00  0.00    -0.245 OA
BRANCH  21  23
ATOM     23  O   UNL     1      -0.715   0.833  -2.341  0.00  0.00    -0.458 OA
BRANCH  23  29
ATOM     24  C   UNL     1       1.991  -0.230  -3.940  0.00  0.00    +0.011 C 
ATOM     25  C   UNL     1       1.591   0.991  -3.110  0.00  0.00    +0.027 C 
ATOM     26  C   UNL     1       2.386   2.240  -3.564  0.00  0.00    +0.007 C 
ATOM     27  C   UNL     1       1.477   3.409  -3.107  0.00  0.00    +0.004 C 
ATOM     28  C   UNL     1       0.045   2.901  -3.372  0.00  0.00    +0.045 C 
ATOM     29  C   UNL     1       0.117   1.364  -3.374  0.00  0.00    +0.180 C 
ENDBRANCH  23  29
ENDBRANCH  21  23
ENDBRANCH   1  21
TORSDOF 6
