REMARK  Name = ZINC09128192
REMARK  10 active torsions:
REMARK  status: ('A' for Active; 'I' for Inactive)
REMARK    1  A    between atoms: C_1  and  C_2
REMARK    2  A    between atoms: C_2  and  C_3
REMARK    3  A    between atoms: C_2  and  C_4
REMARK    4  A    between atoms: C_4  and  N_5
REMARK    5  A    between atoms: N_5  and  C_6
REMARK    6  A    between atoms: C_14  and  C_16
REMARK    7  A    between atoms: C_16  and  O_17
REMARK    8  A    between atoms: O_17  and  C_18
REMARK    9  A    between atoms: C_18  and  C_20
REMARK   10  A    between atoms: N_29  and  C_31
REMARK                            x       y       z     vdW  Elec       q    Type
REMARK                         _______ _______ _______ _____ _____    ______ ____
ROOT
ATOM      1  C   UNL     1       2.539   5.622  -0.739  0.00  0.00    +0.361 C 
ATOM      2  O   UNL     1       1.572   6.349  -0.855  0.00  0.00    -0.243 OA
ENDROOT
BRANCH   1   3
ATOM      3  C   UNL     1       2.363   4.222  -0.310  0.00  0.00    +0.176 A 
ATOM      4  C   UNL     1       1.019   3.696  -0.021  0.00  0.00    +0.021 A 
ATOM      5  C   UNL     1      -0.132   4.468  -0.132  0.00  0.00    +0.011 A 
ATOM      6  C   UNL     1      -1.357   3.902   0.157  0.00  0.00    +0.001 A 
ATOM      7  C   UNL     1      -1.451   2.574   0.551  0.00  0.00    +0.001 A 
ATOM      8  C   UNL     1      -0.322   1.793   0.672  0.00  0.00    +0.014 A 
ATOM      9  C   UNL     1       0.923   2.344   0.385  0.00  0.00    +0.051 A 
ATOM     10  C   UNL     1       2.175   1.582   0.482  0.00  0.00    +0.280 A 
ATOM     11  O   UNL     1       2.168   0.414   0.826  0.00  0.00    -0.265 OA
ATOM     12  N   UNL     1       3.333   2.207   0.183  0.00  0.00    -0.196 N 
ATOM     13  N   UNL     1       3.401   3.431  -0.183  0.00  0.00    -0.156 NA
BRANCH  12  14
ATOM     14  C   UNL     1       4.522   1.477   0.278  0.00  0.00    +0.069 A 
ATOM     15  C   UNL     1       4.794   0.734   1.420  0.00  0.00    +0.028 A 
ATOM     16  C   UNL     1       5.967   0.011   1.509  0.00  0.00    +0.002 A 
ATOM     17  C   UNL     1       6.876   0.033   0.467  0.00  0.00    +0.000 A 
ATOM     18  C   UNL     1       6.611   0.776  -0.670  0.00  0.00    +0.002 A 
ATOM     19  C   UNL     1       5.437   1.497  -0.767  0.00  0.00    +0.028 A 
ENDBRANCH  12  14
ENDBRANCH   1   3
BRANCH   1  20
ATOM     20  O   UNL     1       3.773   6.096  -1.002  0.00  0.00    -0.451 OA
BRANCH  20  21
ATOM     21  C   UNL     1       3.872   7.483  -1.418  0.00  0.00    +0.328 C 
BRANCH  21  23
ATOM     22  N   UNL     1       5.652   9.075  -2.064  0.00  0.00    -0.294 N 
ATOM     23  C   UNL     1       5.317   7.832  -1.666  0.00  0.00    +0.254 C 
ATOM     24  O   UNL     1       6.179   6.994  -1.506  0.00  0.00    -0.272 OA
BRANCH  22  25
ATOM     25  C   UNL     1       7.057   9.414  -2.304  0.00  0.00    +0.099 C 
ATOM     26  C   UNL     1       7.592   8.597  -3.491  0.00  0.00    +0.046 C 
ATOM     27  C   UNL     1       9.135   8.702  -3.551  0.00  0.00    +0.168 C 
ATOM     28  S   UNL     1       9.590   8.985  -1.792  0.00  0.00    -0.029 S 
ATOM     29  O   UNL     1      10.204  10.260  -1.672  0.00  0.00    -0.174 OA
ATOM     30  O   UNL     1      10.262   7.835  -1.297  0.00  0.00    -0.174 OA
ATOM     31  C   UNL     1       7.905   9.059  -1.050  0.00  0.00    +0.188 C 
ENDBRANCH  22  25
BRANCH  22  32
ATOM     32  C   UNL     1       4.611  10.088  -2.256  0.00  0.00    +0.111 C 
BRANCH  32  34
ATOM     33  C   UNL     1       5.505  11.554  -0.441  0.00  0.00    +0.009 C 
ATOM     34  C   UNL     1       4.291  10.752  -0.915  0.00  0.00    +0.000 C 
ATOM     35  C   UNL     1       3.094  11.690  -1.083  0.00  0.00    +0.009 C 
ENDBRANCH  32  34
ENDBRANCH  22  32
ENDBRANCH  21  23
ENDBRANCH  20  21
ENDBRANCH   1  20
TORSDOF 8
