REMARK  Name = ZINC07343692
REMARK  8 active torsions:
REMARK  status: ('A' for Active; 'I' for Inactive)
REMARK    1  A    between atoms: C_1  and  C_2
REMARK    2  A    between atoms: C_2  and  O_3
REMARK    3  A    between atoms: O_3  and  C_4
REMARK    4  A    between atoms: C_4  and  C_6
REMARK    5  A    between atoms: C_7  and  N_31
REMARK    6  A    between atoms: C_21  and  C_23
REMARK    7  A    between atoms: C_26  and  S_29
REMARK    8  A    between atoms: S_29  and  C_30
REMARK                            x       y       z     vdW  Elec       q    Type
REMARK                         _______ _______ _______ _____ _____    ______ ____
ROOT
ATOM      1  C   UNL     1       2.345   5.210  -0.379  0.00  0.00    +0.105 C 
ATOM      2  C   UNL     1       1.104   5.761  -0.425  0.00  0.00    +0.195 C 
ATOM      3  O   UNL     1       0.014   5.067  -0.057  0.00  0.00    -0.441 OA
ATOM      4  C   UNL     1       0.058   3.721  -0.005  0.00  0.00    +0.148 A 
ATOM      5  C   UNL     1      -1.191   2.946  -0.023  0.00  0.00    +0.041 A 
ATOM      6  C   UNL     1      -2.434   3.581  -0.093  0.00  0.00    +0.013 A 
ATOM      7  C   UNL     1      -3.577   2.831  -0.106  0.00  0.00    +0.001 A 
ATOM      8  C   UNL     1      -3.513   1.446  -0.052  0.00  0.00    +0.002 A 
ATOM      9  C   UNL     1      -2.297   0.800   0.018  0.00  0.00    +0.026 A 
ATOM     10  C   UNL     1      -1.122   1.543   0.025  0.00  0.00    +0.053 A 
ATOM     11  N   UNL     1       0.110   0.926   0.100  0.00  0.00    -0.322 N 
ATOM     12  H   UNL     1       0.158  -0.072   0.143  0.00  0.00    +0.169 HD
ATOM     13  C   UNL     1       1.246   1.642   0.117  0.00  0.00    +0.257 A 
ATOM     14  O   UNL     1       2.314   1.057   0.179  0.00  0.00    -0.267 OA
ATOM     15  C   UNL     1       1.240   3.048   0.065  0.00  0.00    +0.072 A 
ATOM     16  C   UNL     1       2.547   3.796   0.088  0.00  0.00    +0.100 C 
ENDROOT
BRANCH  16  17
ATOM     17  C   UNL     1       3.088   3.811   1.495  0.00  0.00    -0.035 A 
ATOM     18  C   UNL     1       2.353   4.395   2.511  0.00  0.00    +0.005 A 
ATOM     19  C   UNL     1       2.843   4.406   3.801  0.00  0.00    +0.015 A 
ATOM     20  C   UNL     1       4.082   3.840   4.077  0.00  0.00    +0.008 A 
ATOM     21  C   UNL     1       4.820   3.259   3.053  0.00  0.00    +0.015 A 
ATOM     22  C   UNL     1       4.321   3.247   1.766  0.00  0.00    +0.005 A 
BRANCH  20  23
ATOM     23  S   UNL     1       4.715   3.859   5.721  0.00  0.00    -0.129 S 
ATOM     24  C   UNL     1       3.426   4.703   6.679  0.00  0.00    +0.090 C 
ENDBRANCH  20  23
ENDBRANCH  16  17
BRANCH   2  25
ATOM     25  N   UNL     1       0.961   7.052  -0.857  0.00  0.00    -0.329 N 
ATOM     26  H   UNL     1       1.726   7.533  -1.212  0.00  0.00    +0.145 HD
ATOM     27  H   UNL     1       0.095   7.487  -0.809  0.00  0.00    +0.145 HD
ENDBRANCH   2  25
BRANCH   1  28
ATOM     28  C   UNL     1       3.454   5.972  -0.774  0.00  0.00    +0.341 C 
ATOM     29  O   UNL     1       3.952   5.800  -1.873  0.00  0.00    -0.245 OA
BRANCH  28  30
ATOM     30  O   UNL     1       3.971   6.898   0.063  0.00  0.00    -0.462 OA
BRANCH  30  32
ATOM     31  C   UNL     1       5.542   8.630   0.672  0.00  0.00    +0.048 C 
ATOM     32  C   UNL     1       5.101   7.637  -0.405  0.00  0.00    +0.229 C 
ENDBRANCH  30  32
ENDBRANCH  28  30
ENDBRANCH   1  28
TORSDOF 6
