REMARK  Name = ZINC23779143
REMARK  6 active torsions:
REMARK  status: ('A' for Active; 'I' for Inactive)
REMARK    1  A    between atoms: C_1  and  C_2
REMARK    2  A    between atoms: C_2  and  C_4
REMARK    3  A    between atoms: C_2  and  S_17
REMARK    4  A    between atoms: C_4  and  C_6
REMARK    5  A    between atoms: S_17  and  C_18
REMARK    6  A    between atoms: N_23  and  C_24
REMARK                            x       y       z     vdW  Elec       q    Type
REMARK                         _______ _______ _______ _____ _____    ______ ____
ROOT
ATOM      1  C   UNL     1      -0.670   4.442  -1.405  0.00  0.00    +0.028 C 
ATOM      2  C   UNL     1      -0.150   4.295   0.026  0.00  0.00    +0.121 C 
ENDROOT
BRANCH   2   3
ATOM      3  C   UNL     1       1.165   3.560   0.010  0.00  0.00    +0.176 C 
ATOM      4  O   UNL     1       2.207   4.181   0.003  0.00  0.00    -0.291 OA
BRANCH   3   5
ATOM      5  C   UNL     1       1.185   2.091   0.002  0.00  0.00    +0.020 A 
ATOM      6  C   UNL     1      -0.017   1.373   0.010  0.00  0.00    +0.015 A 
ATOM      7  C   UNL     1       0.002  -0.004   0.002  0.00  0.00    +0.048 A 
ATOM      8  C   UNL     1       1.212  -0.684  -0.014  0.00  0.00    +0.142 A 
ATOM      9  C   UNL     1       2.416   0.026  -0.021  0.00  0.00    +0.076 A 
ATOM     10  C   UNL     1       2.407   1.406  -0.013  0.00  0.00    +0.038 A 
ATOM     11  N   UNL     1       3.628  -0.680  -0.035  0.00  0.00    -0.280 N 
ATOM     12  C   UNL     1       3.617  -1.992  -0.360  0.00  0.00    +0.255 C 
ATOM     13  O   UNL     1       4.648  -2.630  -0.351  0.00  0.00    -0.272 OA
ATOM     14  C   UNL     1       2.317  -2.658  -0.734  0.00  0.00    +0.325 C 
ATOM     15  O   UNL     1       1.239  -2.042  -0.024  0.00  0.00    -0.481 OA
ATOM     16  H   UNL     1       4.567  -0.166   0.215  0.00  0.00    +0.155 HD
ENDBRANCH   3   5
ENDBRANCH   2   3
BRANCH   2  17
ATOM     17  S   UNL     1       0.086   5.940   0.756  0.00  0.00    -0.086 S 
BRANCH  17  18
ATOM     18  C   UNL     1      -1.543   6.606   0.840  0.00  0.00    +0.161 A 
ATOM     19  N   UNL     1      -2.688   6.066   0.469  0.00  0.00    -0.133 NA
ATOM     20  N   UNL     1      -3.859   6.769   0.626  0.00  0.00    -0.125 NA
ATOM     21  C   UNL     1      -3.833   7.981   1.145  0.00  0.00    +0.183 A 
ATOM     22  S   UNL     1      -2.087   8.192   1.456  0.00  0.00    -0.025 S 
ATOM     23  N   UNL     1      -4.883   8.857   1.390  0.00  0.00    -0.319 N 
ATOM     24  H   UNL     1      -4.684   9.844   1.835  0.00  0.00    +0.148 HD
BRANCH  23  25
ATOM     25  C   UNL     1      -6.255   8.468   1.056  0.00  0.00    +0.072 C 
ATOM     26  C   UNL     1      -6.530   8.782  -0.416  0.00  0.00    +0.022 C 
ATOM     27  C   UNL     1      -7.963   8.375  -0.765  0.00  0.00    +0.002 C 
ATOM     28  C   UNL     1      -8.943   9.154   0.114  0.00  0.00    +0.000 C 
ATOM     29  C   UNL     1      -8.668   8.840   1.586  0.00  0.00    +0.002 C 
ATOM     30  C   UNL     1      -7.236   9.247   1.935  0.00  0.00    +0.022 C 
ENDBRANCH  23  25
ENDBRANCH  17  18
ENDBRANCH   2  17
TORSDOF 5
