REMARK  Name = ZINC67413583
REMARK  8 active torsions:
REMARK  status: ('A' for Active; 'I' for Inactive)
REMARK    1  A    between atoms: C_1  and  C_2
REMARK    2  A    between atoms: C_5  and  C_8
REMARK    3  A    between atoms: C_8  and  C_10
REMARK    4  A    between atoms: C_8  and  N_24
REMARK    5  A    between atoms: C_10  and  N_11
REMARK    6  A    between atoms: N_14  and  N_15
REMARK    7  A    between atoms: C_16  and  C_18
REMARK    8  A    between atoms: C_19  and  C_23
REMARK                            x       y       z     vdW  Elec       q    Type
REMARK                         _______ _______ _______ _____ _____    ______ ____
ROOT
ATOM      1  N   UNL     1      -2.205  -4.393  -0.961  0.00  0.00    -0.299 N 
ATOM      2  C   UNL     1      -3.512  -4.721  -0.991  0.00  0.00    +0.316 C 
ATOM      3  O   UNL     1      -3.978  -5.437  -0.127  0.00  0.00    -0.251 OA
ATOM      4  N   UNL     1      -4.301  -4.256  -1.980  0.00  0.00    -0.218 N 
ATOM      5  H   UNL     1      -1.832  -3.821  -1.651  0.00  0.00    +0.150 HD
ATOM      6  H   UNL     1      -5.241  -4.493  -2.002  0.00  0.00    +0.174 HD
ENDROOT
BRANCH   4   7
ATOM      7  N   UNL     1      -3.763  -3.431  -2.976  0.00  0.00    -0.229 N 
ATOM      8  C   UNL     1      -4.552  -2.966  -3.965  0.00  0.00    +0.267 C 
ATOM      9  O   UNL     1      -5.732  -3.263  -3.992  0.00  0.00    -0.268 OA
ATOM     10  H   UNL     1      -2.822  -3.195  -2.955  0.00  0.00    +0.173 HD
BRANCH   8  11
ATOM     11  C   UNL     1      -3.989  -2.103  -5.008  0.00  0.00    +0.078 A 
ATOM     12  C   UNL     1      -4.621  -1.521  -6.096  0.00  0.00    -0.031 A 
ATOM     13  C   UNL     1      -3.823  -0.753  -6.909  0.00  0.00    +0.011 A 
ATOM     14  C   UNL     1      -2.509  -0.617  -6.605  0.00  0.00    +0.046 A 
ATOM     15  S   UNL     1      -2.315  -1.522  -5.202  0.00  0.00    -0.092 S 
ATOM     16  C   UNL     1      -6.090  -1.719  -6.370  0.00  0.00    +0.045 C 
ENDBRANCH   8  11
ENDBRANCH   4   7
BRANCH   1  17
ATOM     17  C   UNL     1      -1.347  -4.898   0.113  0.00  0.00    +0.095 C 
BRANCH  17  18
ATOM     18  C   UNL     1       0.045  -4.274  -0.009  0.00  0.00    -0.020 C 
BRANCH  18  23
ATOM     19  C   UNL     1      -0.311   1.419   0.913  0.00  0.00    +0.044 C 
ATOM     20  C   UNL     1      -0.218  -0.066   0.673  0.00  0.00    -0.050 A 
ATOM     21  C   UNL     1      -0.149  -0.554  -0.619  0.00  0.00    +0.003 A 
ATOM     22  C   UNL     1      -0.064  -1.916  -0.840  0.00  0.00    +0.002 A 
ATOM     23  C   UNL     1      -0.047  -2.790   0.231  0.00  0.00    -0.059 A 
ATOM     24  C   UNL     1      -0.115  -2.301   1.523  0.00  0.00    +0.002 A 
ATOM     25  C   UNL     1      -0.196  -0.939   1.744  0.00  0.00    +0.003 A 
ENDBRANCH  18  23
BRANCH  18  26
ATOM     26  N   UNL     1       0.941  -4.877   0.987  0.00  0.00    +0.385 N 
ATOM     27  C   UNL     1       1.104  -6.329   0.717  0.00  0.00    -0.078 C 
ATOM     28  C   UNL     1       2.435  -6.675   1.431  0.00  0.00    -0.020 C 
ATOM     29  C   UNL     1       3.300  -5.419   1.176  0.00  0.00    -0.020 C 
ATOM     30  C   UNL     1       2.295  -4.292   0.875  0.00  0.00    -0.078 C 
ATOM     31  H   UNL     1       0.575  -4.734   1.916  0.00  0.00    -0.081 HD
ENDBRANCH  18  26
ENDBRANCH  17  18
ENDBRANCH   1  17
TORSDOF 6
