REMARK  Name = ZINC13064136
REMARK  16 active torsions:
REMARK  status: ('A' for Active; 'I' for Inactive)
REMARK    1  A    between atoms: C_1  and  C_2
REMARK    2  A    between atoms: C_2  and  C_3
REMARK    3  A    between atoms: C_3  and  C_5
REMARK    4  A    between atoms: C_3  and  N_72
REMARK    5  A    between atoms: N_9  and  C_10
REMARK    6  A    between atoms: C_10  and  C_11
REMARK    7  A    between atoms: C_10  and  C_12
REMARK    8  A    between atoms: C_10  and  C_13
REMARK    9  A    between atoms: C_13  and  C_14
REMARK   10  A    between atoms: C_15  and  C_16
REMARK   11  A    between atoms: C_15  and  N_72
REMARK   12  A    between atoms: C_19  and  C_22
REMARK   13  A    between atoms: C_23  and  C_24
REMARK   14  A    between atoms: C_23  and  N_72
REMARK   15  A    between atoms: C_28  and  O_36
REMARK   16  A    between atoms: O_36  and  C_37
REMARK                            x       y       z     vdW  Elec       q    Type
REMARK                         _______ _______ _______ _____ _____    ______ ____
ROOT
ATOM      1  N   UNL     1       0.764  -1.049   4.111  0.00  0.00    +0.392 N 
ATOM      2  H   UNL     1       0.033  -1.748   3.936  0.00  0.00    -0.080 HD
ENDROOT
BRANCH   1   3
ATOM      3  C   UNL     1       0.852  -0.144   2.946  0.00  0.00    +0.003 C 
BRANCH   3   4
ATOM      4  C   UNL     1      -0.535   0.075   2.400  0.00  0.00    +0.139 A 
ATOM      5  N   UNL     1      -1.640   0.196   3.096  0.00  0.00    -0.115 NA
ATOM      6  N   UNL     1      -2.614   0.366   2.270  0.00  0.00    -0.023 NA
ATOM      7  N   UNL     1      -2.159   0.362   1.065  0.00  0.00    -0.043 NA
ATOM      8  N   UNL     1      -0.881   0.189   1.104  0.00  0.00    -0.225 N 
BRANCH   8   9
ATOM      9  C   UNL     1       0.024   0.122  -0.046  0.00  0.00    +0.061 C 
ATOM     10  C   UNL     1       0.623  -1.283  -0.143  0.00  0.00    +0.036 C 
ATOM     11  C   UNL     1       1.148   1.145   0.128  0.00  0.00    +0.036 C 
BRANCH   9  12
ATOM     12  C   UNL     1      -0.755   0.434  -1.326  0.00  0.00    +0.026 C 
ATOM     13  C   UNL     1       0.189   0.364  -2.528  0.00  0.00    +0.006 C 
ENDBRANCH   9  12
ENDBRANCH   8   9
ENDBRANCH   3   4
BRANCH   3  15
ATOM     14  C   UNL     1       2.860   0.975   3.926  0.00  0.00    +0.002 C 
ATOM     15  C   UNL     1       1.457   1.200   3.357  0.00  0.00    -0.011 C 
ENDBRANCH   3  15
ENDBRANCH   1   3
BRANCH   1  16
ATOM     16  C   UNL     1       2.053  -1.742   4.312  0.00  0.00    -0.042 C 
BRANCH  16  17
ATOM     17  C   UNL     1       2.212  -2.789   3.240  0.00  0.00    -0.064 A 
ATOM     18  C   UNL     1       1.518  -3.982   3.331  0.00  0.00    +0.002 A 
ATOM     19  C   UNL     1       1.660  -4.941   2.346  0.00  0.00    +0.003 A 
ATOM     20  C   UNL     1       2.503  -4.712   1.274  0.00  0.00    -0.050 A 
ATOM     21  C   UNL     1       3.200  -3.522   1.186  0.00  0.00    +0.003 A 
ATOM     22  C   UNL     1       3.055  -2.561   2.169  0.00  0.00    +0.002 A 
ATOM     23  C   UNL     1       2.661  -5.759   0.203  0.00  0.00    +0.044 C 
ENDBRANCH  16  17
ENDBRANCH   1  16
BRANCH   1  24
ATOM     24  C   UNL     1       0.410  -0.279   5.322  0.00  0.00    -0.036 C 
BRANCH  24  25
ATOM     25  C   UNL     1      -1.081  -0.065   5.339  0.00  0.00    +0.001 A 
ATOM     26  C   UNL     1      -1.913  -1.119   5.529  0.00  0.00    +0.017 A 
ATOM     27  C   UNL     1      -3.357  -0.878   5.544  0.00  0.00    +0.002 A 
ATOM     28  C   UNL     1      -4.262  -1.927   5.741  0.00  0.00    +0.055 A 
ATOM     29  C   UNL     1      -5.617  -1.665   5.745  0.00  0.00    +0.121 A 
ATOM     30  C   UNL     1      -6.083  -0.366   5.554  0.00  0.00    +0.047 A 
ATOM     31  C   UNL     1      -5.202   0.674   5.359  0.00  0.00    +0.030 A 
ATOM     32  C   UNL     1      -3.832   0.432   5.352  0.00  0.00    +0.049 A 
ATOM     33  N   UNL     1      -2.933   1.462   5.159  0.00  0.00    -0.322 N 
ATOM     34  H   UNL     1      -3.261   2.365   5.027  0.00  0.00    +0.169 HD
ATOM     35  C   UNL     1      -1.609   1.230   5.151  0.00  0.00    +0.251 A 
ATOM     36  O   UNL     1      -0.844   2.164   4.978  0.00  0.00    -0.268 OA
BRANCH  29  37
ATOM     37  O   UNL     1      -6.502  -2.680   5.935  0.00  0.00    -0.495 OA
ATOM     38  C   UNL     1      -7.890  -2.341   5.928  0.00  0.00    +0.277 C 
ENDBRANCH  29  37
ENDBRANCH  24  25
ENDBRANCH   1  24
TORSDOF 10
