REMARK  Name = ZINC62093546
REMARK  6 active torsions:
REMARK  status: ('A' for Active; 'I' for Inactive)
REMARK    1  A    between atoms: C_1  and  C_2
REMARK    2  A    between atoms: C_2  and  C_3
REMARK    3  A    between atoms: C_3  and  C_4
REMARK    4  A    between atoms: C_3  and  C_6
REMARK    5  A    between atoms: C_4  and  C_5
REMARK    6  A    between atoms: N_11  and  C_14
REMARK                            x       y       z     vdW  Elec       q    Type
REMARK                         _______ _______ _______ _____ _____    ______ ____
ROOT
ATOM      1  C   UNL     1      -1.717  -1.798   0.139  0.00  0.00    +0.219 C 
ATOM      2  O   UNL     1      -2.135  -2.365  -0.848  0.00  0.00    -0.275 OA
ATOM      3  N   UNL     1      -1.243  -2.514   1.178  0.00  0.00    -0.298 N 
ATOM      4  C   UNL     1      -0.782  -1.843   2.401  0.00  0.00    +0.126 C 
ATOM      5  C   UNL     1      -1.546  -2.424   3.598  0.00  0.00    +0.124 C 
ATOM      6  N   UNL     1      -1.482  -3.890   3.528  0.00  0.00    -0.327 N 
ATOM      7  C   UNL     1      -1.943  -4.562   2.305  0.00  0.00    +0.124 C 
ATOM      8  C   UNL     1      -1.185  -3.981   1.111  0.00  0.00    +0.126 C 
ENDROOT
BRANCH   6   9
ATOM      9  C   UNL     1      -0.991  -4.634   4.606  0.00  0.00    +0.030 A 
ATOM     10  C   UNL     1      -0.457  -3.987   5.714  0.00  0.00    +0.025 A 
ATOM     11  C   UNL     1       0.029  -4.717   6.778  0.00  0.00    +0.025 A 
ATOM     12  C   UNL     1      -0.012  -6.110   6.751  0.00  0.00    +0.037 A 
ATOM     13  C   UNL     1      -0.548  -6.748   5.639  0.00  0.00    -0.016 A 
ATOM     14  C   UNL     1      -1.039  -6.022   4.577  0.00  0.00    +0.029 A 
ATOM     15  C   UNL     1      -0.451  -8.231   5.911  0.00  0.00    +0.133 C 
ATOM     16  C   UNL     1       0.191  -8.314   7.280  0.00  0.00    +0.222 C 
ATOM     17  O   UNL     1       0.456  -9.328   7.891  0.00  0.00    -0.275 OA
ATOM     18  N   UNL     1       0.410  -7.054   7.691  0.00  0.00    -0.285 N 
ATOM     19  H   UNL     1       0.815  -6.826   8.542  0.00  0.00    +0.155 HD
ENDBRANCH   6   9
BRANCH   1  20
ATOM     20  C   UNL     1      -1.728  -0.293   0.204  0.00  0.00    +0.075 C 
BRANCH  20  22
ATOM     21  C   UNL     1       0.317  -0.240  -1.230  0.00  0.00    +0.004 C 
ATOM     22  C   UNL     1      -0.295   0.233   0.089  0.00  0.00    +0.009 C 
ENDBRANCH  20  22
BRANCH  20  23
ATOM     23  C   UNL     1      -2.569   0.262  -0.947  0.00  0.00    +0.009 C 
ATOM     24  C   UNL     1      -2.654   1.785  -0.830  0.00  0.00    +0.004 C 
ENDBRANCH  20  23
ENDBRANCH   1  20
TORSDOF 4
