REMARK  Name = ZINC06614683
REMARK  7 active torsions:
REMARK  status: ('A' for Active; 'I' for Inactive)
REMARK    1  A    between atoms: C_1  and  C_2
REMARK    2  A    between atoms: C_7  and  N_8
REMARK    3  A    between atoms: N_8  and  C_9
REMARK    4  A    between atoms: C_9  and  N_11
REMARK    5  A    between atoms: N_11  and  N_12
REMARK    6  A    between atoms: N_12  and  S_13
REMARK    7  A    between atoms: S_13  and  C_16
REMARK                            x       y       z     vdW  Elec       q    Type
REMARK                         _______ _______ _______ _____ _____    ______ ____
ROOT
ATOM      1  N   UNL     1      -1.403   5.769  -2.100  0.00  0.00    -0.243 N 
ATOM      2  H   UNL     1      -1.788   4.886  -1.990  0.00  0.00    +0.170 HD
ENDROOT
BRANCH   1   3
ATOM      3  C   UNL     1      -2.097   6.733  -2.737  0.00  0.00    +0.150 C 
ATOM      4  S   UNL     1      -3.659   6.398  -3.352  0.00  0.00    -0.017 S 
BRANCH   3   5
ATOM      5  N   UNL     1      -1.561   7.960  -2.890  0.00  0.00    -0.296 N 
ATOM      6  H   UNL     1      -0.711   8.174  -2.474  0.00  0.00    +0.154 HD
BRANCH   5  13
ATOM      7  C   UNL     1      -1.718  10.608  -1.860  0.00  0.00    +0.045 C 
ATOM      8  C   UNL     1      -2.331  10.230  -3.184  0.00  0.00    -0.029 A 
ATOM      9  C   UNL     1      -2.992  11.182  -3.936  0.00  0.00    +0.005 A 
ATOM     10  C   UNL     1      -3.553  10.836  -5.152  0.00  0.00    +0.000 A 
ATOM     11  C   UNL     1      -3.455   9.538  -5.618  0.00  0.00    +0.002 A 
ATOM     12  C   UNL     1      -2.791   8.583  -4.873  0.00  0.00    +0.023 A 
ATOM     13  C   UNL     1      -2.230   8.926  -3.650  0.00  0.00    +0.036 A 
ENDBRANCH   5  13
ENDBRANCH   3   5
ENDBRANCH   1   3
BRANCH   1  14
ATOM     14  N   UNL     1      -0.124   6.043  -1.597  0.00  0.00    -0.109 NA
ATOM     15  H   UNL     1       0.563   6.394  -2.184  0.00  0.00    +0.172 HD
BRANCH  14  16
ATOM     16  S   UNL     1       0.213   5.767   0.001  0.00  0.00    +0.074 S 
ATOM     17  O   UNL     1      -0.771   6.466   0.750  0.00  0.00    -0.152 OA
ATOM     18  O   UNL     1       1.605   6.000   0.168  0.00  0.00    -0.152 OA
BRANCH  16  19
ATOM     19  C   UNL     1      -0.050   4.051   0.300  0.00  0.00    +0.107 A 
ATOM     20  C   UNL     1       0.989   3.154   0.137  0.00  0.00    +0.028 A 
ATOM     21  C   UNL     1       0.782   1.807   0.373  0.00  0.00    +0.002 A 
ATOM     22  C   UNL     1      -0.464   1.358   0.770  0.00  0.00    +0.000 A 
ATOM     23  C   UNL     1      -1.504   2.255   0.927  0.00  0.00    +0.002 A 
ATOM     24  C   UNL     1      -1.296   3.602   0.697  0.00  0.00    +0.028 A 
ENDBRANCH  16  19
ENDBRANCH  14  16
ENDBRANCH   1  14
TORSDOF 6
