REMARK  Name = ZINC36601792
REMARK  13 active torsions:
REMARK  status: ('A' for Active; 'I' for Inactive)
REMARK    1  A    between atoms: C_1  and  C_2
REMARK    2  A    between atoms: C_5  and  S_8
REMARK    3  A    between atoms: S_8  and  C_11
REMARK    4  A    between atoms: C_11  and  N_12
REMARK    5  A    between atoms: C_13  and  C_15
REMARK    6  A    between atoms: C_15  and  C_17
REMARK    7  A    between atoms: C_15  and  N_26
REMARK    8  A    between atoms: C_20  and  N_23
REMARK    9  A    between atoms: N_26  and  C_27
REMARK   10  A    between atoms: C_27  and  C_28
REMARK   11  A    between atoms: C_31  and  C_33
REMARK   12  A    between atoms: C_34  and  C_36
REMARK   13  A    between atoms: C_36  and  C_38
REMARK                            x       y       z     vdW  Elec       q    Type
REMARK                         _______ _______ _______ _____ _____    ______ ____
ROOT
ATOM      1  C   UNL     1       2.479  -6.564   1.514  0.00  0.00    +0.193 C 
ENDROOT
BRANCH   1   2
ATOM      2  C   UNL     1       2.616  -5.274   0.748  0.00  0.00    -0.018 A 
ATOM      3  C   UNL     1       3.861  -4.854   0.319  0.00  0.00    +0.008 A 
ATOM      4  C   UNL     1       3.987  -3.670  -0.384  0.00  0.00    +0.033 A 
ATOM      5  C   UNL     1       2.868  -2.906  -0.658  0.00  0.00    +0.126 A 
ATOM      6  C   UNL     1       1.623  -3.327  -0.229  0.00  0.00    +0.033 A 
ATOM      7  C   UNL     1       1.496  -4.513   0.469  0.00  0.00    +0.008 A 
BRANCH   5   8
ATOM      8  N   UNL     1       3.003  -1.638  -1.409  0.00  0.00    +0.056 N 
ATOM      9  O   UNL     1       4.092  -1.270  -1.783  0.00  0.00    -0.126 OA
ATOM     10  O   UNL     1       2.024  -0.970  -1.648  0.00  0.00    -0.126 OA
ENDBRANCH   5   8
ENDBRANCH   1   2
BRANCH   1  12
ATOM     11  N   UNL     1       1.314  -8.131  -0.005  0.00  0.00    -0.294 N 
ATOM     12  C   UNL     1       2.473  -7.722   0.549  0.00  0.00    +0.239 C 
ATOM     13  O   UNL     1       3.510  -8.286   0.272  0.00  0.00    -0.273 OA
ATOM     14  H   UNL     1       0.484  -7.680   0.217  0.00  0.00    +0.150 HD
BRANCH  11  15
ATOM     15  C   UNL     1       1.308  -9.257  -0.942  0.00  0.00    +0.278 C 
BRANCH  15  16
ATOM     16  S   UNL     1       0.918 -10.787  -0.048  0.00  0.00    +0.013 S 
ATOM     17  O   UNL     1       1.703 -10.876   1.133  0.00  0.00    -0.168 OA
ATOM     18  O   UNL     1       0.846 -11.879  -0.954  0.00  0.00    -0.168 OA
BRANCH  16  23
ATOM     19  C   UNL     1      -4.738 -10.040   1.916  0.00  0.00    +0.044 C 
ATOM     20  C   UNL     1      -3.325 -10.226   1.425  0.00  0.00    -0.050 A 
ATOM     21  C   UNL     1      -3.093 -10.797   0.188  0.00  0.00    +0.005 A 
ATOM     22  C   UNL     1      -1.797 -10.968  -0.262  0.00  0.00    +0.027 A 
ATOM     23  C   UNL     1      -0.734 -10.568   0.525  0.00  0.00    +0.090 A 
ATOM     24  C   UNL     1      -0.966  -9.996   1.762  0.00  0.00    +0.027 A 
ATOM     25  C   UNL     1      -2.262  -9.822   2.211  0.00  0.00    +0.005 A 
ENDBRANCH  16  23
ENDBRANCH  15  16
ENDBRANCH  11  15
ENDBRANCH   1  12
BRANCH   1  26
ATOM     26  N   UNL     1       3.607  -6.705   2.438  0.00  0.00    -0.275 N 
ATOM     27  C   UNL     1       4.282  -5.614   2.849  0.00  0.00    +0.243 C 
ATOM     28  O   UNL     1       3.827  -4.505   2.645  0.00  0.00    -0.270 OA
BRANCH  27  29
ATOM     29  C   UNL     1       5.571  -5.764   3.542  0.00  0.00    +0.004 C 
ATOM     30  C   UNL     1       6.556  -4.902   3.310  0.00  0.00    +0.017 C 
ATOM     31  C   UNL     1       5.774  -6.896   4.517  0.00  0.00    +0.048 C 
ENDBRANCH  27  29
BRANCH  26  32
ATOM     32  C   UNL     1       3.999  -8.033   2.918  0.00  0.00    +0.183 C 
BRANCH  32  33
ATOM     33  C   UNL     1       5.275  -8.456   2.236  0.00  0.00    +0.122 A 
ATOM     34  C   UNL     1       6.068  -9.475   2.613  0.00  0.00    +0.046 A 
ATOM     35  C   UNL     1       7.146  -9.515   1.699  0.00  0.00    +0.045 A 
ATOM     36  C   UNL     1       6.947  -8.518   0.819  0.00  0.00    +0.102 A 
ATOM     37  O   UNL     1       5.809  -7.884   1.145  0.00  0.00    -0.463 OA
ATOM     38  C   UNL     1       7.846  -8.174  -0.341  0.00  0.00    +0.086 C 
ENDBRANCH  32  33
ENDBRANCH  26  32
ENDBRANCH   1  26
TORSDOF 10
