REMARK  Name = ZINC08988690
REMARK  6 active torsions:
REMARK  status: ('A' for Active; 'I' for Inactive)
REMARK    1  A    between atoms: C_1  and  C_2
REMARK    2  A    between atoms: C_16  and  C_17
REMARK    3  A    between atoms: C_16  and  N_62
REMARK    4  A    between atoms: N_19  and  C_20
REMARK    5  A    between atoms: C_24  and  S_26
REMARK    6  A    between atoms: S_26  and  N_29
REMARK                            x       y       z     vdW  Elec       q    Type
REMARK                         _______ _______ _______ _____ _____    ______ ____
ROOT
ATOM      1  C   UNL     1      -3.631  -0.273   1.441  0.00  0.00    -0.008 C 
ATOM      2  C   UNL     1      -4.931   0.526   1.336  0.00  0.00    -0.040 C 
ATOM      3  C   UNL     1      -6.102  -0.421   1.380  0.00  0.00    -0.054 A 
ATOM      4  C   UNL     1      -6.064  -1.477   2.278  0.00  0.00    +0.051 A 
ATOM      5  C   UNL     1      -7.119  -2.372   2.357  0.00  0.00    +0.162 A 
ATOM      6  C   UNL     1      -8.225  -2.205   1.532  0.00  0.00    +0.162 A 
ATOM      7  C   UNL     1      -8.256  -1.151   0.634  0.00  0.00    +0.053 A 
ATOM      8  C   UNL     1      -7.196  -0.261   0.556  0.00  0.00    -0.038 A 
ATOM      9  C   UNL     1      -7.269   0.863  -0.443  0.00  0.00    -0.019 C 
ATOM     10  C   UNL     1      -8.682   1.478  -0.427  0.00  0.00    +0.010 C 
ATOM     11  C   UNL     1      -8.965   1.813  -1.913  0.00  0.00    +0.001 C 
ATOM     12  C   UNL     1      -8.319   0.621  -2.662  0.00  0.00    +0.001 C 
ATOM     13  C   UNL     1      -7.036   0.319  -1.860  0.00  0.00    +0.010 C 
ATOM     14  C   UNL     1      -6.236   1.938  -0.120  0.00  0.00    -0.066 C 
ATOM     15  O   UNL     1      -9.276  -3.058   1.603  0.00  0.00    -0.485 OA
ATOM     16  C   UNL     1      -9.127  -4.285   2.301  0.00  0.00    +0.270 C 
ATOM     17  C   UNL     1      -8.243  -4.131   3.528  0.00  0.00    +0.270 C 
ATOM     18  O   UNL     1      -7.061  -3.402   3.236  0.00  0.00    -0.485 OA
ATOM     19  N   UNL     1      -4.931   1.271   0.066  0.00  0.00    +0.390 N 
ATOM     20  H   UNL     1      -4.778   0.613  -0.708  0.00  0.00    -0.080 HD
ENDROOT
BRANCH  19  21
ATOM     21  C   UNL     1      -3.842   2.274   0.068  0.00  0.00    +0.020 C 
BRANCH  21  22
ATOM     22  C   UNL     1      -3.619   2.752  -1.344  0.00  0.00    +0.201 C 
ATOM     23  O   UNL     1      -4.226   2.240  -2.261  0.00  0.00    -0.278 OA
ATOM     24  N   UNL     1      -2.745   3.749  -1.587  0.00  0.00    -0.287 N 
ATOM     25  H   UNL     1      -2.205   4.108  -0.866  0.00  0.00    +0.155 HD
BRANCH  24  26
ATOM     26  C   UNL     1      -2.616   4.266  -2.881  0.00  0.00    +0.035 A 
ATOM     27  C   UNL     1      -3.721   4.325  -3.720  0.00  0.00    +0.023 A 
ATOM     28  C   UNL     1      -3.592   4.842  -4.995  0.00  0.00    +0.004 A 
ATOM     29  C   UNL     1      -2.363   5.299  -5.435  0.00  0.00    +0.028 A 
ATOM     30  C   UNL     1      -1.261   5.242  -4.602  0.00  0.00    +0.107 A 
ATOM     31  C   UNL     1      -1.384   4.726  -3.327  0.00  0.00    +0.051 A 
BRANCH  30  32
ATOM     32  S   UNL     1       0.301   5.827  -5.169  0.00  0.00    +0.056 S 
ATOM     33  O   UNL     1       1.289   5.161  -4.394  0.00  0.00    -0.153 OA
ATOM     34  O   UNL     1       0.271   5.757  -6.588  0.00  0.00    -0.153 OA
BRANCH  32  35
ATOM     35  N   UNL     1       0.395   7.433  -4.776  0.00  0.00    -0.204 NA
ATOM     36  H   UNL     1      -0.343   7.864  -4.316  0.00  0.00    +0.144 HD
ATOM     37  H   UNL     1       1.187   7.943  -5.005  0.00  0.00    +0.144 HD
ENDBRANCH  32  35
ENDBRANCH  30  32
ENDBRANCH  24  26
ENDBRANCH  21  22
ENDBRANCH  19  21
TORSDOF 5
