REMARK  Name = ZINC49026444
REMARK  8 active torsions:
REMARK  status: ('A' for Active; 'I' for Inactive)
REMARK    1  A    between atoms: C_1  and  C_2
REMARK    2  A    between atoms: C_3  and  C_9
REMARK    3  A    between atoms: C_4  and  C_8
REMARK    4  A    between atoms: C_9  and  C_10
REMARK    5  A    between atoms: C_10  and  C_11
REMARK    6  A    between atoms: N_13  and  C_14
REMARK    7  A    between atoms: C_14  and  C_15
REMARK    8  A    between atoms: C_15  and  C_16
REMARK                            x       y       z     vdW  Elec       q    Type
REMARK                         _______ _______ _______ _____ _____    ______ ____
ROOT
ATOM      1  C   UNL     1       1.418   0.322  -4.451  0.00  0.00    +0.213 C 
ATOM      2  O   UNL     1       0.362   0.496  -5.022  0.00  0.00    -0.276 OA
ATOM      3  N   UNL     1       2.579   0.548  -5.097  0.00  0.00    -0.315 N 
ATOM      4  H   UNL     1       3.424   0.409  -4.640  0.00  0.00    +0.149 HD
ENDROOT
BRANCH   1   5
ATOM      5  C   UNL     1       1.432  -0.147  -3.019  0.00  0.00    +0.100 C 
BRANCH   5   6
ATOM      6  C   UNL     1      -0.006  -0.327  -2.527  0.00  0.00    +0.048 C 
BRANCH   6   9
ATOM      7  C   UNL     1      -0.018   1.503   0.010  0.00  0.00    +0.065 C 
ATOM      8  C   UNL     1       0.002  -0.004   0.002  0.00  0.00    +0.036 A 
ATOM      9  C   UNL     1       0.008  -0.796  -1.095  0.00  0.00    -0.004 A 
ATOM     10  C   UNL     1       0.028  -2.127  -0.666  0.00  0.00    +0.063 A 
ATOM     11  N   UNL     1       0.035  -2.134   0.643  0.00  0.00    -0.179 NA
ATOM     12  N   UNL     1       0.024  -0.805   1.088  0.00  0.00    -0.281 N 
ATOM     13  H   UNL     1       0.029  -0.513   2.013  0.00  0.00    +0.189 HD
ATOM     14  C   UNL     1       0.040  -3.343  -1.556  0.00  0.00    +0.068 C 
ENDBRANCH   6   9
ENDBRANCH   5   6
ENDBRANCH   1   5
BRANCH   3  15
ATOM     15  C   UNL     1       2.566   1.005  -6.489  0.00  0.00    +0.109 C 
BRANCH  15  16
ATOM     16  C   UNL     1       4.003   1.184  -6.981  0.00  0.00    +0.056 C 
BRANCH  16  17
ATOM     17  C   UNL     1       3.990   1.653  -8.413  0.00  0.00    -0.021 A 
ATOM     18  C   UNL     1       4.084   0.881  -9.507  0.00  0.00    +0.087 A 
ATOM     19  N   UNL     1       4.035   1.659 -10.632  0.00  0.00    -0.360 N 
ATOM     20  H   UNL     1       4.085   1.326 -11.542  0.00  0.00    +0.165 HD
ATOM     21  C   UNL     1       3.906   2.983 -10.280  0.00  0.00    +0.047 A 
ATOM     22  C   UNL     1       3.865   3.038  -8.875  0.00  0.00    +0.003 A 
ATOM     23  C   UNL     1       3.731   4.268  -8.229  0.00  0.00    +0.010 A 
ATOM     24  C   UNL     1       3.636   5.415  -8.966  0.00  0.00    +0.001 A 
ATOM     25  C   UNL     1       3.672   5.366 -10.353  0.00  0.00    +0.002 A 
ATOM     26  C   UNL     1       3.813   4.163 -11.011  0.00  0.00    +0.026 A 
ENDBRANCH  16  17
ENDBRANCH  15  16
ENDBRANCH   3  15
TORSDOF 6
