REMARK  Name = ZINC39675203
REMARK  10 active torsions:
REMARK  status: ('A' for Active; 'I' for Inactive)
REMARK    1  A    between atoms: C_1  and  C_2
REMARK    2  A    between atoms: C_2  and  C_4
REMARK    3  A    between atoms: C_2  and  N_14
REMARK    4  A    between atoms: C_4  and  C_5
REMARK    5  A    between atoms: C_5  and  C_6
REMARK    6  A    between atoms: C_9  and  O_12
REMARK    7  A    between atoms: O_12  and  C_13
REMARK    8  A    between atoms: C_15  and  C_17
REMARK    9  A    between atoms: C_28  and  C_30
REMARK   10  A    between atoms: C_33  and  C_36
REMARK                            x       y       z     vdW  Elec       q    Type
REMARK                         _______ _______ _______ _____ _____    ______ ____
ROOT
ATOM      1  C   UNL     1       2.799  -0.465   2.244  0.00  0.00    +0.100 C 
ATOM      2  C   UNL     1       2.652   0.278   3.591  0.00  0.00    +0.121 C 
ATOM      3  N   UNL     1       3.983   0.158   4.231  0.00  0.00    -0.296 N 
ATOM      4  C   UNL     1       4.945   0.328   3.116  0.00  0.00    +0.115 C 
ATOM      5  C   UNL     1       4.305  -0.428   1.935  0.00  0.00    -0.004 C 
ATOM      6  C   UNL     1       4.559   0.320   0.630  0.00  0.00    -0.010 C 
ATOM      7  C   UNL     1       6.057   0.292   0.314  0.00  0.00    -0.082 C 
ATOM      8  N   UNL     1       6.509  -1.099   0.199  0.00  0.00    +0.379 N 
ATOM      9  C   UNL     1       6.348  -1.786   1.487  0.00  0.00    -0.082 C 
ATOM     10  C   UNL     1       4.862  -1.846   1.852  0.00  0.00    -0.010 C 
ATOM     11  C   UNL     1       4.258  -0.057   5.533  0.00  0.00    +0.247 C 
ATOM     12  O   UNL     1       3.356  -0.287   6.315  0.00  0.00    -0.270 OA
ATOM     13  H   UNL     1       5.962  -1.573  -0.504  0.00  0.00    -0.086 HD
ATOM     14  H   UNL     1       7.482  -1.115  -0.069  0.00  0.00    -0.086 HD
ENDROOT
BRANCH  11  15
ATOM     15  C   UNL     1       5.656  -0.012   6.011  0.00  0.00    +0.037 A 
ATOM     16  C   UNL     1       6.627   0.668   5.275  0.00  0.00    +0.013 A 
ATOM     17  C   UNL     1       7.930   0.706   5.726  0.00  0.00    +0.013 A 
ATOM     18  C   UNL     1       8.275   0.071   6.906  0.00  0.00    +0.055 A 
ATOM     19  C   UNL     1       7.318  -0.606   7.641  0.00  0.00    +0.013 A 
ATOM     20  C   UNL     1       6.010  -0.646   7.203  0.00  0.00    +0.013 A 
BRANCH  18  21
ATOM     21  C   UNL     1       9.701   0.116   7.393  0.00  0.00    +0.417 C 
ATOM     22  F   UNL     1       9.877   1.234   8.216  0.00  0.00    -0.166 F 
ATOM     23  F   UNL     1       9.983  -1.046   8.119  0.00  0.00    -0.166 F 
ATOM     24  F   UNL     1      10.566   0.202   6.297  0.00  0.00    -0.166 F 
ENDBRANCH  18  21
ENDBRANCH  11  15
BRANCH   1  26
ATOM     25  N   UNL     1       1.519  -0.447   0.127  0.00  0.00    -0.312 N 
ATOM     26  C   UNL     1       2.025   0.248   1.165  0.00  0.00    +0.218 C 
ATOM     27  O   UNL     1       1.856   1.448   1.231  0.00  0.00    -0.275 OA
ATOM     28  H   UNL     1       1.653  -1.406   0.075  0.00  0.00    +0.149 HD
BRANCH  25  30
ATOM     29  C   UNL     1      -0.696   0.385  -0.492  0.00  0.00    +0.028 C 
ATOM     30  C   UNL     1       0.766   0.246  -0.921  0.00  0.00    +0.070 C 
BRANCH  30  31
ATOM     31  C   UNL     1       0.842  -0.559  -2.220  0.00  0.00    +0.026 C 
BRANCH  31  32
ATOM     32  C   UNL     1       2.289  -0.593  -2.716  0.00  0.00    +0.037 C 
BRANCH  32  33
ATOM     33  C   UNL     1       2.364  -1.386  -3.995  0.00  0.00    -0.047 A 
ATOM     34  C   UNL     1       2.585  -2.750  -3.950  0.00  0.00    +0.007 A 
ATOM     35  C   UNL     1       2.655  -3.479  -5.121  0.00  0.00    +0.046 A 
ATOM     36  C   UNL     1       2.502  -2.841  -6.343  0.00  0.00    +0.120 A 
ATOM     37  C   UNL     1       2.279  -1.472  -6.386  0.00  0.00    +0.046 A 
ATOM     38  C   UNL     1       2.205  -0.749  -5.212  0.00  0.00    +0.007 A 
BRANCH  36  39
ATOM     39  O   UNL     1       2.570  -3.556  -7.497  0.00  0.00    -0.495 OA
ATOM     40  C   UNL     1       2.403  -2.834  -8.719  0.00  0.00    +0.277 C 
ENDBRANCH  36  39
ENDBRANCH  32  33
ENDBRANCH  31  32
ENDBRANCH  30  31
ENDBRANCH  25  30
ENDBRANCH   1  26
TORSDOF 8
