REMARK  Name = ZINC27515764
REMARK  12 active torsions:
REMARK  status: ('A' for Active; 'I' for Inactive)
REMARK    1  A    between atoms: C_1  and  C_2
REMARK    2  A    between atoms: C_3  and  C_30
REMARK    3  A    between atoms: C_4  and  C_10
REMARK    4  A    between atoms: C_13  and  C_16
REMARK    5  A    between atoms: C_18  and  C_21
REMARK    6  A    between atoms: C_24  and  C_27
REMARK    7  A    between atoms: C_27  and  C_29
REMARK    8  A    between atoms: C_30  and  O_32
REMARK    9  A    between atoms: O_32  and  C_33
REMARK   10  A    between atoms: C_33  and  C_34
REMARK   11  A    between atoms: C_33  and  C_35
REMARK   12  A    between atoms: C_33  and  C_36
REMARK                            x       y       z     vdW  Elec       q    Type
REMARK                         _______ _______ _______ _____ _____    ______ ____
ROOT
ATOM      1  C   UNL     1      -1.688  -2.748   0.418  0.00  0.00    -0.022 A 
ATOM      2  C   UNL     1      -2.312  -3.469   1.420  0.00  0.00    +0.006 A 
ATOM      3  C   UNL     1      -3.669  -3.332   1.631  0.00  0.00    +0.012 A 
ATOM      4  C   UNL     1      -4.414  -2.471   0.824  0.00  0.00    +0.017 A 
ATOM      5  C   UNL     1      -3.780  -1.750  -0.189  0.00  0.00    +0.012 A 
ATOM      6  C   UNL     1      -2.422  -1.893  -0.386  0.00  0.00    +0.006 A 
ENDROOT
BRANCH   1  10
ATOM      7  C   UNL     1       2.118  -1.847   3.088  0.00  0.00    +0.061 C 
ATOM      8  C   UNL     1       1.381  -2.659   2.054  0.00  0.00    +0.021 C 
ATOM      9  C   UNL     1       0.509  -2.045   1.226  0.00  0.00    +0.078 C 
ATOM     10  C   UNL     1      -0.205  -2.898   0.197  0.00  0.00    +0.143 C 
ATOM     11  N   UNL     1       0.108  -4.337   0.189  0.00  0.00    -0.288 N 
ATOM     12  C   UNL     1       1.000  -4.804   1.085  0.00  0.00    +0.304 C 
ATOM     13  O   UNL     1       1.265  -5.990   1.086  0.00  0.00    -0.252 OA
ATOM     14  N   UNL     1       1.603  -4.004   1.973  0.00  0.00    -0.273 N 
ATOM     15  H   UNL     1      -0.382  -5.002  -0.537  0.00  0.00    +0.151 HD
ATOM     16  H   UNL     1       2.310  -4.488   2.663  0.00  0.00    +0.156 HD
BRANCH   9  17
ATOM     17  C   UNL     1       0.275  -0.653   1.311  0.00  0.00    +0.339 C 
ATOM     18  O   UNL     1       0.766  -0.008   2.219  0.00  0.00    -0.245 OA
BRANCH  17  19
ATOM     19  O   UNL     1      -0.492  -0.040   0.386  0.00  0.00    -0.456 OA
BRANCH  19  20
ATOM     20  C   UNL     1      -0.686   1.369   0.535  0.00  0.00    +0.106 C 
ATOM     21  C   UNL     1       0.668   2.078   0.482  0.00  0.00    +0.055 C 
ATOM     22  C   UNL     1      -1.576   1.883  -0.599  0.00  0.00    +0.055 C 
ATOM     23  C   UNL     1      -1.359   1.652   1.879  0.00  0.00    +0.055 C 
ENDBRANCH  19  20
ENDBRANCH  17  19
ENDBRANCH   9  17
ENDBRANCH   1  10
BRANCH   4  24
ATOM     24  C   UNL     1      -5.869  -2.323   1.041  0.00  0.00    +0.135 A 
ATOM     25  C   UNL     1      -6.598  -2.966   1.988  0.00  0.00    +0.058 A 
ATOM     26  C   UNL     1      -7.939  -2.526   1.835  0.00  0.00    +0.020 A 
ATOM     27  C   UNL     1      -7.944  -1.641   0.802  0.00  0.00    +0.204 A 
ATOM     28  O   UNL     1      -6.692  -1.524   0.337  0.00  0.00    -0.462 OA
BRANCH  26  29
ATOM     29  C   UNL     1      -9.107  -2.950   2.644  0.00  0.00    -0.015 A 
ATOM     30  C   UNL     1      -8.941  -3.879   3.674  0.00  0.00    +0.009 A 
ATOM     31  C   UNL     1     -10.015  -4.267   4.423  0.00  0.00    +0.012 A 
ATOM     32  C   UNL     1     -11.284  -3.742   4.151  0.00  0.00    +0.017 A 
ATOM     33  C   UNL     1     -11.448  -2.814   3.114  0.00  0.00    +0.012 A 
ATOM     34  C   UNL     1     -10.371  -2.425   2.370  0.00  0.00    +0.009 A 
BRANCH  32  35
ATOM     35  C   UNL     1     -12.441  -4.162   4.952  0.00  0.00    +0.160 C 
ATOM     36  O   UNL     1     -13.540  -3.706   4.716  0.00  0.00    -0.292 OA
ATOM     37  C   UNL     1     -12.263  -5.159   6.067  0.00  0.00    +0.091 C 
ENDBRANCH  32  35
ENDBRANCH  26  29
ENDBRANCH   4  24
TORSDOF 7
