REMARK  Name = ZINC23182979
REMARK  10 active torsions:
REMARK  status: ('A' for Active; 'I' for Inactive)
REMARK    1  A    between atoms: C_1  and  C_2
REMARK    2  A    between atoms: C_2  and  N_3
REMARK    3  A    between atoms: N_3  and  C_4
REMARK    4  A    between atoms: C_4  and  C_5
REMARK    5  A    between atoms: N_7  and  C_8
REMARK    6  A    between atoms: C_8  and  C_9
REMARK    7  A    between atoms: C_16  and  C_18
REMARK    8  A    between atoms: C_20  and  C_30
REMARK    9  A    between atoms: C_22  and  C_23
REMARK   10  A    between atoms: C_26  and  C_29
REMARK                            x       y       z     vdW  Elec       q    Type
REMARK                         _______ _______ _______ _____ _____    ______ ____
ROOT
ATOM      1  N   UNL     1       0.376   0.047  -0.256  0.00  0.00    -0.289 N 
ATOM      2  C   UNL     1      -0.751  -0.476  -0.779  0.00  0.00    +0.249 C 
ATOM      3  O   UNL     1      -1.646   0.259  -1.152  0.00  0.00    -0.270 OA
ENDROOT
BRANCH   2   4
ATOM      4  C   UNL     1      -0.899  -1.936  -0.897  0.00  0.00    +0.058 A 
ATOM      5  C   UNL     1      -0.513  -2.944   0.097  0.00  0.00    +0.036 A 
ATOM      6  C   UNL     1      -0.832  -4.140  -0.428  0.00  0.00    +0.023 A 
ATOM      7  N   UNL     1      -1.375  -3.948  -1.669  0.00  0.00    -0.299 N 
ATOM      8  C   UNL     1      -1.419  -2.625  -1.958  0.00  0.00    +0.034 A 
ATOM      9  C   UNL     1      -1.950  -2.017  -3.231  0.00  0.00    +0.065 C 
ATOM     10  C   UNL     1      -1.820  -4.968  -2.515  0.00  0.00    +0.181 A 
ATOM     11  C   UNL     1      -1.113  -6.146  -2.875  0.00  0.00    +0.094 A 
ATOM     12  C   UNL     1      -1.964  -6.797  -3.701  0.00  0.00    +0.136 A 
ATOM     13  O   UNL     1      -3.065  -6.037  -3.794  0.00  0.00    -0.358 OA
ATOM     14  N   UNL     1      -2.973  -5.032  -3.128  0.00  0.00    -0.060 NA
ATOM     15  C   UNL     1      -1.722  -8.118  -4.385  0.00  0.00    +0.089 C 
ATOM     16  C   UNL     1      -0.619  -5.474   0.238  0.00  0.00    +0.064 C 
ENDBRANCH   2   4
BRANCH   1  18
ATOM     17  C   UNL     1      -0.172   1.834   1.321  0.00  0.00    +0.024 C 
ATOM     18  C   UNL     1       0.474   1.490  -0.022  0.00  0.00    +0.105 C 
ENDBRANCH   1  18
BRANCH   1  19
ATOM     19  C   UNL     1       1.503  -0.828   0.077  0.00  0.00    +0.203 C 
BRANCH  19  20
ATOM     20  C   UNL     1       1.434  -1.201   1.536  0.00  0.00    +0.231 C 
ATOM     21  O   UNL     1       0.532  -0.779   2.228  0.00  0.00    -0.274 OA
ATOM     22  N   UNL     1       2.374  -2.005   2.071  0.00  0.00    -0.310 N 
ATOM     23  H   UNL     1       3.192  -2.389   1.443  0.00  0.00    +0.149 HD
BRANCH  22  24
ATOM     24  C   UNL     1       2.307  -2.368   3.488  0.00  0.00    +0.139 C 
BRANCH  24  25
ATOM     25  C   UNL     1       3.466  -3.268   3.832  0.00  0.00    -0.030 A 
ATOM     26  C   UNL     1       3.334  -4.639   3.717  0.00  0.00    +0.006 A 
ATOM     27  C   UNL     1       4.399  -5.465   4.027  0.00  0.00    +0.020 A 
ATOM     28  C   UNL     1       5.593  -4.919   4.462  0.00  0.00    +0.041 A 
ATOM     29  C   UNL     1       5.723  -3.547   4.581  0.00  0.00    +0.020 A 
ATOM     30  C   UNL     1       4.660  -2.722   4.266  0.00  0.00    +0.006 A 
ATOM     31 CL   UNL     1       6.929  -5.955   4.856  0.00  0.00    -0.084 Cl
ENDBRANCH  24  25
ENDBRANCH  22  24
ENDBRANCH  19  20
ENDBRANCH   1  19
TORSDOF 6
