REMARK  Name = ZINC33033207
REMARK  14 active torsions:
REMARK  status: ('A' for Active; 'I' for Inactive)
REMARK    1  A    between atoms: C_1  and  C_2
REMARK    2  A    between atoms: C_2  and  N_3
REMARK    3  A    between atoms: N_3  and  C_4
REMARK    4  A    between atoms: C_4  and  C_5
REMARK    5  A    between atoms: C_5  and  N_6
REMARK    6  A    between atoms: N_6  and  C_7
REMARK    7  A    between atoms: N_6  and  C_8
REMARK    8  A    between atoms: C_9  and  C_11
REMARK    9  A    between atoms: C_14  and  N_29
REMARK   10  A    between atoms: C_15  and  N_17
REMARK   11  A    between atoms: N_17  and  S_18
REMARK   12  A    between atoms: S_18  and  C_21
REMARK   13  A    between atoms: C_23  and  C_28
REMARK   14  A    between atoms: C_26  and  C_27
REMARK                            x       y       z     vdW  Elec       q    Type
REMARK                         _______ _______ _______ _____ _____    ______ ____
ROOT
ATOM      1  C   UNL     1      -4.363   2.135   0.931  0.00  0.00    +0.039 A 
ATOM      2  C   UNL     1      -4.474   2.241   2.320  0.00  0.00    +0.015 A 
ATOM      3  C   UNL     1      -4.218   1.148   3.117  0.00  0.00    +0.026 A 
ATOM      4  C   UNL     1      -3.849  -0.063   2.544  0.00  0.00    +0.052 A 
ATOM      5  C   UNL     1      -3.736  -0.176   1.156  0.00  0.00    +0.070 A 
ATOM      6  C   UNL     1      -3.987   0.920   0.352  0.00  0.00    +0.039 A 
ENDROOT
BRANCH   4   7
ATOM      7  N   UNL     1      -3.591  -1.167   3.355  0.00  0.00    -0.332 N 
ATOM      8  C   UNL     1      -3.530  -0.777   4.771  0.00  0.00    +0.086 C 
ATOM      9  C   UNL     1      -3.167  -1.999   5.618  0.00  0.00    -0.063 C 
ATOM     10  N   UNL     1      -4.170  -3.053   5.407  0.00  0.00    +0.381 N 
ATOM     11  C   UNL     1      -4.230  -3.443   3.992  0.00  0.00    -0.063 C 
ATOM     12  C   UNL     1      -4.593  -2.221   3.144  0.00  0.00    +0.086 C 
ATOM     13  H   UNL     1      -3.904  -3.937   6.006  0.00  0.00    -0.086 HD
ATOM     14  H   UNL     1      -5.159  -2.685   5.716  0.00  0.00    -0.086 HD
ENDBRANCH   4   7
BRANCH   1  16
ATOM     15  N   UNL     1      -5.626   4.162   0.404  0.00  0.00    -0.300 N 
ATOM     16  C   UNL     1      -4.638   3.307   0.076  0.00  0.00    +0.247 C 
ATOM     17  O   UNL     1      -3.973   3.499  -0.923  0.00  0.00    -0.270 OA
BRANCH  15  19
ATOM     18  C   UNL     1      -5.769   4.990   2.701  0.00  0.00    +0.024 C 
ATOM     19  C   UNL     1      -6.338   4.008   1.675  0.00  0.00    +0.104 C 
ENDBRANCH  15  19
BRANCH  15  20
ATOM     20  C   UNL     1      -5.988   5.247  -0.512  0.00  0.00    +0.089 C 
BRANCH  20  21
ATOM     21  C   UNL     1      -7.075   4.762  -1.473  0.00  0.00    -0.060 C 
BRANCH  21  22
ATOM     22  N   UNL     1      -7.438   5.850  -2.391  0.00  0.00    +0.377 N 
ATOM     23  C   UNL     1      -8.300   5.359  -3.475  0.00  0.00    -0.097 C 
ATOM     24  C   UNL     1      -8.080   6.957  -1.668  0.00  0.00    -0.097 C 
ATOM     25  H   UNL     1      -6.512   6.234  -2.844  0.00  0.00    -0.083 HD
ENDBRANCH  21  22
ENDBRANCH  20  21
ENDBRANCH  15  20
ENDBRANCH   1  16
BRANCH   5  26
ATOM     26  N   UNL     1      -3.365  -1.397   0.580  0.00  0.00    -0.214 N 
ATOM     27  H   UNL     1      -2.686  -2.075   1.118  0.00  0.00    +0.174 HD
BRANCH  26  28
ATOM     28  S   UNL     1      -3.946  -1.821  -0.912  0.00  0.00    +0.073 S 
ATOM     29  O   UNL     1      -5.342  -1.555  -0.893  0.00  0.00    -0.150 OA
ATOM     30  O   UNL     1      -3.420  -3.108  -1.203  0.00  0.00    -0.150 OA
BRANCH  28  31
ATOM     31  C   UNL     1      -3.238  -0.710  -2.082  0.00  0.00    +0.112 A 
ATOM     32  C   UNL     1      -4.050   0.146  -2.802  0.00  0.00    +0.032 A 
ATOM     33  C   UNL     1      -3.494   1.018  -3.720  0.00  0.00    -0.049 A 
ATOM     34  C   UNL     1      -2.126   1.033  -3.917  0.00  0.00    +0.004 A 
ATOM     35  C   UNL     1      -1.314   0.176  -3.199  0.00  0.00    +0.005 A 
ATOM     36  C   UNL     1      -1.870  -0.695  -2.280  0.00  0.00    -0.024 A 
ATOM     37  C   UNL     1      -0.984  -1.624  -1.490  0.00  0.00    +0.046 C 
ATOM     38  C   UNL     1      -4.379   1.951  -4.504  0.00  0.00    +0.044 C 
ENDBRANCH  28  31
ENDBRANCH  26  28
ENDBRANCH   5  26
TORSDOF 9
