REMARK  Name = ZINC12055455
REMARK  12 active torsions:
REMARK  status: ('A' for Active; 'I' for Inactive)
REMARK    1  A    between atoms: C_1  and  C_2
REMARK    2  A    between atoms: C_2  and  C_3
REMARK    3  A    between atoms: C_2  and  C_4
REMARK    4  A    between atoms: C_4  and  C_5
REMARK    5  A    between atoms: C_5  and  N_6
REMARK    6  A    between atoms: N_6  and  S_7
REMARK    7  A    between atoms: S_7  and  C_10
REMARK    8  A    between atoms: C_11  and  C_29
REMARK    9  A    between atoms: C_18  and  C_19
REMARK   10  A    between atoms: C_18  and  N_62
REMARK   11  A    between atoms: C_29  and  O_31
REMARK   12  A    between atoms: O_31  and  C_32
REMARK                            x       y       z     vdW  Elec       q    Type
REMARK                         _______ _______ _______ _____ _____    ______ ____
ROOT
ATOM      1  C   UNL     1       2.345   6.276  -5.915  0.00  0.00    +0.157 A 
ATOM      2  C   UNL     1       3.481   6.093  -5.154  0.00  0.00    +0.096 A 
ATOM      3  C   UNL     1       3.313   5.605  -3.800  0.00  0.00    -0.025 A 
ATOM      4  C   UNL     1       2.033   5.375  -3.424  0.00  0.00    -0.021 A 
ATOM      5  S   UNL     1       1.068   5.802  -4.843  0.00  0.00    -0.074 S 
ATOM      6  C   UNL     1       1.575   4.869  -2.093  0.00  0.00    -0.035 C 
ATOM      7  C   UNL     1       3.865   5.273  -1.411  0.00  0.00    -0.073 C 
ATOM      8  C   UNL     1       4.454   5.349  -2.823  0.00  0.00    +0.018 C 
ATOM      9  N   UNL     1       2.754   4.300  -1.395  0.00  0.00    +0.387 N 
ATOM     10  H   UNL     1       3.050   3.446  -1.881  0.00  0.00    -0.081 HD
ENDROOT
BRANCH   1  11
ATOM     11  S   UNL     1       2.223   6.852  -7.576  0.00  0.00    +0.065 S 
ATOM     12  O   UNL     1       2.654   8.206  -7.569  0.00  0.00    -0.153 OA
ATOM     13  O   UNL     1       2.831   5.862  -8.395  0.00  0.00    -0.153 OA
BRANCH  11  14
ATOM     14  N   UNL     1       0.614   6.869  -7.970  0.00  0.00    -0.189 NA
ATOM     15  H   UNL     1       0.278   6.279  -8.662  0.00  0.00    +0.148 HD
BRANCH  14  16
ATOM     16  C   UNL     1      -0.301   7.777  -7.274  0.00  0.00    +0.106 C 
BRANCH  16  17
ATOM     17  C   UNL     1      -1.613   7.875  -8.054  0.00  0.00    +0.020 C 
BRANCH  17  19
ATOM     18  C   UNL     1      -1.987  10.238  -7.335  0.00  0.00    +0.007 C 
ATOM     19  C   UNL     1      -2.569   8.823  -7.327  0.00  0.00    -0.016 C 
ATOM     20  C   UNL     1      -3.924   8.825  -8.037  0.00  0.00    +0.007 C 
ENDBRANCH  17  19
ENDBRANCH  16  17
ENDBRANCH  14  16
ENDBRANCH  11  14
ENDBRANCH   1  11
BRANCH   2  21
ATOM     21  C   UNL     1       4.816   6.385  -5.697  0.00  0.00    +0.342 C 
ATOM     22  O   UNL     1       5.442   5.515  -6.270  0.00  0.00    -0.245 OA
BRANCH  21  23
ATOM     23  O   UNL     1       5.345   7.617  -5.560  0.00  0.00    -0.464 OA
ATOM     24  C   UNL     1       6.666   7.833  -6.121  0.00  0.00    +0.280 C 
ENDBRANCH  21  23
ENDBRANCH   2  21
BRANCH   9  25
ATOM     25  C   UNL     1       2.400   3.960   0.000  0.00  0.00    -0.022 C 
BRANCH  25  26
ATOM     26  C   UNL     1       1.106   3.186   0.008  0.00  0.00    +0.026 A 
ATOM     27  C   UNL     1       1.149   1.794   0.001  0.00  0.00    +0.022 A 
ATOM     28  C   UNL     1      -0.013   1.076   0.008  0.00  0.00    +0.012 A 
ATOM     29  C   UNL     1      -1.230   1.783   0.017  0.00  0.00    +0.000 A 
ATOM     30  C   UNL     1      -2.464   1.113   0.031  0.00  0.00    +0.010 A 
ATOM     31  C   UNL     1      -3.620   1.833   0.046  0.00  0.00    +0.001 A 
ATOM     32  C   UNL     1      -3.594   3.226   0.053  0.00  0.00    +0.002 A 
ATOM     33  C   UNL     1      -2.416   3.907   0.045  0.00  0.00    +0.028 A 
ATOM     34  C   UNL     1      -1.202   3.199   0.030  0.00  0.00    +0.071 A 
ATOM     35  N   UNL     1      -0.029   3.841   0.022  0.00  0.00    -0.254 NA
ENDBRANCH  25  26
ENDBRANCH   9  25
TORSDOF 9
