REMARK  Name = ZINC12684163
REMARK  6 active torsions:
REMARK  status: ('A' for Active; 'I' for Inactive)
REMARK    1  A    between atoms: C_3  and  S_23
REMARK    2  A    between atoms: C_6  and  N_7
REMARK    3  A    between atoms: C_8  and  C_10
REMARK    4  A    between atoms: C_10  and  N_57
REMARK    5  A    between atoms: C_18  and  C_20
REMARK    6  A    between atoms: S_23  and  N_26
REMARK                            x       y       z     vdW  Elec       q    Type
REMARK                         _______ _______ _______ _____ _____    ______ ____
ROOT
ATOM      1  N   UNL     1      -6.384   0.176   1.219  0.00  0.00    -0.287 N 
ATOM      2  C   UNL     1      -5.224   0.820   0.981  0.00  0.00    +0.201 C 
ATOM      3  O   UNL     1      -4.422   0.976   1.878  0.00  0.00    -0.278 OA
ATOM      4  H   UNL     1      -7.053   0.109   0.520  0.00  0.00    +0.155 HD
ENDROOT
BRANCH   1  10
ATOM      5  C   UNL     1      -7.339  -1.581   2.573  0.00  0.00    +0.025 A 
ATOM      6  C   UNL     1      -7.568  -2.146   3.812  0.00  0.00    +0.030 A 
ATOM      7  C   UNL     1      -7.094  -1.527   4.954  0.00  0.00    +0.106 A 
ATOM      8  C   UNL     1      -6.385  -0.343   4.859  0.00  0.00    +0.030 A 
ATOM      9  C   UNL     1      -6.148   0.224   3.622  0.00  0.00    +0.025 A 
ATOM     10  C   UNL     1      -6.622  -0.396   2.473  0.00  0.00    +0.033 A 
BRANCH   7  11
ATOM     11  S   UNL     1      -7.394  -2.247   6.534  0.00  0.00    +0.061 S 
ATOM     12  O   UNL     1      -7.608  -3.634   6.314  0.00  0.00    -0.153 OA
ATOM     13  O   UNL     1      -6.379  -1.761   7.401  0.00  0.00    -0.153 OA
BRANCH  11  14
ATOM     14  N   UNL     1      -8.827  -1.629   7.089  0.00  0.00    -0.177 NA
ATOM     15  C   UNL     1      -8.978  -0.414   7.904  0.00  0.00    +0.109 C 
ATOM     16  C   UNL     1     -10.482  -0.246   8.201  0.00  0.00    +0.018 C 
ATOM     17  C   UNL     1     -11.033  -1.686   8.023  0.00  0.00    +0.018 C 
ATOM     18  C   UNL     1     -10.161  -2.210   6.854  0.00  0.00    +0.109 C 
ENDBRANCH  11  14
ENDBRANCH   7  11
ENDBRANCH   1  10
BRANCH   2  19
ATOM     19  C   UNL     1      -4.923   1.346  -0.399  0.00  0.00    +0.020 C 
BRANCH  19  28
ATOM     20  C   UNL     1      -3.623   3.208   0.442  0.00  0.00    -0.072 C 
ATOM     21  C   UNL     1      -2.396   4.068   0.094  0.00  0.00    +0.024 C 
ATOM     22  C   UNL     1      -1.206   3.166   0.050  0.00  0.00    -0.010 A 
ATOM     23  C   UNL     1      -1.219   1.804   0.005  0.00  0.00    -0.051 A 
ATOM     24  C   UNL     1       0.021   1.171  -0.024  0.00  0.00    +0.010 A 
ATOM     25  C   UNL     1       1.157   1.907  -0.020  0.00  0.00    +0.045 A 
ATOM     26  S   UNL     1       0.516   3.574   0.036  0.00  0.00    -0.101 S 
ATOM     27  C   UNL     1      -2.553   1.063   0.005  0.00  0.00    -0.033 C 
ATOM     28  N   UNL     1      -3.606   2.010  -0.432  0.00  0.00    +0.390 N 
ATOM     29  H   UNL     1      -3.406   2.306  -1.395  0.00  0.00    -0.080 HD
BRANCH  27  30
ATOM     30  C   UNL     1      -2.494  -0.100  -0.988  0.00  0.00    -0.020 C 
ATOM     31  C   UNL     1      -3.073  -1.442  -0.537  0.00  0.00    +0.002 C 
ATOM     32  C   UNL     1      -1.557  -1.264  -0.657  0.00  0.00    +0.002 C 
ENDBRANCH  27  30
ENDBRANCH  19  28
ENDBRANCH   2  19
TORSDOF 6
