REMARK  Name = ZINC40801677
REMARK  7 active torsions:
REMARK  status: ('A' for Active; 'I' for Inactive)
REMARK    1  A    between atoms: C_1  and  C_2
REMARK    2  A    between atoms: C_5  and  C_8
REMARK    3  A    between atoms: C_8  and  C_10
REMARK    4  A    between atoms: C_11  and  N_19
REMARK    5  A    between atoms: C_20  and  C_22
REMARK    6  A    between atoms: C_22  and  C_23
REMARK    7  A    between atoms: C_30  and  C_35
REMARK                            x       y       z     vdW  Elec       q    Type
REMARK                         _______ _______ _______ _____ _____    ______ ____
ROOT
ATOM      1  C   UNL     1       0.521  -4.964   1.195  0.00  0.00    +0.197 A 
ATOM      2  C   UNL     1       0.341  -6.329   1.306  0.00  0.00    +0.091 A 
ATOM      3  C   UNL     1       0.133  -6.588   2.736  0.00  0.00    +0.042 A 
ATOM      4  C   UNL     1      -0.100  -7.740   3.488  0.00  0.00    +0.013 A 
ATOM      5  C   UNL     1      -0.257  -7.645   4.843  0.00  0.00    +0.001 A 
ATOM      6  C   UNL     1      -0.184  -6.411   5.473  0.00  0.00    +0.004 A 
ATOM      7  C   UNL     1       0.046  -5.262   4.747  0.00  0.00    +0.047 A 
ATOM      8  C   UNL     1       0.208  -5.335   3.368  0.00  0.00    +0.138 A 
ATOM      9  O   UNL     1       0.443  -4.403   2.422  0.00  0.00    -0.450 OA
ENDROOT
BRANCH   2  10
ATOM     10  N   UNL     1       0.354  -7.263   0.279  0.00  0.00    -0.282 N 
ATOM     11  C   UNL     1       0.690  -8.543   0.535  0.00  0.00    +0.221 C 
ATOM     12  O   UNL     1       1.045  -8.865   1.649  0.00  0.00    -0.275 OA
ATOM     13  H   UNL     1       0.122  -6.994  -0.624  0.00  0.00    +0.155 HD
BRANCH  11  14
ATOM     14  C   UNL     1       0.624  -9.573  -0.562  0.00  0.00    +0.150 C 
BRANCH  14  15
ATOM     15  C   UNL     1       1.052 -10.934  -0.010  0.00  0.00    +0.268 C 
ATOM     16  C   UNL     1       0.867 -11.988  -1.073  0.00  0.00    +0.259 C 
ATOM     17  O   UNL     1      -0.167 -12.620  -1.130  0.00  0.00    -0.271 OA
ATOM     18  N   UNL     1       1.856 -12.225  -1.960  0.00  0.00    -0.280 N 
ATOM     19  C   UNL     1       3.088 -11.575  -1.801  0.00  0.00    +0.076 A 
ATOM     20  C   UNL     1       4.040 -11.614  -2.807  0.00  0.00    +0.030 A 
ATOM     21  C   UNL     1       5.245 -10.957  -2.639  0.00  0.00    -0.048 A 
ATOM     22  C   UNL     1       5.501 -10.261  -1.472  0.00  0.00    +0.007 A 
ATOM     23  C   UNL     1       4.557 -10.222  -0.463  0.00  0.00    +0.048 A 
ATOM     24  C   UNL     1       3.351 -10.883  -0.620  0.00  0.00    +0.143 A 
ATOM     25  O   UNL     1       2.427 -10.879   0.377  0.00  0.00    -0.477 OA
ATOM     26  C   UNL     1       6.282 -11.000  -3.732  0.00  0.00    +0.044 C 
ATOM     27  H   UNL     1       1.716 -12.837  -2.699  0.00  0.00    +0.155 HD
ENDBRANCH  14  15
ENDBRANCH  11  14
ENDBRANCH   2  10
BRANCH   1  28
ATOM     28  C   UNL     1       0.756  -4.264  -0.013  0.00  0.00    +0.230 C 
ATOM     29  O   UNL     1       0.719  -4.856  -1.077  0.00  0.00    -0.283 OA
BRANCH  28  34
ATOM     30  C   UNL     1       1.879   1.380   0.103  0.00  0.00    +0.044 C 
ATOM     31  C   UNL     1       1.585  -0.098   0.073  0.00  0.00    -0.050 A 
ATOM     32  C   UNL     1       1.673  -0.793  -1.120  0.00  0.00    +0.004 A 
ATOM     33  C   UNL     1       1.405  -2.146  -1.155  0.00  0.00    +0.012 A 
ATOM     34  C   UNL     1       1.045  -2.813   0.017  0.00  0.00    +0.025 A 
ATOM     35  C   UNL     1       0.958  -2.106   1.217  0.00  0.00    +0.012 A 
ATOM     36  C   UNL     1       1.234  -0.754   1.239  0.00  0.00    +0.004 A 
ENDBRANCH  28  34
ENDBRANCH   1  28
TORSDOF 5
