REMARK  Name = ZINC06135008
REMARK  12 active torsions:
REMARK  status: ('A' for Active; 'I' for Inactive)
REMARK    1  A    between atoms: C_1  and  C_2
REMARK    2  A    between atoms: C_2  and  C_3
REMARK    3  A    between atoms: C_2  and  C_4
REMARK    4  A    between atoms: C_4  and  C_5
REMARK    5  A    between atoms: C_5  and  C_7
REMARK    6  A    between atoms: C_5  and  N_15
REMARK    7  A    between atoms: N_9  and  C_10
REMARK    8  A    between atoms: N_15  and  C_16
REMARK    9  A    between atoms: C_16  and  C_17
REMARK   10  A    between atoms: C_22  and  C_24
REMARK   11  A    between atoms: C_25  and  N_32
REMARK   12  A    between atoms: C_26  and  C_29
REMARK                            x       y       z     vdW  Elec       q    Type
REMARK                         _______ _______ _______ _____ _____    ______ ____
ROOT
ATOM      1  N   UNL     1      -1.562   1.748  -2.113  0.00  0.00    -0.281 N 
ATOM      2  C   UNL     1      -1.933   2.020  -3.380  0.00  0.00    +0.257 C 
ATOM      3  O   UNL     1      -1.843   1.161  -4.237  0.00  0.00    -0.269 OA
ENDROOT
BRANCH   2   4
ATOM      4  C   UNL     1      -2.444   3.348  -3.724  0.00  0.00    +0.115 A 
ATOM      5  C   UNL     1      -2.760   3.876  -4.976  0.00  0.00    +0.076 A 
ATOM      6  C   UNL     1      -3.225   5.189  -4.924  0.00  0.00    +0.155 A 
ATOM      7  N   UNL     1      -3.325   5.795  -3.760  0.00  0.00    -0.203 NA
ATOM      8  S   UNL     1      -2.835   4.719  -2.656  0.00  0.00    +0.019 S 
BRANCH   6   9
ATOM      9  C   UNL     1      -3.603   5.893  -6.163  0.00  0.00    +0.262 C 
ATOM     10  O   UNL     1      -3.416   5.367  -7.243  0.00  0.00    -0.269 OA
ATOM     11  N   UNL     1      -4.157   7.120  -6.098  0.00  0.00    -0.324 N 
ATOM     12  H   UNL     1      -4.307   7.540  -5.237  0.00  0.00    +0.145 HD
ATOM     13  H   UNL     1      -4.405   7.584  -6.913  0.00  0.00    +0.145 HD
ENDBRANCH   6   9
BRANCH   5  14
ATOM     14  N   UNL     1      -2.625   3.163  -6.160  0.00  0.00    -0.355 N 
ATOM     15  H   UNL     1      -2.379   2.225  -6.136  0.00  0.00    +0.142 HD
ATOM     16  H   UNL     1      -2.775   3.603  -7.011  0.00  0.00    +0.142 HD
ENDBRANCH   5  14
ENDBRANCH   2   4
BRANCH   1  17
ATOM     17  C   UNL     1      -0.945   0.459  -1.790  0.00  0.00    +0.163 C 
BRANCH  17  18
ATOM     18  C   UNL     1      -1.882  -0.343  -0.925  0.00  0.00    +0.234 C 
ATOM     19  O   UNL     1      -2.757   0.216  -0.298  0.00  0.00    -0.274 OA
ATOM     20  N   UNL     1      -1.748  -1.682  -0.847  0.00  0.00    -0.311 N 
ATOM     21  H   UNL     1      -1.007  -2.122  -1.293  0.00  0.00    +0.149 HD
BRANCH  20  22
ATOM     22  C   UNL     1      -2.720  -2.473  -0.089  0.00  0.00    +0.073 C 
ATOM     23  C   UNL     1      -2.290  -2.562   1.390  0.00  0.00    +0.022 C 
ATOM     24  C   UNL     1      -2.682  -4.000   1.813  0.00  0.00    +0.002 C 
ATOM     25  C   UNL     1      -2.350  -4.831   0.549  0.00  0.00    +0.002 C 
ATOM     26  C   UNL     1      -2.758  -3.915  -0.624  0.00  0.00    +0.022 C 
ENDBRANCH  20  22
ENDBRANCH  17  18
BRANCH  17  27
ATOM     27  C   UNL     1       0.367   0.695  -1.040  0.00  0.00    +0.035 C 
BRANCH  27  29
ATOM     28  C   UNL     1       1.531  -1.218  -2.148  0.00  0.00    +0.007 C 
ATOM     29  C   UNL     1       1.069  -0.644  -0.807  0.00  0.00    -0.015 C 
ATOM     30  C   UNL     1       2.281  -0.434   0.102  0.00  0.00    +0.007 C 
ENDBRANCH  27  29
ENDBRANCH  17  27
ENDBRANCH   1  17
BRANCH   1  31
ATOM     31  C   UNL     1      -1.774   2.743  -1.058  0.00  0.00    +0.151 C 
BRANCH  31  32
ATOM     32  C   UNL     1      -0.525   3.568  -0.886  0.00  0.00    +0.007 A 
ATOM     33  C   UNL     1      -0.105   4.639  -1.602  0.00  0.00    +0.013 A 
ATOM     34  C   UNL     1       1.089   5.247  -1.260  0.00  0.00    +0.008 A 
ATOM     35  C   UNL     1       1.803   4.754  -0.219  0.00  0.00    +0.045 A 
ATOM     36  S   UNL     1       0.781   3.393   0.319  0.00  0.00    -0.100 S 
ENDBRANCH  31  32
ENDBRANCH   1  31
TORSDOF 10
