REMARK  Name = ZINC13171626
REMARK  7 active torsions:
REMARK  status: ('A' for Active; 'I' for Inactive)
REMARK    1  A    between atoms: C_1  and  C_2
REMARK    2  A    between atoms: C_6  and  O_8
REMARK    3  A    between atoms: O_8  and  C_9
REMARK    4  A    between atoms: C_9  and  C_11
REMARK    5  A    between atoms: C_9  and  C_12
REMARK    6  A    between atoms: N_14  and  C_15
REMARK    7  A    between atoms: C_24  and  C_25
REMARK                            x       y       z     vdW  Elec       q    Type
REMARK                         _______ _______ _______ _____ _____    ______ ____
ROOT
ATOM      1  C   UNL     1      -1.081   2.373  -0.026  0.00  0.00    +0.258 C 
ATOM      2  O   UNL     1      -2.255   2.087   0.087  0.00  0.00    -0.271 OA
ATOM      3  N   UNL     1      -0.153   1.397  -0.081  0.00  0.00    -0.282 N 
ATOM      4  H   UNL     1       0.789   1.626  -0.120  0.00  0.00    +0.155 HD
ENDROOT
BRANCH   3   5
ATOM      5  C   UNL     1      -0.547   0.059  -0.088  0.00  0.00    +0.048 A 
ATOM      6  C   UNL     1      -1.626  -0.331   0.652  0.00  0.00    +0.032 A 
ATOM      7  C   UNL     1      -2.028  -1.677   0.649  0.00  0.00    -0.016 A 
ATOM      8  C   UNL     1      -3.137  -2.102   1.403  0.00  0.00    +0.008 A 
ATOM      9  C   UNL     1      -3.505  -3.412   1.382  0.00  0.00    +0.001 A 
ATOM     10  C   UNL     1      -2.799  -4.344   0.622  0.00  0.00    +0.001 A 
ATOM     11  C   UNL     1      -1.721  -3.971  -0.120  0.00  0.00    +0.008 A 
ATOM     12  C   UNL     1      -1.310  -2.626  -0.124  0.00  0.00    -0.017 A 
ATOM     13  C   UNL     1      -0.204  -2.211  -0.878  0.00  0.00    +0.025 A 
ATOM     14  C   UNL     1       0.171  -0.877  -0.864  0.00  0.00    +0.085 A 
BRANCH  14  15
ATOM     15  C   UNL     1       1.331  -0.433  -1.660  0.00  0.00    +0.388 C 
ATOM     16  O   UNL     1       1.718   0.716  -1.581  0.00  0.00    -0.241 OA
ATOM     17  O   UNL     1       1.960  -1.302  -2.476  0.00  0.00    -0.241 OA
ENDBRANCH  14  15
ENDBRANCH   3   5
BRANCH   1  18
ATOM     18  C   UNL     1      -0.662   3.818  -0.106  0.00  0.00    +0.256 C 
ATOM     19  C   UNL     1       0.180   4.173   1.121  0.00  0.00    +0.062 C 
BRANCH  18  20
ATOM     20  O   UNL     1      -1.823   4.650  -0.144  0.00  0.00    -0.480 OA
BRANCH  20  26
ATOM     21  C   UNL     1       0.974   7.897  -2.479  0.00  0.00    +0.044 C 
ATOM     22  C   UNL     1      -0.335   7.499  -1.849  0.00  0.00    -0.047 A 
ATOM     23  C   UNL     1      -1.395   8.387  -1.837  0.00  0.00    +0.003 A 
ATOM     24  C   UNL     1      -2.598   8.025  -1.260  0.00  0.00    +0.004 A 
ATOM     25  C   UNL     1      -2.745   6.772  -0.696  0.00  0.00    +0.046 A 
ATOM     26  C   UNL     1      -1.682   5.881  -0.702  0.00  0.00    +0.122 A 
ATOM     27  C   UNL     1      -0.476   6.247  -1.282  0.00  0.00    +0.049 A 
ENDBRANCH  20  26
ENDBRANCH  18  20
ENDBRANCH   1  18
TORSDOF 5
