REMARK  Name = ZINC58900456
REMARK  3 active torsions:
REMARK  status: ('A' for Active; 'I' for Inactive)
REMARK    1  A    between atoms: C_1  and  N_2
REMARK    2  A    between atoms: N_10  and  N_11
REMARK    3  A    between atoms: C_12  and  C_14
REMARK                            x       y       z     vdW  Elec       q    Type
REMARK                         _______ _______ _______ _____ _____    ______ ____
ROOT
ATOM      1  C   UNL     1      -0.018   1.461   0.010  0.00  0.00    +0.138 C 
ATOM      2  N   UNL     1       0.002  -0.004   0.002  0.00  0.00    -0.269 N 
ATOM      3  C   UNL     1      -1.137  -0.803   0.003  0.00  0.00    +0.046 A 
ATOM      4  C   UNL     1      -2.490  -0.482   0.012  0.00  0.00    +0.025 A 
ATOM      5  C   UNL     1      -3.439  -1.484   0.012  0.00  0.00    +0.017 A 
ATOM      6  C   UNL     1      -3.060  -2.816   0.003  0.00  0.00    +0.019 A 
ATOM      7  C   UNL     1      -1.720  -3.154  -0.006  0.00  0.00    +0.027 A 
ATOM      8  C   UNL     1      -0.757  -2.151  -0.006  0.00  0.00    +0.029 A 
ATOM      9  C   UNL     1       0.725  -2.168  -0.013  0.00  0.00    +0.153 C 
ATOM     10  N   UNL     1       1.511  -3.217  -0.023  0.00  0.00    -0.175 NA
ATOM     11  C   UNL     1       1.123  -0.746  -0.013  0.00  0.00    +0.271 C 
ATOM     12  O   UNL     1       2.263  -0.321  -0.023  0.00  0.00    -0.268 OA
ATOM     13 BR   UNL     1      -4.376  -4.174   0.003  0.00  0.00    -0.050 Br
ENDROOT
BRANCH  10  14
ATOM     14  N   UNL     1       2.902  -3.050  -0.028  0.00  0.00    -0.206 N 
ATOM     15  C   UNL     1       3.710  -4.128  -0.038  0.00  0.00    +0.235 C 
ATOM     16  O   UNL     1       3.234  -5.243  -0.042  0.00  0.00    -0.274 OA
ATOM     17  H   UNL     1       3.283  -2.158  -0.025  0.00  0.00    +0.177 HD
BRANCH  15  18
ATOM     18  C   UNL     1       5.206  -3.948  -0.044  0.00  0.00    +0.077 C 
ATOM     19  C   UNL     1       5.621  -3.165  -1.291  0.00  0.00    +0.013 C 
ATOM     20  C   UNL     1       7.140  -2.982  -1.297  0.00  0.00    +0.001 C 
ATOM     21  C   UNL     1       7.818  -4.353  -1.308  0.00  0.00    +0.000 C 
ATOM     22  C   UNL     1       7.404  -5.137  -0.061  0.00  0.00    +0.001 C 
ATOM     23  C   UNL     1       5.885  -5.320  -0.055  0.00  0.00    +0.013 C 
ENDBRANCH  15  18
ENDBRANCH  10  14
TORSDOF 2
