REMARK  Name = ZINC64524694
REMARK  7 active torsions:
REMARK  status: ('A' for Active; 'I' for Inactive)
REMARK    1  A    between atoms: C_1  and  C_2
REMARK    2  A    between atoms: C_2  and  C_3
REMARK    3  A    between atoms: C_2  and  C_4
REMARK    4  A    between atoms: C_4  and  C_5
REMARK    5  A    between atoms: C_7  and  N_11
REMARK    6  A    between atoms: N_8  and  C_10
REMARK    7  A    between atoms: C_12  and  C_14
REMARK                            x       y       z     vdW  Elec       q    Type
REMARK                         _______ _______ _______ _____ _____    ______ ____
ROOT
ATOM      1  N   UNL     1      -1.708  -0.774   5.581  0.00  0.00    -0.265 N 
ATOM      2  C   UNL     1      -1.654  -2.093   5.854  0.00  0.00    +0.266 C 
ATOM      3  O   UNL     1      -1.092  -2.851   5.087  0.00  0.00    -0.268 OA
ATOM      4  H   UNL     1      -2.156  -0.170   6.193  0.00  0.00    +0.157 HD
ENDROOT
BRANCH   2   5
ATOM      5  C   UNL     1      -2.273  -2.613   7.077  0.00  0.00    +0.104 A 
ATOM      6  C   UNL     1      -2.290  -3.931   7.485  0.00  0.00    +0.052 A 
ATOM      7  C   UNL     1      -2.982  -3.976   8.700  0.00  0.00    +0.059 A 
ATOM      8  C   UNL     1      -3.368  -2.714   9.006  0.00  0.00    +0.103 A 
ATOM      9  N   UNL     1      -2.938  -1.875   8.030  0.00  0.00    -0.356 N 
ATOM     10  H   UNL     1      -3.078  -0.916   8.006  0.00  0.00    +0.166 HD
ATOM     11 CL   UNL     1      -3.293  -5.398   9.646  0.00  0.00    -0.082 Cl
ENDBRANCH   2   5
BRANCH   1  14
ATOM     12  C   UNL     1      -0.030  -0.130   2.478  0.00  0.00    +0.065 A 
ATOM     13  C   UNL     1      -0.462  -1.008   3.475  0.00  0.00    +0.068 A 
ATOM     14  C   UNL     1      -1.120  -0.279   4.418  0.00  0.00    +0.123 A 
ATOM     15  N   UNL     1      -1.097   1.019   4.019  0.00  0.00    -0.253 N 
ATOM     16  N   UNL     1      -0.404   1.081   2.804  0.00  0.00    -0.175 NA
ATOM     17  C   UNL     1      -1.689   2.152   4.734  0.00  0.00    +0.174 C 
BRANCH  12  18
ATOM     18  C   UNL     1       0.742  -0.511   1.242  0.00  0.00    +0.060 C 
BRANCH  18  20
ATOM     19  C   UNL     1      -0.019   1.526   0.010  0.00  0.00    +0.007 C 
ATOM     20  C   UNL     1       0.002  -0.004   0.002  0.00  0.00    -0.011 C 
ATOM     21  C   UNL     1       0.718  -0.497  -1.257  0.00  0.00    +0.007 C 
ENDBRANCH  18  20
ENDBRANCH  12  18
ENDBRANCH   1  14
TORSDOF 4
