REMARK  Name = ZINC63855770
REMARK  4 active torsions:
REMARK  status: ('A' for Active; 'I' for Inactive)
REMARK    1  A    between atoms: C_1  and  C_2
REMARK    2  A    between atoms: C_4  and  N_8
REMARK    3  A    between atoms: N_11  and  C_12
REMARK    4  A    between atoms: C_12  and  C_13
REMARK                            x       y       z     vdW  Elec       q    Type
REMARK                         _______ _______ _______ _____ _____    ______ ____
ROOT
ATOM      1  N   UNL     1      -1.583  -2.683   1.204  0.00  0.00    -0.269 N 
ATOM      2  C   UNL     1      -1.855  -4.002   1.250  0.00  0.00    +0.302 C 
ATOM      3  O   UNL     1      -1.614  -4.706   0.288  0.00  0.00    -0.253 OA
ATOM      4  N   UNL     1      -2.394  -4.541   2.361  0.00  0.00    -0.292 N 
ATOM      5  H   UNL     1      -1.776  -2.121   1.971  0.00  0.00    +0.153 HD
ATOM      6  H   UNL     1      -2.587  -3.979   3.128  0.00  0.00    +0.151 HD
ENDROOT
BRANCH   1  10
ATOM      7  C   UNL     1      -0.018   1.503   0.010  0.00  0.00    +0.081 C 
ATOM      8  C   UNL     1       0.002  -0.004   0.002  0.00  0.00    +0.076 C 
ATOM      9  N   UNL     1      -1.107  -0.621   0.005  0.00  0.00    -0.349 N 
ATOM     10  C   UNL     1      -0.997  -2.097  -0.004  0.00  0.00    +0.249 C 
ATOM     11  S   UNL     1       0.834  -2.273  -0.016  0.00  0.00    -0.015 S 
ATOM     12  N   UNL     1       1.214  -0.636  -0.013  0.00  0.00    -0.276 N 
ATOM     13  H   UNL     1       2.095  -0.230  -0.020  0.00  0.00    +0.161 HD
ATOM     14  H   UNL     1      -1.960  -0.160   0.012  0.00  0.00    +0.163 HD
ENDBRANCH   1  10
BRANCH   4  15
ATOM     15  C   UNL     1      -2.689  -5.975   2.411  0.00  0.00    +0.180 C 
BRANCH  15  16
ATOM     16  C   UNL     1      -3.281  -6.319   3.753  0.00  0.00    +0.128 A 
ATOM     17  N   UNL     1      -3.619  -7.613   3.996  0.00  0.00    -0.309 N 
ATOM     18  H   UNL     1      -3.475  -8.284   3.310  0.00  0.00    +0.170 HD
ATOM     19  C   UNL     1      -4.154  -7.974   5.185  0.00  0.00    +0.259 A 
ATOM     20  O   UNL     1      -4.460  -9.129   5.416  0.00  0.00    -0.267 OA
ATOM     21  C   UNL     1      -4.350  -6.916   6.188  0.00  0.00    +0.065 A 
ATOM     22  C   UNL     1      -4.893  -7.183   7.443  0.00  0.00    +0.015 A 
ATOM     23  C   UNL     1      -5.055  -6.153   8.345  0.00  0.00    +0.001 A 
ATOM     24  C   UNL     1      -4.682  -4.858   8.012  0.00  0.00    +0.002 A 
ATOM     25  C   UNL     1      -4.144  -4.574   6.777  0.00  0.00    +0.028 A 
ATOM     26  C   UNL     1      -3.969  -5.600   5.846  0.00  0.00    +0.078 A 
ATOM     27  N   UNL     1      -3.438  -5.366   4.620  0.00  0.00    -0.232 NA
ENDBRANCH  15  16
ENDBRANCH   4  15
TORSDOF 3
