REMARK  Name = ZINC09750193
REMARK  5 active torsions:
REMARK  status: ('A' for Active; 'I' for Inactive)
REMARK    1  A    between atoms: N_12  and  C_25
REMARK    2  A    between atoms: C_13  and  S_15
REMARK    3  A    between atoms: S_15  and  C_16
REMARK    4  A    between atoms: C_16  and  C_17
REMARK    5  A    between atoms: C_25  and  C_26
REMARK                            x       y       z     vdW  Elec       q    Type
REMARK                         _______ _______ _______ _____ _____    ______ ____
ROOT
ATOM      1  C   UNL     1      -0.013   1.076   0.008  0.00  0.00    +0.001 A 
ATOM      2  C   UNL     1       1.180   1.784   0.000  0.00  0.00    +0.004 A 
ATOM      3  C   UNL     1       1.180   3.162   0.007  0.00  0.00    +0.047 A 
ATOM      4  C   UNL     1      -0.024   3.858   0.022  0.00  0.00    +0.138 A 
ATOM      5  C   UNL     1      -1.230   3.139   0.031  0.00  0.00    +0.046 A 
ATOM      6  C   UNL     1      -1.216   1.746   0.017  0.00  0.00    +0.014 A 
ATOM      7  C   UNL     1      -2.298   4.151   0.046  0.00  0.00    +0.125 A 
ATOM      8  C   UNL     1      -1.650   5.384   0.045  0.00  0.00    +0.219 A 
ATOM      9  O   UNL     1      -0.315   5.176   0.032  0.00  0.00    -0.448 OA
ATOM     10  C   UNL     1      -2.438   6.553   0.057  0.00  0.00    +0.298 A 
ATOM     11  O   UNL     1      -1.915   7.656   0.056  0.00  0.00    -0.264 OA
ATOM     12  N   UNL     1      -3.782   6.428   0.069  0.00  0.00    -0.280 N 
ATOM     13  C   UNL     1      -4.361   5.194   0.070  0.00  0.00    +0.173 A 
ATOM     14  N   UNL     1      -3.637   4.096   0.058  0.00  0.00    -0.219 NA
ENDROOT
BRANCH  13  15
ATOM     15  S   UNL     1      -6.118   5.066   0.085  0.00  0.00    -0.078 S 
BRANCH  15  16
ATOM     16  C   UNL     1      -6.303   3.266   0.079  0.00  0.00    +0.173 C 
BRANCH  16  17
ATOM     17  C   UNL     1      -7.768   2.911   0.091  0.00  0.00    +0.229 C 
ATOM     18  O   UNL     1      -8.604   3.789   0.102  0.00  0.00    -0.275 OA
ATOM     19  N   UNL     1      -8.148   1.618   0.088  0.00  0.00    -0.264 N 
ATOM     20  C   UNL     1      -9.499   1.291   0.099  0.00  0.00    +0.164 A 
ATOM     21  N   UNL     1     -10.545   2.093   0.118  0.00  0.00    -0.233 NA
ATOM     22  C   UNL     1     -11.774   1.614   0.122  0.00  0.00    +0.120 A 
ATOM     23  C   UNL     1     -11.942   0.269   0.117  0.00  0.00    +0.068 A 
ATOM     24  S   UNL     1     -10.241  -0.279   0.099  0.00  0.00    -0.061 S 
ATOM     25  H   UNL     1      -7.479   0.916   0.079  0.00  0.00    +0.157 HD
ENDBRANCH  16  17
ENDBRANCH  15  16
ENDBRANCH  13  15
BRANCH  12  26
ATOM     26  C   UNL     1      -4.624   7.627   0.082  0.00  0.00    +0.169 C 
BRANCH  26  27
ATOM     27  C   UNL     1      -4.900   8.032   1.507  0.00  0.00    +0.010 A 
ATOM     28  C   UNL     1      -4.191   8.863   2.311  0.00  0.00    +0.013 A 
ATOM     29  C   UNL     1      -4.640   9.094   3.598  0.00  0.00    +0.008 A 
ATOM     30  C   UNL     1      -5.769   8.476   4.021  0.00  0.00    +0.045 A 
ATOM     31  S   UNL     1      -6.240   7.537   2.578  0.00  0.00    -0.100 S 
ENDBRANCH  26  27
ENDBRANCH  12  26
TORSDOF 5
