REMARK  Name = ZINC36290516
REMARK  6 active torsions:
REMARK  status: ('A' for Active; 'I' for Inactive)
REMARK    1  A    between atoms: C_1  and  C_2
REMARK    2  A    between atoms: C_2  and  C_3
REMARK    3  A    between atoms: C_4  and  C_19
REMARK    4  A    between atoms: C_8  and  N_18
REMARK    5  A    between atoms: C_9  and  C_11
REMARK    6  A    between atoms: C_14  and  C_17
REMARK                            x       y       z     vdW  Elec       q    Type
REMARK                         _______ _______ _______ _____ _____    ______ ____
ROOT
ATOM      1  C   UNL     1       0.707  -0.490  -1.238  0.00  0.00    +0.037 A 
ATOM      2  C   UNL     1       2.002  -0.792  -1.181  0.00  0.00    +0.010 A 
ATOM      3  S   UNL     1       2.340  -1.300  -2.860  0.00  0.00    -0.054 S 
ATOM      4  C   UNL     1       0.703  -1.065  -3.512  0.00  0.00    +0.180 A 
ATOM      5  N   UNL     1       0.001  -0.622  -2.417  0.00  0.00    -0.278 N 
ATOM      6  C   UNL     1      -1.298  -0.426  -2.870  0.00  0.00    +0.129 A 
ATOM      7  C   UNL     1      -1.327  -0.756  -4.191  0.00  0.00    +0.112 A 
ATOM      8  N   UNL     1      -0.073  -1.139  -4.552  0.00  0.00    -0.219 NA
ATOM      9  C   UNL     1       2.941  -0.723  -0.005  0.00  0.00    +0.053 C 
ENDROOT
BRANCH   7  10
ATOM     10  C   UNL     1      -2.510  -0.700  -5.079  0.00  0.00    +0.004 A 
ATOM     11  C   UNL     1      -3.778  -0.996  -4.576  0.00  0.00    +0.010 A 
ATOM     12  C   UNL     1      -4.877  -0.941  -5.409  0.00  0.00    +0.004 A 
ATOM     13  C   UNL     1      -4.723  -0.594  -6.739  0.00  0.00    -0.050 A 
ATOM     14  C   UNL     1      -3.469  -0.299  -7.244  0.00  0.00    +0.004 A 
ATOM     15  C   UNL     1      -2.363  -0.344  -6.420  0.00  0.00    +0.010 A 
ATOM     16  C   UNL     1      -5.928  -0.536  -7.643  0.00  0.00    +0.044 C 
ENDBRANCH   7  10
BRANCH   6  17
ATOM     17  N   UNL     1      -2.379   0.028  -2.110  0.00  0.00    -0.342 N 
ATOM     18  H   UNL     1      -2.256   0.238  -1.171  0.00  0.00    +0.144 HD
ATOM     19  H   UNL     1      -3.251   0.132  -2.521  0.00  0.00    +0.144 HD
ENDBRANCH   6  17
BRANCH   1  21
ATOM     20  C   UNL     1      -0.019   1.526   0.010  0.00  0.00    +0.010 C 
ATOM     21  C   UNL     1       0.002  -0.004   0.002  0.00  0.00    +0.051 C 
ENDBRANCH   1  21
TORSDOF 3
