REMARK  Name = ZINC44876211
REMARK  8 active torsions:
REMARK  status: ('A' for Active; 'I' for Inactive)
REMARK    1  A    between atoms: C_1  and  C_2
REMARK    2  A    between atoms: N_5  and  C_8
REMARK    3  A    between atoms: C_8  and  C_9
REMARK    4  A    between atoms: C_12  and  C_15
REMARK    5  A    between atoms: C_15  and  N_16
REMARK    6  A    between atoms: C_17  and  C_19
REMARK    7  A    between atoms: N_22  and  S_30
REMARK    8  A    between atoms: S_30  and  C_33
REMARK                            x       y       z     vdW  Elec       q    Type
REMARK                         _______ _______ _______ _____ _____    ______ ____
ROOT
ATOM      1  N   UNL     1       5.428  -4.356   5.178  0.00  0.00    -0.308 N 
ATOM      2  C   UNL     1       6.212  -4.495   6.266  0.00  0.00    +0.256 C 
ATOM      3  O   UNL     1       6.578  -5.598   6.613  0.00  0.00    -0.272 OA
ATOM      4  H   UNL     1       5.135  -3.474   4.901  0.00  0.00    +0.149 HD
ENDROOT
BRANCH   2   5
ATOM      5  C   UNL     1       6.632  -3.280   7.052  0.00  0.00    +0.277 C 
ATOM      6  C   UNL     1       5.398  -2.629   7.693  0.00  0.00    +0.186 C 
ATOM      7  N   UNL     1       5.863  -1.479   8.487  0.00  0.00    -0.195 N 
ATOM      8  C   UNL     1       7.025  -1.645   9.257  0.00  0.00    +0.093 A 
ATOM      9  C   UNL     1       7.350  -0.716  10.233  0.00  0.00    +0.028 A 
ATOM     10  C   UNL     1       8.498  -0.882  10.986  0.00  0.00    +0.002 A 
ATOM     11  C   UNL     1       9.320  -1.972  10.765  0.00  0.00    +0.004 A 
ATOM     12  C   UNL     1       8.999  -2.901   9.794  0.00  0.00    +0.047 A 
ATOM     13  C   UNL     1       7.850  -2.745   9.035  0.00  0.00    +0.144 A 
ATOM     14  O   UNL     1       7.541  -3.668   8.085  0.00  0.00    -0.476 OA
BRANCH   7  15
ATOM     15  S   UNL     1       5.043  -0.040   8.473  0.00  0.00    +0.075 S 
ATOM     16  O   UNL     1       5.980   0.965   8.835  0.00  0.00    -0.150 OA
ATOM     17  O   UNL     1       4.316   0.001   7.253  0.00  0.00    -0.150 OA
BRANCH  15  18
ATOM     18  C   UNL     1       3.850  -0.107   9.768  0.00  0.00    +0.109 A 
ATOM     19  C   UNL     1       2.584  -0.602   9.516  0.00  0.00    +0.029 A 
ATOM     20  C   UNL     1       1.648  -0.655  10.532  0.00  0.00    +0.002 A 
ATOM     21  C   UNL     1       1.978  -0.213  11.800  0.00  0.00    +0.000 A 
ATOM     22  C   UNL     1       3.244   0.281  12.051  0.00  0.00    +0.002 A 
ATOM     23  C   UNL     1       4.182   0.330  11.037  0.00  0.00    +0.029 A 
ENDBRANCH  15  18
ENDBRANCH   7  15
ENDBRANCH   2   5
BRANCH   1  24
ATOM     24  C   UNL     1       5.020  -5.538   4.415  0.00  0.00    +0.139 C 
BRANCH  24  28
ATOM     25  C   UNL     1       2.569  -4.335   1.129  0.00  0.00    -0.064 A 
ATOM     26  C   UNL     1       3.939  -4.421   0.974  0.00  0.00    +0.002 A 
ATOM     27  C   UNL     1       4.733  -4.810   2.037  0.00  0.00    +0.005 A 
ATOM     28  C   UNL     1       4.155  -5.113   3.256  0.00  0.00    -0.030 A 
ATOM     29  C   UNL     1       2.784  -5.026   3.412  0.00  0.00    +0.005 A 
ATOM     30  C   UNL     1       1.992  -4.632   2.350  0.00  0.00    +0.002 A 
BRANCH  25  31
ATOM     31  C   UNL     1       1.704  -3.911  -0.029  0.00  0.00    -0.043 C 
BRANCH  31  36
ATOM     32  C   UNL     1      -0.019   1.526   0.010  0.00  0.00    +0.007 C 
ATOM     33  C   UNL     1       0.002  -0.004   0.002  0.00  0.00    -0.018 C 
ATOM     34  C   UNL     1       0.727  -0.499  -1.252  0.00  0.00    -0.016 C 
ATOM     35  C   UNL     1       0.814  -2.027  -1.215  0.00  0.00    -0.078 C 
ATOM     36  N   UNL     1       1.556  -2.449  -0.021  0.00  0.00    +0.382 N 
ATOM     37  C   UNL     1       0.829  -2.040   1.187  0.00  0.00    -0.078 C 
ATOM     38  C   UNL     1       0.743  -0.513   1.242  0.00  0.00    -0.016 C 
ATOM     39  H   UNL     1       2.469  -2.020  -0.024  0.00  0.00    -0.081 HD
ENDBRANCH  31  36
ENDBRANCH  25  31
ENDBRANCH  24  28
ENDBRANCH   1  24
TORSDOF 7
