REMARK  Name = ZINC38555678
REMARK  10 active torsions:
REMARK  status: ('A' for Active; 'I' for Inactive)
REMARK    1  A    between atoms: C_1  and  C_2
REMARK    2  A    between atoms: C_5  and  S_8
REMARK    3  A    between atoms: S_8  and  N_11
REMARK    4  A    between atoms: C_16  and  C_18
REMARK    5  A    between atoms: C_18  and  C_19
REMARK    6  A    between atoms: C_19  and  N_20
REMARK    7  A    between atoms: C_21  and  C_23
REMARK    8  A    between atoms: N_25  and  C_26
REMARK    9  A    between atoms: C_29  and  N_33
REMARK   10  A    between atoms: C_31  and  C_32
REMARK                            x       y       z     vdW  Elec       q    Type
REMARK                         _______ _______ _______ _____ _____    ______ ____
ROOT
ATOM      1  C   UNL     1       2.466  -5.395   3.521  0.00  0.00    +0.106 C 
ENDROOT
BRANCH   1   2
ATOM      2  N   UNL     1       1.739  -4.983   4.724  0.00  0.00    -0.308 N 
ATOM      3  C   UNL     1       2.306  -5.132   5.938  0.00  0.00    +0.299 C 
ATOM      4  O   UNL     1       3.418  -5.607   6.034  0.00  0.00    -0.265 OA
ATOM      5  H   UNL     1       0.850  -4.604   4.648  0.00  0.00    +0.149 HD
BRANCH   3   6
ATOM      6  C   UNL     1       1.565  -4.713   7.165  0.00  0.00    +0.303 C 
ATOM      7  O   UNL     1       0.452  -4.238   7.069  0.00  0.00    -0.265 OA
ATOM      8  N   UNL     1       2.131  -4.862   8.379  0.00  0.00    -0.278 N 
ATOM      9  H   UNL     1       3.043  -5.184   8.452  0.00  0.00    +0.155 HD
BRANCH   8  10
ATOM     10  C   UNL     1       1.405  -4.552   9.531  0.00  0.00    +0.037 A 
ATOM     11  C   UNL     1       0.392  -3.602   9.482  0.00  0.00    +0.026 A 
ATOM     12  C   UNL     1      -0.324  -3.299  10.623  0.00  0.00    +0.034 A 
ATOM     13  C   UNL     1      -0.034  -3.939  11.814  0.00  0.00    +0.127 A 
ATOM     14  C   UNL     1       0.974  -4.885  11.867  0.00  0.00    +0.038 A 
ATOM     15  C   UNL     1       1.690  -5.197  10.728  0.00  0.00    -0.027 A 
ATOM     16  C   UNL     1       2.784  -6.232  10.785  0.00  0.00    +0.046 C 
BRANCH  13  17
ATOM     17  N   UNL     1      -0.803  -3.611  13.036  0.00  0.00    +0.056 N 
ATOM     18  O   UNL     1      -1.684  -2.784  12.991  0.00  0.00    -0.126 OA
ATOM     19  O   UNL     1      -0.550  -4.170  14.078  0.00  0.00    -0.126 OA
ENDBRANCH  13  17
ENDBRANCH   8  10
ENDBRANCH   3   6
ENDBRANCH   1   2
BRANCH   1  20
ATOM     20  C   UNL     1       1.606  -5.120   2.286  0.00  0.00    +0.039 C 
BRANCH  20  26
ATOM     21  N   UNL     1       1.636  -5.056  -0.164  0.00  0.00    -0.173 NA
ATOM     22  C   UNL     1       2.278  -5.148  -1.482  0.00  0.00    +0.110 C 
ATOM     23  C   UNL     1       3.609  -4.391  -1.437  0.00  0.00    +0.017 C 
ATOM     24  C   UNL     1       4.460  -4.930  -0.285  0.00  0.00    +0.003 C 
ATOM     25  C   UNL     1       3.729  -4.703   1.040  0.00  0.00    +0.021 C 
ATOM     26  C   UNL     1       2.402  -5.458   1.024  0.00  0.00    +0.081 C 
BRANCH  21  27
ATOM     27  S   UNL     1       0.082  -4.503  -0.019  0.00  0.00    +0.061 S 
ATOM     28  O   UNL     1      -0.491  -5.187   1.087  0.00  0.00    -0.153 OA
ATOM     29  O   UNL     1      -0.487  -4.546  -1.320  0.00  0.00    -0.153 OA
BRANCH  27  34
ATOM     30  C   UNL     1       0.396   1.319   1.534  0.00  0.00    +0.044 C 
ATOM     31  C   UNL     1       0.318  -0.135   1.146  0.00  0.00    -0.050 A 
ATOM     32  C   UNL     1       0.450  -0.505  -0.179  0.00  0.00    +0.005 A 
ATOM     33  C   UNL     1       0.379  -1.839  -0.535  0.00  0.00    +0.029 A 
ATOM     34  C   UNL     1       0.175  -2.803   0.435  0.00  0.00    +0.106 A 
ATOM     35  C   UNL     1       0.043  -2.433   1.760  0.00  0.00    +0.029 A 
ATOM     36  C   UNL     1       0.119  -1.099   2.116  0.00  0.00    +0.005 A 
ENDBRANCH  27  34
ENDBRANCH  21  27
ENDBRANCH  20  26
ENDBRANCH   1  20
TORSDOF 8
