REMARK  Name = ZINC67125600
REMARK  10 active torsions:
REMARK  status: ('A' for Active; 'I' for Inactive)
REMARK    1  A    between atoms: C_1  and  C_2
REMARK    2  A    between atoms: C_2  and  C_3
REMARK    3  A    between atoms: C_2  and  C_4
REMARK    4  A    between atoms: C_2  and  C_5
REMARK    5  A    between atoms: C_8  and  N_11
REMARK    6  A    between atoms: C_12  and  C_14
REMARK    7  A    between atoms: C_14  and  C_15
REMARK    8  A    between atoms: C_15  and  C_16
REMARK    9  A    between atoms: C_16  and  C_17
REMARK   10  A    between atoms: C_17  and  C_18
REMARK                            x       y       z     vdW  Elec       q    Type
REMARK                         _______ _______ _______ _____ _____    ______ ____
ROOT
ATOM      1  C   UNL     1       4.572  -1.808  -6.232  0.00  0.00    +0.096 C 
ENDROOT
BRANCH   1   3
ATOM      2  N   UNL     1       2.657  -1.834  -4.665  0.00  0.00    -0.285 N 
ATOM      3  C   UNL     1       3.908  -1.413  -4.938  0.00  0.00    +0.217 C 
ATOM      4  O   UNL     1       4.500  -0.715  -4.142  0.00  0.00    -0.275 OA
ATOM      5  H   UNL     1       2.213  -2.453  -5.265  0.00  0.00    +0.155 HD
BRANCH   2   9
ATOM      6  C   UNL     1       0.700  -0.475  -1.248  0.00  0.00    -0.042 A 
ATOM      7  C   UNL     1       1.582   0.356  -1.914  0.00  0.00    +0.006 A 
ATOM      8  C   UNL     1       2.232  -0.091  -3.047  0.00  0.00    +0.023 A 
ATOM      9  C   UNL     1       2.000  -1.377  -3.518  0.00  0.00    +0.033 A 
ATOM     10  C   UNL     1       1.114  -2.210  -2.846  0.00  0.00    +0.023 A 
ATOM     11  C   UNL     1       0.470  -1.758  -1.711  0.00  0.00    +0.006 A 
BRANCH   6  13
ATOM     12  C   UNL     1       0.358  -0.877   1.175  0.00  0.00    +0.015 C 
ATOM     13  C   UNL     1      -0.009   0.016  -0.012  0.00  0.00    -0.013 C 
ATOM     14  C   UNL     1      -1.521  -0.032  -0.238  0.00  0.00    +0.015 C 
ATOM     15  C   UNL     1       0.418   1.456   0.282  0.00  0.00    +0.015 C 
ENDBRANCH   6  13
ENDBRANCH   2   9
ENDBRANCH   1   3
BRANCH   1  16
ATOM     16  C   UNL     1       5.976  -1.203  -6.292  0.00  0.00    +0.009 C 
BRANCH  16  17
ATOM     17  C   UNL     1       6.649  -1.605  -7.605  0.00  0.00    +0.002 C 
BRANCH  17  18
ATOM     18  C   UNL     1       8.053  -1.000  -7.665  0.00  0.00    +0.016 C 
BRANCH  18  19
ATOM     19  C   UNL     1       8.726  -1.402  -8.979  0.00  0.00    +0.069 C 
ATOM     20  C   UNL     1      10.103  -0.798  -9.092  0.00  0.00    +0.108 C 
ATOM     21  C   UNL     1      11.104  -1.690  -8.295  0.00  0.00    +0.105 C 
ATOM     22  C   UNL     1      11.009  -3.075  -8.931  0.00  0.00    +0.093 C 
ATOM     23  S   UNL     1       9.142  -3.208  -8.993  0.00  0.00    -0.154 S 
ATOM     24  N   UNL     1      12.293  -0.879  -8.425  0.00  0.00    -0.294 N 
ATOM     25  C   UNL     1      11.852   0.414  -8.450  0.00  0.00    +0.300 C 
ATOM     26  O   UNL     1      12.579   1.377  -8.302  0.00  0.00    -0.253 OA
ATOM     27  N   UNL     1      10.507   0.501  -8.642  0.00  0.00    -0.294 N 
ATOM     28  H   UNL     1      13.211  -1.187  -8.483  0.00  0.00    +0.151 HD
ATOM     29  H   UNL     1       9.946   1.280  -8.507  0.00  0.00    +0.151 HD
ENDBRANCH  18  19
ENDBRANCH  17  18
ENDBRANCH  16  17
ENDBRANCH   1  16
TORSDOF 7
