REMARK  Name = ZINC29974456
REMARK  7 active torsions:
REMARK  status: ('A' for Active; 'I' for Inactive)
REMARK    1  A    between atoms: C_1  and  C_2
REMARK    2  A    between atoms: C_2  and  C_3
REMARK    3  A    between atoms: C_3  and  N_4
REMARK    4  A    between atoms: C_5  and  C_7
REMARK    5  A    between atoms: C_7  and  N_8
REMARK    6  A    between atoms: C_14  and  C_16
REMARK    7  A    between atoms: C_29  and  C_30
REMARK                            x       y       z     vdW  Elec       q    Type
REMARK                         _______ _______ _______ _____ _____    ______ ____
ROOT
ATOM      1  C   UNL     1      -0.399   5.318   0.429  0.00  0.00    +0.051 A 
ATOM      2  C   UNL     1      -0.520   3.871   0.605  0.00  0.00    +0.013 A 
ATOM      3  C   UNL     1       0.601   3.035   0.601  0.00  0.00    +0.011 A 
ATOM      4  C   UNL     1       0.440   1.691   0.769  0.00  0.00    +0.001 A 
ATOM      5  C   UNL     1      -0.828   1.141   0.944  0.00  0.00    +0.002 A 
ATOM      6  C   UNL     1      -1.940   1.926   0.948  0.00  0.00    +0.028 A 
ATOM      7  C   UNL     1      -1.814   3.318   0.784  0.00  0.00    +0.072 A 
ATOM      8  N   UNL     1      -2.883   4.111   0.787  0.00  0.00    -0.247 NA
ATOM      9  C   UNL     1      -2.805   5.430   0.629  0.00  0.00    +0.072 A 
ATOM     10  C   UNL     1      -1.565   6.067   0.446  0.00  0.00    -0.009 A 
ATOM     11  C   UNL     1      -1.774   7.553   0.293  0.00  0.00    +0.043 C 
ATOM     12  C   UNL     1      -3.287   7.788   0.400  0.00  0.00    +0.042 C 
ATOM     13  C   UNL     1      -3.893   6.423   0.611  0.00  0.00    -0.018 C 
ATOM     14  C   UNL     1      -5.208   6.157   0.759  0.00  0.00    +0.052 C 
ENDROOT
BRANCH   1  21
ATOM     15  N   UNL     1       3.425   6.316   3.432  0.00  0.00    +0.387 N 
ATOM     16  C   UNL     1       3.943   6.320   2.058  0.00  0.00    -0.059 C 
ATOM     17  C   UNL     1       2.938   7.023   1.139  0.00  0.00    +0.089 C 
ATOM     18  N   UNL     1       1.625   6.383   1.306  0.00  0.00    -0.301 N 
ATOM     19  C   UNL     1       1.097   6.224   2.670  0.00  0.00    +0.089 C 
ATOM     20  C   UNL     1       2.176   5.547   3.529  0.00  0.00    -0.059 C 
ATOM     21  C   UNL     1       0.921   5.959   0.238  0.00  0.00    +0.247 C 
ATOM     22  O   UNL     1       1.370   6.103  -0.882  0.00  0.00    -0.270 OA
ATOM     23  H   UNL     1       3.199   7.356   3.708  0.00  0.00    -0.081 HD
BRANCH  15  24
ATOM     24  C   UNL     1       4.431   5.805   4.373  0.00  0.00    +0.019 C 
BRANCH  24  26
ATOM     25  N   UNL     1       5.530   3.646   4.871  0.00  0.00    -0.317 N 
ATOM     26  C   UNL     1       4.718   4.358   4.064  0.00  0.00    +0.196 C 
ATOM     27  O   UNL     1       4.220   3.835   3.090  0.00  0.00    -0.278 OA
ATOM     28  H   UNL     1       5.982   4.120   5.754  0.00  0.00    +0.149 HD
BRANCH  25  29
ATOM     29  C   UNL     1       5.809   2.239   4.571  0.00  0.00    +0.104 C 
BRANCH  29  31
ATOM     30  C   UNL     1       7.043   0.200   5.320  0.00  0.00    +0.005 C 
ATOM     31  C   UNL     1       6.751   1.669   5.633  0.00  0.00    +0.015 C 
ENDBRANCH  29  31
ENDBRANCH  25  29
ENDBRANCH  24  26
ENDBRANCH  15  24
ENDBRANCH   1  21
BRANCH  14  32
ATOM     32  C   UNL     1      -6.184   7.247   0.721  0.00  0.00    +0.128 A 
ATOM     33  C   UNL     1      -7.538   7.117   0.851  0.00  0.00    +0.049 A 
ATOM     34  C   UNL     1      -8.079   8.411   0.755  0.00  0.00    +0.042 A 
ATOM     35  C   UNL     1      -7.047   9.260   0.565  0.00  0.00    +0.195 A 
ATOM     36  O   UNL     1      -5.905   8.554   0.545  0.00  0.00    -0.464 OA
ENDBRANCH  14  32
TORSDOF 6
