REMARK  Name = ZINC39964928
REMARK  13 active torsions:
REMARK  status: ('A' for Active; 'I' for Inactive)
REMARK    1  A    between atoms: C_1  and  C_2
REMARK    2  A    between atoms: C_2  and  O_3
REMARK    3  A    between atoms: O_3  and  C_4
REMARK    4  A    between atoms: C_4  and  C_6
REMARK    5  A    between atoms: C_8  and  N_17
REMARK    6  A    between atoms: C_18  and  C_20
REMARK    7  A    between atoms: C_20  and  S_21
REMARK    8  A    between atoms: S_21  and  C_22
REMARK    9  A    between atoms: C_24  and  C_27
REMARK   10  A    between atoms: C_29  and  O_35
REMARK   11  A    between atoms: C_31  and  O_33
REMARK   12  A    between atoms: O_33  and  C_34
REMARK   13  A    between atoms: O_35  and  C_36
REMARK                            x       y       z     vdW  Elec       q    Type
REMARK                         _______ _______ _______ _____ _____    ______ ____
ROOT
ATOM      1  N   UNL     1      -5.060  -1.792   1.044  0.00  0.00    -0.301 N 
ATOM      2  C   UNL     1      -5.953  -2.269   1.933  0.00  0.00    +0.224 C 
ATOM      3  O   UNL     1      -5.569  -2.832   2.936  0.00  0.00    -0.275 OA
ATOM      4  H   UNL     1      -5.367  -1.341   0.242  0.00  0.00    +0.150 HD
ENDROOT
BRANCH   1   6
ATOM      5  C   UNL     1      -2.881  -2.427   0.017  0.00  0.00    +0.155 C 
ATOM      6  C   UNL     1      -3.624  -1.955   1.289  0.00  0.00    +0.153 C 
ATOM      7  S   UNL     1      -3.281  -3.407   2.369  0.00  0.00    -0.106 S 
ATOM      8  C   UNL     1      -2.940  -4.600   1.095  0.00  0.00    -0.013 C 
ATOM      9  C   UNL     1      -2.771  -3.930  -0.035  0.00  0.00    -0.044 C 
ATOM     10  C   UNL     1      -2.477  -4.661  -1.343  0.00  0.00    +0.032 C 
ATOM     11  C   UNL     1      -1.962  -6.065  -1.028  0.00  0.00    +0.005 C 
ATOM     12  C   UNL     1      -2.940  -6.767  -0.080  0.00  0.00    +0.005 C 
ATOM     13  C   UNL     1      -2.862  -6.089   1.285  0.00  0.00    +0.042 C 
BRANCH   5  14
ATOM     14  C   UNL     1      -1.496  -1.832   0.006  0.00  0.00    +0.317 C 
ATOM     15  O   UNL     1      -0.528  -2.555  -0.007  0.00  0.00    -0.250 OA
BRANCH  14  16
ATOM     16  O   UNL     1      -1.339  -0.499   0.012  0.00  0.00    -0.464 OA
BRANCH  16  18
ATOM     17  C   UNL     1      -0.019   1.526   0.010  0.00  0.00    +0.048 C 
ATOM     18  C   UNL     1       0.002  -0.004   0.002  0.00  0.00    +0.229 C 
ENDBRANCH  16  18
ENDBRANCH  14  16
ENDBRANCH   5  14
ENDBRANCH   1   6
BRANCH   2  19
ATOM     19  C   UNL     1      -7.430  -2.102   1.681  0.00  0.00    +0.173 C 
BRANCH  19  20
ATOM     20  S   UNL     1      -8.364  -2.843   3.048  0.00  0.00    -0.075 S 
BRANCH  20  21
ATOM     21  C   UNL     1     -10.049  -2.569   2.611  0.00  0.00    +0.212 A 
ATOM     22  N   UNL     1     -11.145  -2.948   3.332  0.00  0.00    -0.199 NA
ATOM     23  C   UNL     1     -12.233  -2.523   2.604  0.00  0.00    +0.185 A 
ATOM     24  N   UNL     1     -11.770  -1.934   1.527  0.00  0.00    -0.127 NA
ATOM     25  N   UNL     1     -10.485  -1.956   1.533  0.00  0.00    -0.120 NA
BRANCH  23  26
ATOM     26  C   UNL     1     -13.655  -2.699   2.967  0.00  0.00    +0.028 A 
ATOM     27  C   UNL     1     -13.999  -3.345   4.155  0.00  0.00    +0.057 A 
ATOM     28  C   UNL     1     -15.333  -3.508   4.491  0.00  0.00    +0.124 A 
ATOM     29  C   UNL     1     -16.326  -3.028   3.649  0.00  0.00    +0.091 A 
ATOM     30  C   UNL     1     -15.988  -2.384   2.468  0.00  0.00    +0.124 A 
ATOM     31  C   UNL     1     -14.657  -2.212   2.127  0.00  0.00    +0.057 A 
BRANCH  30  32
ATOM     32  O   UNL     1     -16.965  -1.916   1.647  0.00  0.00    -0.495 OA
ATOM     33  C   UNL     1     -18.316  -2.122   2.062  0.00  0.00    +0.277 C 
ENDBRANCH  30  32
BRANCH  28  34
ATOM     34  O   UNL     1     -15.670  -4.138   5.647  0.00  0.00    -0.495 OA
ATOM     35  C   UNL     1     -17.064  -4.270   5.932  0.00  0.00    +0.277 C 
ENDBRANCH  28  34
ENDBRANCH  23  26
ENDBRANCH  20  21
ENDBRANCH  19  20
ENDBRANCH   2  19
TORSDOF 10
