REMARK  Name = ZINC49165408
REMARK  8 active torsions:
REMARK  status: ('A' for Active; 'I' for Inactive)
REMARK    1  A    between atoms: C_1  and  C_2
REMARK    2  A    between atoms: C_2  and  N_3
REMARK    3  A    between atoms: N_6  and  N_7
REMARK    4  A    between atoms: C_8  and  C_10
REMARK    5  A    between atoms: C_10  and  C_11
REMARK    6  A    between atoms: C_11  and  C_12
REMARK    7  A    between atoms: C_15  and  C_19
REMARK    8  A    between atoms: C_17  and  C_18
REMARK                            x       y       z     vdW  Elec       q    Type
REMARK                         _______ _______ _______ _____ _____    ______ ____
ROOT
ATOM      1  N   UNL     1       2.034  -1.348   3.408  0.00  0.00    -0.233 N 
ATOM      2  C   UNL     1       2.686  -1.794   4.500  0.00  0.00    +0.229 C 
ATOM      3  O   UNL     1       2.815  -2.986   4.684  0.00  0.00    -0.274 OA
ATOM      4  H   UNL     1       1.931  -0.394   3.260  0.00  0.00    +0.173 HD
ENDROOT
BRANCH   1   8
ATOM      5  N   UNL     1       0.711  -0.489   1.189  0.00  0.00    -0.298 N 
ATOM      6  C   UNL     1       0.854  -1.814   1.394  0.00  0.00    +0.316 C 
ATOM      7  O   UNL     1       0.395  -2.606   0.593  0.00  0.00    -0.251 OA
ATOM      8  N   UNL     1       1.506  -2.260   2.486  0.00  0.00    -0.218 N 
ATOM      9  H   UNL     1       1.077   0.142   1.827  0.00  0.00    +0.150 HD
ATOM     10  H   UNL     1       1.609  -3.213   2.633  0.00  0.00    +0.174 HD
BRANCH   5  12
ATOM     11  C   UNL     1      -0.019   1.526   0.010  0.00  0.00    +0.024 C 
ATOM     12  C   UNL     1       0.002  -0.004   0.002  0.00  0.00    +0.102 C 
ENDBRANCH   5  12
ENDBRANCH   1   8
BRANCH   2  13
ATOM     13  C   UNL     1       3.255  -0.812   5.492  0.00  0.00    +0.102 C 
BRANCH  13  14
ATOM     14  C   UNL     1       3.939  -1.575   6.628  0.00  0.00    +0.044 C 
BRANCH  14  15
ATOM     15  C   UNL     1       4.508  -0.593   7.620  0.00  0.00    -0.044 A 
ATOM     16  C   UNL     1       5.830  -0.200   7.524  0.00  0.00    +0.004 A 
ATOM     17  C   UNL     1       6.351   0.700   8.433  0.00  0.00    +0.003 A 
ATOM     18  C   UNL     1       5.551   1.208   9.440  0.00  0.00    -0.050 A 
ATOM     19  C   UNL     1       4.229   0.817   9.536  0.00  0.00    +0.007 A 
ATOM     20  C   UNL     1       3.706  -0.081   8.623  0.00  0.00    -0.047 A 
ATOM     21  C   UNL     1       2.263  -0.504   8.725  0.00  0.00    +0.044 C 
ATOM     22  C   UNL     1       6.120   2.189  10.432  0.00  0.00    +0.044 C 
ENDBRANCH  14  15
ENDBRANCH  13  14
ENDBRANCH   2  13
TORSDOF 5
