REMARK  Name = ZINC54080705
REMARK  7 active torsions:
REMARK  status: ('A' for Active; 'I' for Inactive)
REMARK    1  A    between atoms: C_1  and  C_2
REMARK    2  A    between atoms: C_9  and  C_12
REMARK    3  A    between atoms: C_10  and  C_11
REMARK    4  A    between atoms: N_14  and  C_15
REMARK    5  A    between atoms: N_14  and  C_16
REMARK    6  A    between atoms: C_16  and  C_17
REMARK    7  A    between atoms: C_22  and  O_23
REMARK                            x       y       z     vdW  Elec       q    Type
REMARK                         _______ _______ _______ _____ _____    ______ ____
ROOT
ATOM      1  C   UNL     1      -0.155  -1.329   4.816  0.00  0.00    +0.282 C 
ATOM      2  O   UNL     1      -0.194  -2.352   5.473  0.00  0.00    -0.267 OA
ATOM      3  N   UNL     1       0.159  -0.160   5.408  0.00  0.00    -0.294 N 
ATOM      4  C   UNL     1       0.134   1.084   4.634  0.00  0.00    +0.133 C 
ENDROOT
BRANCH   1  13
ATOM      5  C   UNL     1      -1.077   1.572   0.168  0.00  0.00    +0.047 C 
ATOM      6  C   UNL     1      -1.098   0.066   0.148  0.00  0.00    -0.008 A 
ATOM      7  C   UNL     1      -1.342  -0.606  -1.031  0.00  0.00    +0.007 A 
ATOM      8  C   UNL     1      -1.365  -1.993  -1.065  0.00  0.00    +0.001 A 
ATOM      9  C   UNL     1      -1.146  -2.718   0.072  0.00  0.00    +0.012 A 
ATOM     10  C   UNL     1      -0.897  -2.057   1.277  0.00  0.00    +0.024 A 
ATOM     11  C   UNL     1      -0.867  -0.650   1.317  0.00  0.00    +0.139 A 
ATOM     12  O   UNL     1      -0.602  -0.284   2.586  0.00  0.00    -0.450 OA
ATOM     13  C   UNL     1      -0.452  -1.367   3.377  0.00  0.00    +0.194 A 
ATOM     14  C   UNL     1      -0.629  -2.498   2.645  0.00  0.00    +0.008 A 
ATOM     15  C   UNL     1      -0.547  -3.919   3.140  0.00  0.00    +0.048 C 
ENDBRANCH   1  13
BRANCH   3  16
ATOM     16  C   UNL     1       0.525  -0.132   6.827  0.00  0.00    +0.146 C 
BRANCH  16  17
ATOM     17  C   UNL     1       2.015  -0.313   6.964  0.00  0.00    +0.011 A 
ATOM     18  C   UNL     1       2.534  -1.551   7.289  0.00  0.00    +0.009 A 
ATOM     19  C   UNL     1       3.901  -1.717   7.415  0.00  0.00    +0.001 A 
ATOM     20  C   UNL     1       4.752  -0.645   7.217  0.00  0.00    +0.004 A 
ATOM     21  C   UNL     1       4.237   0.595   6.892  0.00  0.00    +0.046 A 
ATOM     22  C   UNL     1       2.867   0.763   6.759  0.00  0.00    +0.122 A 
BRANCH  22  23
ATOM     23  O   UNL     1       2.359   1.981   6.434  0.00  0.00    -0.506 OA
ATOM     24  H   UNL     1       2.157   2.540   7.197  0.00  0.00    +0.292 HD
ENDBRANCH  22  23
ENDBRANCH  16  17
ENDBRANCH   3  16
TORSDOF 4
