REMARK  Name = ZINC64121139
REMARK  8 active torsions:
REMARK  status: ('A' for Active; 'I' for Inactive)
REMARK    1  A    between atoms: C_1  and  C_2
REMARK    2  A    between atoms: C_5  and  C_11
REMARK    3  A    between atoms: C_6  and  C_10
REMARK    4  A    between atoms: C_7  and  O_8
REMARK    5  A    between atoms: O_8  and  C_9
REMARK    6  A    between atoms: C_11  and  N_12
REMARK    7  A    between atoms: C_13  and  C_15
REMARK    8  A    between atoms: C_15  and  C_16
REMARK                            x       y       z     vdW  Elec       q    Type
REMARK                         _______ _______ _______ _____ _____    ______ ____
ROOT
ATOM      1  N   UNL     1       1.437  -4.708  -0.371  0.00  0.00    -0.310 N 
ATOM      2  C   UNL     1       1.715  -6.025  -0.441  0.00  0.00    +0.214 C 
ATOM      3  O   UNL     1       0.821  -6.825  -0.613  0.00  0.00    -0.276 OA
ATOM      4  H   UNL     1       2.152  -4.067  -0.233  0.00  0.00    +0.149 HD
ENDROOT
BRANCH   1   5
ATOM      5  C   UNL     1       0.053  -4.244  -0.501  0.00  0.00    +0.160 C 
BRANCH   5  10
ATOM      6  C   UNL     1      -0.083   1.482  -0.177  0.00  0.00    +0.049 C 
ATOM      7  C   UNL     1      -0.052  -0.024  -0.223  0.00  0.00    +0.010 A 
ATOM      8  C   UNL     1       0.106  -0.684  -1.425  0.00  0.00    +0.118 A 
ATOM      9  N   UNL     1       0.135  -2.002  -1.473  0.00  0.00    -0.258 NA
ATOM     10  C   UNL     1       0.014  -2.742  -0.387  0.00  0.00    +0.065 A 
ATOM     11  C   UNL     1      -0.148  -2.157   0.853  0.00  0.00    +0.014 A 
ATOM     12  C   UNL     1      -0.177  -0.768   0.947  0.00  0.00    +0.129 A 
ATOM     13  C   UNL     1      -0.284  -3.010   2.087  0.00  0.00    +0.049 C 
BRANCH  12  14
ATOM     14  O   UNL     1      -0.330  -0.155   2.149  0.00  0.00    -0.494 OA
ATOM     15  C   UNL     1      -1.667   0.116   2.574  0.00  0.00    +0.277 C 
ENDBRANCH  12  14
ENDBRANCH   5  10
ENDBRANCH   1   5
BRANCH   2  16
ATOM     16  C   UNL     1       3.139  -6.502  -0.307  0.00  0.00    +0.112 C 
BRANCH  16  17
ATOM     17  C   UNL     1       3.161  -8.031  -0.260  0.00  0.00    +0.107 C 
ATOM     18  C   UNL     1       2.326  -8.473   0.925  0.00  0.00    -0.004 C 
ATOM     19  C   UNL     1       2.940  -9.238   1.872  0.00  0.00    -0.007 A 
ATOM     20  C   UNL     1       2.207  -9.707   3.049  0.00  0.00    +0.009 A 
ATOM     21  C   UNL     1       2.860 -10.466   3.967  0.00  0.00    +0.001 A 
ATOM     22  C   UNL     1       4.204 -10.803   3.807  0.00  0.00    +0.002 A 
ATOM     23  C   UNL     1       4.939 -10.399   2.739  0.00  0.00    +0.024 A 
ATOM     24  C   UNL     1       4.358  -9.609   1.730  0.00  0.00    +0.040 A 
ATOM     25  N   UNL     1       5.089  -9.219   0.685  0.00  0.00    -0.284 N 
ATOM     26  C   UNL     1       4.606  -8.475  -0.295  0.00  0.00    +0.225 C 
ATOM     27  O   UNL     1       5.323  -8.149  -1.223  0.00  0.00    -0.275 OA
ATOM     28  H   UNL     1       6.018  -9.493   0.643  0.00  0.00    +0.155 HD
ENDBRANCH  16  17
ENDBRANCH   2  16
TORSDOF 5
