REMARK  Name = ZINC19790866
REMARK  6 active torsions:
REMARK  status: ('A' for Active; 'I' for Inactive)
REMARK    1  A    between atoms: N_8  and  N_9
REMARK    2  A    between atoms: C_10  and  C_12
REMARK    3  A    between atoms: C_12  and  O_13
REMARK    4  A    between atoms: O_13  and  C_14
REMARK    5  A    between atoms: N_23  and  C_24
REMARK    6  A    between atoms: C_24  and  N_25
REMARK                            x       y       z     vdW  Elec       q    Type
REMARK                         _______ _______ _______ _____ _____    ______ ____
ROOT
ATOM      1  C   UNL     1      -0.017   1.376   0.010  0.00  0.00    +0.001 A 
ATOM      2  C   UNL     1       1.172   2.086   0.002  0.00  0.00    +0.002 A 
ATOM      3  C   UNL     1       2.385   1.427  -0.013  0.00  0.00    +0.024 A 
ATOM      4  C   UNL     1       2.424   0.037  -0.021  0.00  0.00    +0.047 A 
ATOM      5  C   UNL     1       1.219  -0.677  -0.014  0.00  0.00    +0.028 A 
ATOM      6  C   UNL     1       0.002  -0.004   0.002  0.00  0.00    +0.012 A 
ATOM      7  C   UNL     1       1.583  -2.113  -0.025  0.00  0.00    +0.153 C 
ATOM      8  N   UNL     1       0.772  -3.143  -0.023  0.00  0.00    -0.174 NA
ATOM      9  C   UNL     1       3.060  -2.131  -0.039  0.00  0.00    +0.272 C 
ATOM     10  O   UNL     1       3.764  -3.123  -0.051  0.00  0.00    -0.268 OA
ATOM     11  N   UNL     1       3.488  -0.857  -0.036  0.00  0.00    -0.252 N 
ENDROOT
BRANCH   8  12
ATOM     12  N   UNL     1       1.292  -4.444  -0.035  0.00  0.00    -0.203 N 
ATOM     13  C   UNL     1       0.458  -5.503  -0.032  0.00  0.00    +0.270 C 
ATOM     14  O   UNL     1      -0.742  -5.329  -0.020  0.00  0.00    -0.270 OA
ATOM     15  H   UNL     1       2.252  -4.582  -0.044  0.00  0.00    +0.177 HD
BRANCH  13  16
ATOM     16  C   UNL     1       1.017  -6.902  -0.045  0.00  0.00    +0.326 C 
BRANCH  16  17
ATOM     17  O   UNL     1      -0.057  -7.844  -0.040  0.00  0.00    -0.483 OA
BRANCH  17  18
ATOM     18  C   UNL     1       0.277  -9.162  -0.050  0.00  0.00    +0.121 A 
ATOM     19  C   UNL     1       1.612  -9.539  -0.059  0.00  0.00    +0.047 A 
ATOM     20  C   UNL     1       1.950 -10.879  -0.070  0.00  0.00    +0.023 A 
ATOM     21  C   UNL     1       0.958 -11.843  -0.072  0.00  0.00    +0.041 A 
ATOM     22  C   UNL     1      -0.374 -11.469  -0.063  0.00  0.00    +0.023 A 
ATOM     23  C   UNL     1      -0.716 -10.130  -0.046  0.00  0.00    +0.047 A 
ATOM     24 CL   UNL     1       1.385 -13.526  -0.085  0.00  0.00    -0.084 Cl
ENDBRANCH  17  18
ENDBRANCH  16  17
ENDBRANCH  13  16
ENDBRANCH   8  12
BRANCH  11  25
ATOM     25  C   UNL     1       4.899  -0.461  -0.048  0.00  0.00    +0.201 C 
BRANCH  25  26
ATOM     26  N   UNL     1       5.383  -0.336   1.333  0.00  0.00    -0.287 NA
ATOM     27  C   UNL     1       5.881  -1.639   1.843  0.00  0.00    +0.086 C 
ATOM     28  C   UNL     1       6.796  -1.231   3.025  0.00  0.00    +0.017 C 
ATOM     29  C   UNL     1       7.469   0.063   2.511  0.00  0.00    +0.017 C 
ATOM     30  C   UNL     1       6.532   0.593   1.410  0.00  0.00    +0.086 C 
ENDBRANCH  25  26
ENDBRANCH  11  25
TORSDOF 6
