REMARK  Name = ZINC63664189
REMARK  9 active torsions:
REMARK  status: ('A' for Active; 'I' for Inactive)
REMARK    1  A    between atoms: C_1  and  C_2
REMARK    2  A    between atoms: C_4  and  C_14
REMARK    3  A    between atoms: C_7  and  O_12
REMARK    4  A    between atoms: O_12  and  C_13
REMARK    5  A    between atoms: C_14  and  C_15
REMARK    6  A    between atoms: C_15  and  N_16
REMARK    7  A    between atoms: N_16  and  C_17
REMARK    8  A    between atoms: C_17  and  N_19
REMARK    9  A    between atoms: N_19  and  C_20
REMARK                            x       y       z     vdW  Elec       q    Type
REMARK                         _______ _______ _______ _____ _____    ______ ____
ROOT
ATOM      1  C   UNL     1      -0.068  -0.920  -2.718  0.00  0.00    +0.052 C 
ENDROOT
BRANCH   1   4
ATOM      2  C   UNL     1      -0.391   0.367   0.240  0.00  0.00    +0.035 C 
ATOM      3  C   UNL     1      -0.712  -1.090  -0.100  0.00  0.00    +0.103 C 
ATOM      4  C   UNL     1       0.045  -1.515  -1.338  0.00  0.00    -0.037 C 
ATOM      5  C   UNL     1       0.842  -2.539  -0.957  0.00  0.00    +0.003 A 
ATOM      6  C   UNL     1       1.807  -3.372  -1.683  0.00  0.00    +0.055 A 
ATOM      7  C   UNL     1       2.477  -4.347  -1.022  0.00  0.00    +0.121 A 
ATOM      8  C   UNL     1       2.282  -4.595   0.348  0.00  0.00    +0.047 A 
ATOM      9  C   UNL     1       1.416  -3.882   1.100  0.00  0.00    +0.029 A 
ATOM     10  C   UNL     1       0.638  -2.801   0.486  0.00  0.00    +0.043 A 
ATOM     11  N   UNL     1      -0.252  -1.973   0.978  0.00  0.00    -0.378 N 
ATOM     12  H   UNL     1      -0.555  -1.948   1.899  0.00  0.00    +0.160 HD
BRANCH   7  13
ATOM     13  O   UNL     1       3.367  -5.111  -1.707  0.00  0.00    -0.495 OA
ATOM     14  C   UNL     1       4.051  -6.128  -0.971  0.00  0.00    +0.277 C 
ENDBRANCH   7  13
ENDBRANCH   1   4
BRANCH   1  15
ATOM     15  C   UNL     1       0.878  -1.655  -3.670  0.00  0.00    +0.107 C 
BRANCH  15  16
ATOM     16  N   UNL     1       0.768  -1.076  -5.011  0.00  0.00    -0.326 N 
ATOM     17  H   UNL     1       0.159  -0.339  -5.173  0.00  0.00    +0.148 HD
BRANCH  16  18
ATOM     18  C   UNL     1       1.514  -1.567  -6.020  0.00  0.00    +0.135 C 
ATOM     19  S   UNL     1       2.590  -2.868  -5.735  0.00  0.00    -0.019 S 
BRANCH  18  20
ATOM     20  N   UNL     1       1.413  -1.035  -7.254  0.00  0.00    -0.297 N 
ATOM     21  H   UNL     1       0.760  -0.340  -7.430  0.00  0.00    +0.154 HD
BRANCH  20  22
ATOM     22  C   UNL     1       2.250  -1.484  -8.281  0.00  0.00    +0.033 A 
ATOM     23  C   UNL     1       2.451  -2.846  -8.469  0.00  0.00    +0.024 A 
ATOM     24  C   UNL     1       3.278  -3.287  -9.483  0.00  0.00    +0.017 A 
ATOM     25  C   UNL     1       3.906  -2.374 -10.312  0.00  0.00    +0.018 A 
ATOM     26  C   UNL     1       3.708  -1.017 -10.127  0.00  0.00    +0.017 A 
ATOM     27  C   UNL     1       2.878  -0.571  -9.118  0.00  0.00    +0.024 A 
ATOM     28 BR   UNL     1       5.038  -2.982 -11.700  0.00  0.00    -0.050 Br
ENDBRANCH  20  22
ENDBRANCH  18  20
ENDBRANCH  16  18
ENDBRANCH  15  16
ENDBRANCH   1  15
TORSDOF 7
