REMARK  Name = ZINC39665447
REMARK  8 active torsions:
REMARK  status: ('A' for Active; 'I' for Inactive)
REMARK    1  A    between atoms: C_1  and  C_2
REMARK    2  A    between atoms: C_6  and  C_7
REMARK    3  A    between atoms: C_11  and  C_20
REMARK    4  A    between atoms: N_22  and  C_23
REMARK    5  A    between atoms: C_23  and  C_24
REMARK    6  A    between atoms: C_24  and  C_26
REMARK    7  A    between atoms: C_24  and  O_27
REMARK    8  A    between atoms: O_27  and  C_28
REMARK                            x       y       z     vdW  Elec       q    Type
REMARK                         _______ _______ _______ _____ _____    ______ ____
ROOT
ATOM      1  C   UNL     1       0.244  -0.019   2.665  0.00  0.00    +0.254 C 
ATOM      2  O   UNL     1       0.395   1.160   2.924  0.00  0.00    -0.269 OA
ATOM      3  N   UNL     1       0.129  -0.918   3.663  0.00  0.00    -0.296 N 
ATOM      4  C   UNL     1       0.063  -2.395   3.552  0.00  0.00    +0.121 C 
ATOM      5  C   UNL     1       0.905  -2.913   4.739  0.00  0.00    +0.100 C 
ATOM      6  C   UNL     1       0.884  -1.768   5.765  0.00  0.00    -0.004 C 
ATOM      7  C   UNL     1       0.047  -0.654   5.119  0.00  0.00    +0.115 C 
ATOM      8  C   UNL     1       2.302  -1.268   6.027  0.00  0.00    -0.010 C 
ATOM      9  C   UNL     1       2.262  -0.168   7.092  0.00  0.00    -0.082 C 
ATOM     10  N   UNL     1       1.673  -0.701   8.326  0.00  0.00    +0.379 N 
ATOM     11  C   UNL     1       0.279  -1.093   8.087  0.00  0.00    -0.082 C 
ATOM     12  C   UNL     1       0.235  -2.232   7.065  0.00  0.00    -0.010 C 
ATOM     13  H   UNL     1       2.201  -1.506   8.629  0.00  0.00    -0.086 HD
ATOM     14  H   UNL     1       1.703   0.007   9.044  0.00  0.00    -0.086 HD
ENDROOT
BRANCH   1  20
ATOM     15  C   UNL     1       0.286   1.802   0.139  0.00  0.00    +0.045 C 
ATOM     16  C   UNL     1       0.202   0.298   0.110  0.00  0.00    -0.031 A 
ATOM     17  C   UNL     1       0.140  -0.408  -1.068  0.00  0.00    +0.011 A 
ATOM     18  C   UNL     1       0.066  -1.762  -1.022  0.00  0.00    +0.046 A 
ATOM     19  S   UNL     1       0.077  -2.119   0.620  0.00  0.00    -0.092 S 
ATOM     20  C   UNL     1       0.186  -0.463   1.269  0.00  0.00    +0.077 A 
ENDBRANCH   1  20
BRANCH   5  21
ATOM     21  C   UNL     1       2.316  -3.200   4.296  0.00  0.00    +0.218 C 
ATOM     22  O   UNL     1       2.838  -2.508   3.448  0.00  0.00    -0.275 OA
ATOM     23  N   UNL     1       3.000  -4.224   4.844  0.00  0.00    -0.312 N 
ATOM     24  H   UNL     1       2.583  -4.778   5.523  0.00  0.00    +0.149 HD
BRANCH  23  25
ATOM     25  C   UNL     1       4.372  -4.503   4.413  0.00  0.00    +0.148 C 
BRANCH  25  26
ATOM     26  C   UNL     1       4.914  -5.708   5.184  0.00  0.00    +0.187 C 
ATOM     27  C   UNL     1       6.347  -5.999   4.735  0.00  0.00    +0.053 C 
BRANCH  26  28
ATOM     28  O   UNL     1       4.903  -5.422   6.585  0.00  0.00    -0.488 OA
BRANCH  28  29
ATOM     29  C   UNL     1       4.670  -6.464   7.425  0.00  0.00    +0.121 A 
ATOM     30  C   UNL     1       4.508  -6.237   8.784  0.00  0.00    +0.045 A 
ATOM     31  C   UNL     1       4.271  -7.298   9.637  0.00  0.00    +0.004 A 
ATOM     32  C   UNL     1       4.195  -8.585   9.137  0.00  0.00    +0.000 A 
ATOM     33  C   UNL     1       4.356  -8.813   7.783  0.00  0.00    +0.004 A 
ATOM     34  C   UNL     1       4.588  -7.755   6.925  0.00  0.00    +0.045 A 
ENDBRANCH  28  29
ENDBRANCH  26  28
ENDBRANCH  25  26
ENDBRANCH  23  25
ENDBRANCH   5  21
TORSDOF 6
