REMARK  Name = ZINC35325153
REMARK  8 active torsions:
REMARK  status: ('A' for Active; 'I' for Inactive)
REMARK    1  A    between atoms: C_1  and  C_2
REMARK    2  A    between atoms: C_7  and  N_12
REMARK    3  A    between atoms: C_9  and  C_11
REMARK    4  A    between atoms: C_13  and  C_15
REMARK    5  A    between atoms: C_15  and  C_37
REMARK    6  A    between atoms: N_27  and  C_28
REMARK    7  A    between atoms: C_28  and  C_29
REMARK    8  A    between atoms: C_29  and  N_30
REMARK                            x       y       z     vdW  Elec       q    Type
REMARK                         _______ _______ _______ _____ _____    ______ ____
ROOT
ATOM      1  C   UNL     1       1.283  -0.262   6.042  0.00  0.00    +0.128 C 
ATOM      2  C   UNL     1       2.668   0.383   6.083  0.00  0.00    +0.157 C 
ATOM      3  N   UNL     1       3.547  -0.304   5.132  0.00  0.00    -0.331 N 
ATOM      4  C   UNL     1       4.616   0.166   4.430  0.00  0.00    +0.088 A 
ATOM      5  C   UNL     1       5.429   1.289   4.143  0.00  0.00    +0.067 A 
ATOM      6  C   UNL     1       6.367   0.888   3.267  0.00  0.00    +0.198 A 
ATOM      7  O   UNL     1       6.192  -0.414   2.987  0.00  0.00    -0.461 OA
ATOM      8  C   UNL     1       5.131  -0.888   3.676  0.00  0.00    +0.153 A 
ATOM      9  C   UNL     1       4.341  -2.019   3.931  0.00  0.00    +0.079 A 
ATOM     10  C   UNL     1       3.373  -1.649   4.817  0.00  0.00    +0.109 A 
ATOM     11  C   UNL     1       2.272  -2.422   5.405  0.00  0.00    +0.264 C 
ATOM     12  O   UNL     1       2.199  -3.631   5.282  0.00  0.00    -0.268 OA
ATOM     13  N   UNL     1       1.341  -1.719   6.092  0.00  0.00    -0.282 N 
ATOM     14  C   UNL     1       0.470   0.241   7.236  0.00  0.00    +0.043 C 
ENDROOT
BRANCH   1  16
ATOM     15  N   UNL     1       0.758  -0.566   3.644  0.00  0.00    -0.310 N 
ATOM     16  C   UNL     1       0.589   0.154   4.771  0.00  0.00    +0.238 C 
ATOM     17  O   UNL     1      -0.122   1.137   4.762  0.00  0.00    -0.273 OA
ATOM     18  H   UNL     1       1.326  -1.352   3.651  0.00  0.00    +0.149 HD
BRANCH  15  24
ATOM     19  C   UNL     1       0.091   1.260  -0.154  0.00  0.00    +0.008 C 
ATOM     20  C   UNL     1       0.160  -0.267  -0.087  0.00  0.00    -0.009 C 
ATOM     21  C   UNL     1      -1.258  -0.843  -0.106  0.00  0.00    +0.003 C 
ATOM     22  C   UNL     1      -2.039  -0.315   1.098  0.00  0.00    +0.002 C 
ATOM     23  C   UNL     1      -1.334  -0.737   2.389  0.00  0.00    +0.022 C 
ATOM     24  C   UNL     1       0.083  -0.161   2.408  0.00  0.00    +0.076 C 
ATOM     25  C   UNL     1       0.865  -0.690   1.204  0.00  0.00    +0.009 C 
ATOM     26  C   UNL     1       2.282  -0.114   1.223  0.00  0.00    +0.009 C 
ENDBRANCH  15  24
ENDBRANCH   1  16
BRANCH  13  27
ATOM     27  C   UNL     1       0.364  -2.442   6.910  0.00  0.00    +0.091 C 
BRANCH  27  28
ATOM     28  C   UNL     1      -0.868  -2.768   6.063  0.00  0.00    -0.060 C 
BRANCH  28  29
ATOM     29  N   UNL     1      -1.791  -3.603   6.843  0.00  0.00    +0.381 N 
ATOM     30  C   UNL     1      -2.849  -4.105   5.945  0.00  0.00    -0.079 C 
ATOM     31  C   UNL     1      -3.406  -5.376   6.534  0.00  0.00    -0.019 C 
ATOM     32  C   UNL     1      -4.678  -5.105   7.359  0.00  0.00    -0.002 C 
ATOM     33  C   UNL     1      -4.550  -3.821   8.203  0.00  0.00    -0.002 C 
ATOM     34  C   UNL     1      -3.190  -3.685   8.838  0.00  0.00    -0.019 C 
ATOM     35  C   UNL     1      -2.283  -2.849   7.911  0.00  0.00    -0.079 C 
ATOM     36  H   UNL     1      -1.280  -4.391   7.212  0.00  0.00    -0.082 HD
ENDBRANCH  28  29
ENDBRANCH  27  28
ENDBRANCH  13  27
TORSDOF 5
