REMARK  Name = ZINC13495921
REMARK  16 active torsions:
REMARK  status: ('A' for Active; 'I' for Inactive)
REMARK    1  A    between atoms: C_1  and  C_2
REMARK    2  A    between atoms: C_2  and  C_3
REMARK    3  A    between atoms: C_3  and  C_5
REMARK    4  A    between atoms: C_3  and  N_74
REMARK    5  A    between atoms: N_9  and  C_10
REMARK    6  A    between atoms: C_10  and  C_11
REMARK    7  A    between atoms: C_10  and  C_12
REMARK    8  A    between atoms: C_10  and  C_13
REMARK    9  A    between atoms: C_13  and  C_14
REMARK   10  A    between atoms: C_15  and  C_16
REMARK   11  A    between atoms: C_15  and  N_74
REMARK   12  A    between atoms: C_16  and  C_17
REMARK   13  A    between atoms: C_21  and  C_23
REMARK   14  A    between atoms: C_24  and  C_25
REMARK   15  A    between atoms: C_24  and  N_74
REMARK   16  A    between atoms: C_31  and  C_37
REMARK                            x       y       z     vdW  Elec       q    Type
REMARK                         _______ _______ _______ _____ _____    ______ ____
ROOT
ATOM      1  N   UNL     1      -3.577   0.467   1.092  0.00  0.00    +0.389 N 
ATOM      2  H   UNL     1      -3.505  -0.475   0.689  0.00  0.00    -0.080 HD
ENDROOT
BRANCH   1   3
ATOM      3  C   UNL     1      -4.828   1.097   0.621  0.00  0.00    +0.003 C 
BRANCH   3   4
ATOM      4  C   UNL     1      -5.161   0.542  -0.740  0.00  0.00    +0.139 A 
ATOM      5  N   UNL     1      -4.309   0.201  -1.676  0.00  0.00    -0.115 NA
ATOM      6  N   UNL     1      -4.981  -0.230  -2.688  0.00  0.00    -0.023 NA
ATOM      7  N   UNL     1      -6.239  -0.165  -2.424  0.00  0.00    -0.043 NA
ATOM      8  N   UNL     1      -6.391   0.306  -1.233  0.00  0.00    -0.225 N 
BRANCH   8   9
ATOM      9  C   UNL     1      -7.663   0.540  -0.545  0.00  0.00    +0.061 C 
ATOM     10  C   UNL     1      -7.793  -0.428   0.632  0.00  0.00    +0.036 C 
ATOM     11  C   UNL     1      -7.706   1.980  -0.028  0.00  0.00    +0.036 C 
BRANCH   9  12
ATOM     12  C   UNL     1      -8.820   0.314  -1.521  0.00  0.00    +0.026 C 
ATOM     13  C   UNL     1     -10.148   0.559  -0.803  0.00  0.00    +0.006 C 
ENDBRANCH   9  12
ENDBRANCH   8   9
ENDBRANCH   3   4
BRANCH   3  15
ATOM     14  C   UNL     1      -4.484   3.198   1.928  0.00  0.00    +0.002 C 
ATOM     15  C   UNL     1      -4.657   2.614   0.524  0.00  0.00    -0.011 C 
ENDBRANCH   3  15
ENDBRANCH   1   3
BRANCH   1  16
ATOM     16  C   UNL     1      -2.413   1.266   0.656  0.00  0.00    -0.073 C 
BRANCH  16  17
ATOM     17  C   UNL     1      -2.278   1.153  -0.864  0.00  0.00    +0.016 C 
BRANCH  17  18
ATOM     18  C   UNL     1      -1.004   1.825  -1.308  0.00  0.00    -0.049 A 
ATOM     19  C   UNL     1       0.189   1.127  -1.284  0.00  0.00    +0.003 A 
ATOM     20  C   UNL     1       1.357   1.742  -1.696  0.00  0.00    +0.001 A 
ATOM     21  C   UNL     1       1.332   3.055  -2.127  0.00  0.00    +0.003 A 
ATOM     22  C   UNL     1       0.140   3.754  -2.145  0.00  0.00    -0.050 A 
ATOM     23  C   UNL     1      -1.028   3.139  -1.733  0.00  0.00    +0.007 A 
ATOM     24  C   UNL     1       0.112   5.186  -2.615  0.00  0.00    +0.044 C 
ENDBRANCH  17  18
ENDBRANCH  16  17
ENDBRANCH   1  16
BRANCH   1  25
ATOM     25  C   UNL     1      -3.590   0.357   2.566  0.00  0.00    -0.037 C 
BRANCH  25  26
ATOM     26  C   UNL     1      -4.582  -0.705   2.964  0.00  0.00    +0.001 A 
ATOM     27  C   UNL     1      -4.172  -1.988   3.121  0.00  0.00    +0.017 A 
ATOM     28  C   UNL     1      -5.160  -2.995   3.513  0.00  0.00    -0.001 A 
ATOM     29  C   UNL     1      -4.795  -4.333   3.695  0.00  0.00    +0.010 A 
ATOM     30  C   UNL     1      -5.742  -5.249   4.057  0.00  0.00    +0.001 A 
ATOM     31  C   UNL     1      -7.062  -4.865   4.244  0.00  0.00    +0.005 A 
ATOM     32  C   UNL     1      -7.444  -3.552   4.069  0.00  0.00    -0.026 A 
ATOM     33  C   UNL     1      -6.498  -2.601   3.702  0.00  0.00    +0.052 A 
ATOM     34  N   UNL     1      -6.852  -1.281   3.521  0.00  0.00    -0.322 N 
ATOM     35  H   UNL     1      -7.774  -1.011   3.651  0.00  0.00    +0.169 HD
ATOM     36  C   UNL     1      -5.937  -0.362   3.166  0.00  0.00    +0.251 A 
ATOM     37  O   UNL     1      -6.285   0.796   3.015  0.00  0.00    -0.268 OA
ATOM     38  C   UNL     1      -8.882  -3.149   4.275  0.00  0.00    +0.046 C 
ENDBRANCH  25  26
ENDBRANCH   1  25
TORSDOF 10
