REMARK  Name = ZINC44737267
REMARK  6 active torsions:
REMARK  status: ('A' for Active; 'I' for Inactive)
REMARK    1  A    between atoms: C_1  and  C_2
REMARK    2  A    between atoms: C_9  and  C_11
REMARK    3  A    between atoms: C_11  and  C_13
REMARK    4  A    between atoms: C_11  and  N_14
REMARK    5  A    between atoms: C_15  and  C_17
REMARK    6  A    between atoms: C_28  and  C_30
REMARK                            x       y       z     vdW  Elec       q    Type
REMARK                         _______ _______ _______ _____ _____    ______ ____
ROOT
ATOM      1  C   UNL     1      -1.617  -8.772   1.003  0.00  0.00    +0.100 C 
ATOM      2  C   UNL     1      -0.559  -9.303   0.009  0.00  0.00    +0.121 C 
ATOM      3  N   UNL     1      -0.007 -10.514   0.661  0.00  0.00    -0.295 N 
ATOM      4  C   UNL     1      -1.183 -11.166   1.285  0.00  0.00    +0.115 C 
ATOM      5  C   UNL     1      -2.026  -9.998   1.836  0.00  0.00    -0.004 C 
ATOM      6  C   UNL     1      -3.513 -10.289   1.654  0.00  0.00    -0.010 C 
ATOM      7  C   UNL     1      -3.909 -11.475   2.537  0.00  0.00    -0.082 C 
ATOM      8  N   UNL     1      -3.619 -11.161   3.941  0.00  0.00    +0.379 N 
ATOM      9  C   UNL     1      -2.175 -10.975   4.125  0.00  0.00    -0.082 C 
ATOM     10  C   UNL     1      -1.706  -9.767   3.309  0.00  0.00    -0.010 C 
ATOM     11  C   UNL     1       1.276 -10.928   0.682  0.00  0.00    +0.265 C 
ATOM     12  O   UNL     1       2.148 -10.230   0.205  0.00  0.00    -0.268 OA
ATOM     13  H   UNL     1      -4.102 -10.314   4.201  0.00  0.00    -0.086 HD
ATOM     14  H   UNL     1      -3.937 -11.919   4.527  0.00  0.00    -0.086 HD
ENDROOT
BRANCH  11  15
ATOM     15  C   UNL     1       1.621 -12.236   1.286  0.00  0.00    +0.126 A 
ATOM     16  C   UNL     1       2.958 -12.608   1.409  0.00  0.00    +0.033 A 
ATOM     17  C   UNL     1       3.266 -13.835   1.976  0.00  0.00    +0.004 A 
ATOM     18  C   UNL     1       2.226 -14.647   2.401  0.00  0.00    +0.020 A 
ATOM     19  C   UNL     1       0.919 -14.213   2.247  0.00  0.00    +0.111 A 
ATOM     20  N   UNL     1       0.655 -13.041   1.710  0.00  0.00    -0.250 NA
ENDBRANCH  11  15
BRANCH   1  22
ATOM     21  N   UNL     1      -1.790  -6.717   2.367  0.00  0.00    -0.305 N 
ATOM     22  C   UNL     1      -1.017  -7.712   1.889  0.00  0.00    +0.219 C 
ATOM     23  O   UNL     1       0.161  -7.753   2.173  0.00  0.00    -0.275 OA
ATOM     24  H   UNL     1      -2.733  -6.683   2.140  0.00  0.00    +0.149 HD
BRANCH  21  25
ATOM     25  C   UNL     1      -1.208  -5.686   3.229  0.00  0.00    +0.136 C 
ATOM     26  C   UNL     1      -0.586  -4.588   2.363  0.00  0.00    +0.036 C 
BRANCH  25  35
ATOM     27  C   UNL     1      -5.525  -2.444   8.352  0.00  0.00    +0.044 C 
ATOM     28  C   UNL     1      -5.065  -3.154   7.104  0.00  0.00    -0.048 A 
ATOM     29  C   UNL     1      -5.992  -3.527   6.142  0.00  0.00    +0.005 A 
ATOM     30  C   UNL     1      -5.595  -4.171   5.005  0.00  0.00    +0.030 A 
ATOM     31  C   UNL     1      -4.242  -4.459   4.803  0.00  0.00    +0.089 A 
ATOM     32  C   UNL     1      -3.303  -4.080   5.777  0.00  0.00    +0.067 A 
ATOM     33  C   UNL     1      -3.724  -3.422   6.925  0.00  0.00    +0.031 A 
ATOM     34  N   UNL     1      -2.074  -4.493   5.303  0.00  0.00    -0.340 N 
ATOM     35  C   UNL     1      -2.285  -5.089   4.098  0.00  0.00    +0.128 A 
ATOM     36  N   UNL     1      -3.553  -5.070   3.806  0.00  0.00    -0.231 NA
ATOM     37  H   UNL     1      -1.218  -4.378   5.745  0.00  0.00    +0.167 HD
ENDBRANCH  25  35
ENDBRANCH  21  25
ENDBRANCH   1  22
TORSDOF 4
