REMARK  Name = ZINC32750756
REMARK  10 active torsions:
REMARK  status: ('A' for Active; 'I' for Inactive)
REMARK    1  A    between atoms: C_1  and  C_2
REMARK    2  A    between atoms: C_5  and  S_25
REMARK    3  A    between atoms: C_7  and  C_8
REMARK    4  A    between atoms: N_10  and  N_11
REMARK    5  A    between atoms: C_12  and  C_14
REMARK    6  A    between atoms: C_14  and  C_16
REMARK    7  A    between atoms: C_14  and  O_17
REMARK    8  A    between atoms: O_17  and  C_18
REMARK    9  A    between atoms: S_25  and  N_28
REMARK   10  A    between atoms: N_28  and  C_29
REMARK                            x       y       z     vdW  Elec       q    Type
REMARK                         _______ _______ _______ _____ _____    ______ ____
ROOT
ATOM      1  C   UNL     1       4.502   3.890  -0.007  0.00  0.00    +0.044 C 
ATOM      2  C   UNL     1       3.019   3.702  -0.201  0.00  0.00    -0.038 A 
ATOM      3  C   UNL     1       2.237   3.254   0.843  0.00  0.00    +0.006 A 
ATOM      4  C   UNL     1       0.875   3.086   0.669  0.00  0.00    +0.029 A 
ATOM      5  C   UNL     1       0.289   3.356  -0.556  0.00  0.00    +0.109 A 
ATOM      6  C   UNL     1       1.060   3.805  -1.608  0.00  0.00    +0.042 A 
ATOM      7  C   UNL     1       2.434   3.982  -1.437  0.00  0.00    +0.043 A 
ENDROOT
BRANCH   7   8
ATOM      8  C   UNL     1       3.267   4.463  -2.560  0.00  0.00    +0.260 C 
ATOM      9  O   UNL     1       4.433   4.748  -2.374  0.00  0.00    -0.269 OA
ATOM     10  N   UNL     1       2.731   4.585  -3.791  0.00  0.00    -0.230 N 
ATOM     11  H   UNL     1       1.675   4.327  -3.960  0.00  0.00    +0.173 HD
BRANCH  10  12
ATOM     12  N   UNL     1       3.520   5.041  -4.856  0.00  0.00    -0.231 N 
ATOM     13  C   UNL     1       2.985   5.164  -6.087  0.00  0.00    +0.270 C 
ATOM     14  O   UNL     1       1.821   4.879  -6.273  0.00  0.00    -0.270 OA
ATOM     15  H   UNL     1       4.576   5.299  -4.687  0.00  0.00    +0.173 HD
BRANCH  13  16
ATOM     16  C   UNL     1       3.833   5.654  -7.231  0.00  0.00    +0.257 C 
ATOM     17  C   UNL     1       4.253   7.102  -6.971  0.00  0.00    +0.062 C 
BRANCH  16  18
ATOM     18  O   UNL     1       3.081   5.587  -8.444  0.00  0.00    -0.477 OA
BRANCH  18  19
ATOM     19  C   UNL     1       3.785   5.520  -9.605  0.00  0.00    +0.157 A 
ATOM     20  C   UNL     1       5.171   5.580  -9.581  0.00  0.00    +0.048 A 
ATOM     21  C   UNL     1       5.885   5.510 -10.762  0.00  0.00    +0.004 A 
ATOM     22  C   UNL     1       5.221   5.380 -11.967  0.00  0.00    +0.003 A 
ATOM     23  C   UNL     1       3.840   5.320 -11.996  0.00  0.00    +0.042 A 
ATOM     24  C   UNL     1       3.120   5.384 -10.817  0.00  0.00    +0.165 A 
ATOM     25  F   UNL     1       1.770   5.321 -10.844  0.00  0.00    -0.202 F 
ENDBRANCH  18  19
ENDBRANCH  16  18
ENDBRANCH  13  16
ENDBRANCH  10  12
ENDBRANCH   7   8
BRANCH   5  26
ATOM     26  S   UNL     1      -1.445   3.133  -0.769  0.00  0.00    +0.072 S 
ATOM     27  O   UNL     1      -1.817   3.901  -1.906  0.00  0.00    -0.150 OA
ATOM     28  O   UNL     1      -2.040   3.326   0.507  0.00  0.00    -0.150 OA
BRANCH  26  29
ATOM     29  N   UNL     1      -1.689   1.545  -1.170  0.00  0.00    -0.216 N 
ATOM     30  H   UNL     1      -2.081   1.283  -2.164  0.00  0.00    +0.174 HD
BRANCH  29  31
ATOM     31  C   UNL     1      -1.397   0.538  -0.245  0.00  0.00    +0.048 A 
ATOM     32  C   UNL     1      -0.277  -0.263  -0.421  0.00  0.00    +0.027 A 
ATOM     33  C   UNL     1       0.013  -1.254   0.497  0.00  0.00    +0.040 A 
ATOM     34  C   UNL     1      -0.820  -1.457   1.585  0.00  0.00    +0.124 A 
ATOM     35  C   UNL     1      -1.941  -0.663   1.758  0.00  0.00    +0.040 A 
ATOM     36  C   UNL     1      -2.231   0.333   0.846  0.00  0.00    +0.027 A 
ATOM     37  F   UNL     1      -0.538  -2.430   2.478  0.00  0.00    -0.205 F 
ENDBRANCH  29  31
ENDBRANCH  26  29
ENDBRANCH   5  26
TORSDOF 8
