REMARK  Name = ZINC16790805
REMARK  8 active torsions:
REMARK  status: ('A' for Active; 'I' for Inactive)
REMARK    1  A    between atoms: C_1  and  C_2
REMARK    2  A    between atoms: C_7  and  N_8
REMARK    3  A    between atoms: C_9  and  C_11
REMARK    4  A    between atoms: C_11  and  C_13
REMARK    5  A    between atoms: C_11  and  S_14
REMARK    6  A    between atoms: S_14  and  C_15
REMARK    7  A    between atoms: C_18  and  C_21
REMARK    8  A    between atoms: N_19  and  N_20
REMARK                            x       y       z     vdW  Elec       q    Type
REMARK                         _______ _______ _______ _____ _____    ______ ____
ROOT
ATOM      1  C   UNL     1      -0.168   0.054   4.882  0.00  0.00    +0.137 C 
ATOM      2  C   UNL     1      -1.635   0.397   5.150  0.00  0.00    +0.029 C 
ENDROOT
BRANCH   1   4
ATOM      3  N   UNL     1       0.025  -0.014   2.417  0.00  0.00    -0.284 N 
ATOM      4  C   UNL     1      -0.056  -0.693   3.578  0.00  0.00    +0.230 C 
ATOM      5  O   UNL     1      -0.040  -1.906   3.574  0.00  0.00    -0.274 OA
ATOM      6  H   UNL     1       0.078   0.955   2.424  0.00  0.00    +0.155 HD
BRANCH   3  13
ATOM      7  C   UNL     1      -1.264   1.183   0.181  0.00  0.00    +0.045 C 
ATOM      8  C   UNL     1      -0.584  -0.158   0.084  0.00  0.00    -0.029 A 
ATOM      9  C   UNL     1      -0.569  -0.840  -1.117  0.00  0.00    +0.006 A 
ATOM     10  C   UNL     1       0.054  -2.070  -1.207  0.00  0.00    +0.020 A 
ATOM     11  C   UNL     1       0.667  -2.622  -0.095  0.00  0.00    +0.043 A 
ATOM     12  C   UNL     1       0.655  -1.944   1.109  0.00  0.00    +0.043 A 
ATOM     13  C   UNL     1       0.034  -0.706   1.201  0.00  0.00    +0.038 A 
ATOM     14 CL   UNL     1       1.449  -4.168  -0.213  0.00  0.00    -0.083 Cl
ENDBRANCH   3  13
ENDBRANCH   1   4
BRANCH   1  15
ATOM     15  S   UNL     1       0.466  -0.983   6.229  0.00  0.00    -0.072 S 
BRANCH  15  16
ATOM     16  C   UNL     1       0.407   0.070   7.641  0.00  0.00    +0.209 A 
ATOM     17  N   UNL     1      -0.013   1.314   7.668  0.00  0.00    -0.121 NA
ATOM     18  N   UNL     1       0.079   1.787   8.859  0.00  0.00    -0.126 NA
ATOM     19  C   UNL     1       0.567   0.873   9.668  0.00  0.00    +0.188 A 
ATOM     20  N   UNL     1       0.786  -0.258   8.913  0.00  0.00    -0.223 N 
BRANCH  19  21
ATOM     21  C   UNL     1       0.823   1.026  11.110  0.00  0.00    +0.058 A 
ATOM     22  C   UNL     1       0.371   1.995  11.970  0.00  0.00    +0.019 A 
ATOM     23  C   UNL     1       0.746   1.930  13.293  0.00  0.00    +0.008 A 
ATOM     24  C   UNL     1       1.549   0.915  13.705  0.00  0.00    +0.046 A 
ATOM     25  S   UNL     1       1.796  -0.005  12.195  0.00  0.00    -0.093 S 
ENDBRANCH  19  21
BRANCH  20  26
ATOM     26  N   UNL     1       1.281  -1.456   9.344  0.00  0.00    -0.295 N 
ATOM     27  H   UNL     1       2.287  -1.478   9.274  0.00  0.00    +0.163 HD
ATOM     28  H   UNL     1       0.979  -1.654  10.287  0.00  0.00    +0.163 HD
ENDBRANCH  20  26
ENDBRANCH  15  16
ENDBRANCH   1  15
TORSDOF 6
