REMARK  Name = ZINC66782048
REMARK  9 active torsions:
REMARK  status: ('A' for Active; 'I' for Inactive)
REMARK    1  A    between atoms: C_1  and  C_2
REMARK    2  A    between atoms: C_2  and  C_3
REMARK    3  A    between atoms: C_3  and  C_4
REMARK    4  A    between atoms: C_4  and  C_5
REMARK    5  A    between atoms: C_5  and  C_7
REMARK    6  A    between atoms: C_5  and  N_22
REMARK    7  A    between atoms: N_9  and  C_10
REMARK    8  A    between atoms: C_14  and  C_16
REMARK    9  A    between atoms: C_17  and  C_21
REMARK                            x       y       z     vdW  Elec       q    Type
REMARK                         _______ _______ _______ _____ _____    ______ ____
ROOT
ATOM      1  C   UNL     1       1.276  -4.180  -2.046  0.00  0.00    +0.238 C 
ATOM      2  O   UNL     1       2.106  -4.934  -1.583  0.00  0.00    -0.273 OA
ATOM      3  N   UNL     1       0.250  -4.670  -2.770  0.00  0.00    -0.284 N 
ATOM      4  H   UNL     1      -0.453  -4.076  -3.078  0.00  0.00    +0.155 HD
ENDROOT
BRANCH   3   5
ATOM      5  C   UNL     1       0.199  -6.034  -3.078  0.00  0.00    +0.034 A 
ATOM      6  C   UNL     1      -1.028  -6.678  -3.181  0.00  0.00    +0.023 A 
ATOM      7  C   UNL     1      -1.084  -8.025  -3.485  0.00  0.00    +0.002 A 
ATOM      8  C   UNL     1       0.080  -8.740  -3.688  0.00  0.00    +0.009 A 
ATOM      9  C   UNL     1       1.317  -8.102  -3.588  0.00  0.00    -0.009 A 
ATOM     10  C   UNL     1       1.373  -6.741  -3.287  0.00  0.00    +0.032 A 
BRANCH   9  11
ATOM     11  C   UNL     1       2.564  -8.865  -3.806  0.00  0.00    +0.022 A 
ATOM     12  C   UNL     1       2.932 -10.081  -3.296  0.00  0.00    -0.036 A 
ATOM     13  C   UNL     1       4.159 -10.602  -3.644  0.00  0.00    +0.011 A 
ATOM     14  C   UNL     1       4.965  -9.896  -4.478  0.00  0.00    +0.046 A 
ATOM     15  S   UNL     1       3.981  -8.444  -4.808  0.00  0.00    -0.096 S 
ATOM     16  C   UNL     1       2.011 -10.836  -2.372  0.00  0.00    +0.045 C 
ENDBRANCH   9  11
ENDBRANCH   3   5
BRANCH   1  17
ATOM     17  C   UNL     1       1.392  -2.696  -1.811  0.00  0.00    +0.161 C 
BRANCH  17  18
ATOM     18  N   UNL     1       2.771  -2.367  -1.440  0.00  0.00    -0.288 N 
ATOM     19  C   UNL     1       3.321  -2.915  -0.339  0.00  0.00    +0.298 C 
ATOM     20  O   UNL     1       2.674  -3.682   0.347  0.00  0.00    -0.253 OA
ATOM     21  N   UNL     1       4.589  -2.612   0.003  0.00  0.00    -0.313 N 
ATOM     22  H   UNL     1       3.287  -1.754  -1.987  0.00  0.00    +0.151 HD
ATOM     23  H   UNL     1       5.106  -1.999  -0.544  0.00  0.00    +0.146 HD
ATOM     24  H   UNL     1       4.985  -3.006   0.796  0.00  0.00    +0.146 HD
ENDBRANCH  17  18
BRANCH  17  25
ATOM     25  C   UNL     1       0.447  -2.283  -0.681  0.00  0.00    +0.032 C 
BRANCH  25  26
ATOM     26  C   UNL     1       0.472  -0.761  -0.526  0.00  0.00    +0.002 C 
BRANCH  26  28
ATOM     27  C   UNL     1      -0.448   1.175   0.758  0.00  0.00    +0.004 C 
ATOM     28  C   UNL     1      -0.473  -0.347   0.604  0.00  0.00    -0.003 C 
ENDBRANCH  26  28
ENDBRANCH  25  26
ENDBRANCH  17  25
ENDBRANCH   1  17
TORSDOF 7
