REMARK  Name = ZINC66132529
REMARK  8 active torsions:
REMARK  status: ('A' for Active; 'I' for Inactive)
REMARK    1  A    between atoms: C_4  and  O_7
REMARK    2  A    between atoms: O_7  and  C_8
REMARK    3  A    between atoms: C_8  and  C_9
REMARK    4  A    between atoms: C_9  and  O_10
REMARK    5  A    between atoms: O_10  and  C_11
REMARK    6  A    between atoms: C_14  and  C_17
REMARK    7  A    between atoms: N_28  and  C_29
REMARK    8  A    between atoms: C_29  and  C_30
REMARK                            x       y       z     vdW  Elec       q    Type
REMARK                         _______ _______ _______ _____ _____    ______ ____
ROOT
ATOM      1  C   UNL     1      10.709  -3.745   1.735  0.00  0.00    +0.193 C 
ATOM      2  N   UNL     1      10.853  -4.904   0.846  0.00  0.00    -0.321 N 
ATOM      3  C   UNL     1      10.514  -6.161   1.332  0.00  0.00    +0.041 A 
ATOM      4  C   UNL     1      10.038  -7.163   0.505  0.00  0.00    +0.024 A 
ATOM      5  C   UNL     1       9.711  -8.395   1.041  0.00  0.00    +0.002 A 
ATOM      6  C   UNL     1       9.857  -8.633   2.398  0.00  0.00    +0.001 A 
ATOM      7  C   UNL     1      10.332  -7.646   3.236  0.00  0.00    +0.015 A 
ATOM      8  C   UNL     1      10.665  -6.400   2.710  0.00  0.00    +0.058 A 
ATOM      9  C   UNL     1      11.184  -5.312   3.558  0.00  0.00    +0.250 C 
ATOM     10  O   UNL     1      11.564  -5.543   4.690  0.00  0.00    -0.270 OA
ATOM     11  N   UNL     1      11.233  -4.061   3.064  0.00  0.00    -0.272 N 
ATOM     12  H   UNL     1      11.177  -4.794  -0.062  0.00  0.00    +0.148 HD
ENDROOT
BRANCH   1  16
ATOM     13  C   UNL     1       6.574  -2.712   2.054  0.00  0.00    +0.121 A 
ATOM     14  C   UNL     1       7.414  -2.562   3.148  0.00  0.00    +0.046 A 
ATOM     15  C   UNL     1       8.750  -2.897   3.042  0.00  0.00    +0.010 A 
ATOM     16  C   UNL     1       9.251  -3.381   1.848  0.00  0.00    -0.009 A 
ATOM     17  C   UNL     1       8.416  -3.531   0.756  0.00  0.00    +0.010 A 
ATOM     18  C   UNL     1       7.077  -3.203   0.858  0.00  0.00    +0.046 A 
BRANCH  13  19
ATOM     19  O   UNL     1       5.259  -2.384   2.155  0.00  0.00    -0.489 OA
BRANCH  19  20
ATOM     20  C   UNL     1       4.811  -1.884   3.417  0.00  0.00    +0.270 C 
BRANCH  20  21
ATOM     21  C   UNL     1       3.315  -1.571   3.339  0.00  0.00    +0.270 C 
BRANCH  21  22
ATOM     22  O   UNL     1       2.586  -2.783   3.131  0.00  0.00    -0.489 OA
BRANCH  22  26
ATOM     23  C   UNL     1      -1.518  -2.472   2.851  0.00  0.00    +0.000 A 
ATOM     24  C   UNL     1      -0.911  -3.709   2.743  0.00  0.00    +0.004 A 
ATOM     25  C   UNL     1       0.463  -3.816   2.836  0.00  0.00    +0.045 A 
ATOM     26  C   UNL     1       1.234  -2.680   3.038  0.00  0.00    +0.121 A 
ATOM     27  C   UNL     1       0.622  -1.440   3.146  0.00  0.00    +0.045 A 
ATOM     28  C   UNL     1      -0.753  -1.339   3.052  0.00  0.00    +0.004 A 
ENDBRANCH  22  26
ENDBRANCH  21  22
ENDBRANCH  20  21
ENDBRANCH  19  20
ENDBRANCH  13  19
ENDBRANCH   1  16
BRANCH  11  29
ATOM     29  C   UNL     1      11.822  -2.995   3.877  0.00  0.00    +0.141 C 
BRANCH  29  30
ATOM     30  C   UNL     1      13.340  -2.987   3.684  0.00  0.00    +0.136 C 
ATOM     31  C   UNL     1      13.979  -1.926   4.605  0.00  0.00    +0.035 C 
ATOM     32  C   UNL     1      15.090  -1.328   3.699  0.00  0.00    +0.031 C 
ATOM     33  C   UNL     1      14.412  -1.412   2.308  0.00  0.00    +0.160 C 
ATOM     34  O   UNL     1      13.656  -2.636   2.332  0.00  0.00    -0.375 OA
ENDBRANCH  29  30
ENDBRANCH  11  29
TORSDOF 8
