REMARK  Name = ZINC39273550
REMARK  2 active torsions:
REMARK  status: ('A' for Active; 'I' for Inactive)
REMARK    1  A    between atoms: C_4  and  C_7
REMARK    2  A    between atoms: N_22  and  C_23
REMARK                            x       y       z     vdW  Elec       q    Type
REMARK                         _______ _______ _______ _____ _____    ______ ____
ROOT
ATOM      1  C   UNL     1       3.711  -0.707  -0.038  0.00  0.00    +0.114 C 
ATOM      2  C   UNL     1       3.747  -1.758  -1.162  0.00  0.00    +0.184 C 
ATOM      3  C   UNL     1       2.434  -1.789  -1.897  0.00  0.00    +0.240 C 
ATOM      4  O   UNL     1       1.749  -0.789  -1.952  0.00  0.00    -0.273 OA
ATOM      5  N   UNL     1       2.014  -2.923  -2.496  0.00  0.00    -0.282 N 
ATOM      6  C   UNL     1       2.780  -4.093  -2.462  0.00  0.00    +0.055 A 
ATOM      7  C   UNL     1       2.530  -5.137  -3.338  0.00  0.00    +0.025 A 
ATOM      8  C   UNL     1       3.293  -6.289  -3.269  0.00  0.00    +0.002 A 
ATOM      9  C   UNL     1       4.304  -6.410  -2.334  0.00  0.00    +0.002 A 
ATOM     10  C   UNL     1       4.567  -5.369  -1.457  0.00  0.00    +0.025 A 
ATOM     11  C   UNL     1       3.812  -4.219  -1.528  0.00  0.00    +0.058 A 
ATOM     12  N   UNL     1       4.037  -3.113  -0.682  0.00  0.00    -0.265 N 
ATOM     13  C   UNL     1       4.505  -3.243   0.610  0.00  0.00    +0.163 C 
ATOM     14  N   UNL     1       5.249  -4.203   1.112  0.00  0.00    -0.226 NA
ATOM     15  S   UNL     1       3.888  -1.793   1.439  0.00  0.00    -0.080 S 
ATOM     16  H   UNL     1       1.163  -2.926  -2.961  0.00  0.00    +0.155 HD
ENDROOT
BRANCH   1  20
ATOM     17  C   UNL     1      -0.016   1.379   0.014  0.00  0.00    +0.000 A 
ATOM     18  C   UNL     1       0.055   0.080   0.481  0.00  0.00    +0.000 A 
ATOM     19  C   UNL     1       1.262  -0.595   0.464  0.00  0.00    +0.005 A 
ATOM     20  C   UNL     1       2.396   0.029  -0.020  0.00  0.00    -0.032 A 
ATOM     21  C   UNL     1       2.324   1.327  -0.488  0.00  0.00    +0.005 A 
ATOM     22  C   UNL     1       1.118   2.003  -0.470  0.00  0.00    +0.000 A 
ENDBRANCH   1  20
BRANCH  14  23
ATOM     23  C   UNL     1       5.620  -4.165   2.429  0.00  0.00    +0.067 A 
ATOM     24  C   UNL     1       6.085  -2.974   2.992  0.00  0.00    +0.028 A 
ATOM     25  C   UNL     1       6.457  -2.942   4.320  0.00  0.00    +0.002 A 
ATOM     26  C   UNL     1       6.371  -4.086   5.094  0.00  0.00    +0.000 A 
ATOM     27  C   UNL     1       5.912  -5.269   4.542  0.00  0.00    +0.002 A 
ATOM     28  C   UNL     1       5.531  -5.314   3.217  0.00  0.00    +0.028 A 
ENDBRANCH  14  23
TORSDOF 2
