REMARK  Name = ZINC04217317
REMARK  10 active torsions:
REMARK  status: ('A' for Active; 'I' for Inactive)
REMARK    1  A    between atoms: C_1  and  C_2
REMARK    2  A    between atoms: C_2  and  C_40
REMARK    3  A    between atoms: CA_3  and  C_37
REMARK    4  A    between atoms: CA_9  and  N_13
REMARK    5  A    between atoms: C_14  and  CA_16
REMARK    6  A    between atoms: CA_16  and  C_18
REMARK    7  A    between atoms: CA_16  and  N_24
REMARK    8  A    between atoms: C_25  and  C_27
REMARK    9  A    between atoms: C_27  and  N_28
REMARK   10  A    between atoms: C_29  and  C_31
REMARK                            x       y       z     vdW  Elec       q    Type
REMARK                         _______ _______ _______ _____ _____    ______ ____
ROOT
ATOM      1  CA  UNL     1       5.739   0.199   1.744  0.00  0.00    +0.190 C 
ENDROOT
BRANCH   1   2
ATOM      2  C   UNL     1       5.051   0.698   2.988  0.00  0.00    -0.018 A 
ATOM      3  C   UNL     1       5.319   0.109   4.210  0.00  0.00    +0.006 A 
ATOM      4  C   UNL     1       4.687   0.566   5.351  0.00  0.00    +0.000 A 
ATOM      5  C   UNL     1       3.788   1.612   5.271  0.00  0.00    +0.000 A 
ATOM      6  C   UNL     1       3.520   2.202   4.050  0.00  0.00    +0.000 A 
ATOM      7  C   UNL     1       4.155   1.748   2.909  0.00  0.00    +0.006 A 
ENDBRANCH   1   2
BRANCH   1   9
ATOM      8  N   UNL     1       3.743  -0.994   0.903  0.00  0.00    -0.300 N 
ATOM      9  C   UNL     1       5.045  -1.043   1.248  0.00  0.00    +0.239 C 
ATOM     10  O   UNL     1       5.657  -2.086   1.160  0.00  0.00    -0.273 OA
ATOM     11  H   UNL     1       3.253  -0.160   0.973  0.00  0.00    +0.150 HD
BRANCH   8  18
ATOM     12  C   UNL     1      -0.019   1.526   0.010  0.00  0.00    +0.025 C 
ATOM     13  C   UNL     1       0.002  -0.004   0.002  0.00  0.00    +0.042 C 
ATOM     14  CA  UNL     1       0.918  -0.558  -1.127  0.00  0.00    +0.206 C 
ATOM     15  N   UNL     1       1.415  -1.897  -0.797  0.00  0.00    -0.271 N 
ATOM     16  C   UNL     1       1.564  -2.196   0.634  0.00  0.00    +0.165 C 
ATOM     17  S   UNL     1       0.923  -0.680   1.457  0.00  0.00    -0.127 S 
ATOM     18  CA  UNL     1       3.067  -2.201   0.421  0.00  0.00    +0.190 C 
ATOM     19  C   UNL     1       2.713  -2.168  -1.036  0.00  0.00    +0.240 C 
ATOM     20  O   UNL     1       3.356  -2.325  -2.052  0.00  0.00    -0.273 OA
ATOM     21  C   UNL     1      -1.413  -0.580  -0.086  0.00  0.00    +0.025 C 
BRANCH  14  22
ATOM     22  C   UNL     1       0.133  -0.627  -2.411  0.00  0.00    +0.377 C 
ATOM     23  O   UNL     1       0.118   0.329  -3.168  0.00  0.00    -0.244 OA
ATOM     24  OXT UNL     1      -0.486  -1.638  -2.693  0.00  0.00    -0.244 OA
ENDBRANCH  14  22
ENDBRANCH   8  18
ENDBRANCH   1   9
BRANCH   1  25
ATOM     25  N   UNL     1       7.138  -0.113   2.051  0.00  0.00    -0.299 N 
ATOM     26  C   UNL     1       8.068   0.862   2.020  0.00  0.00    +0.231 C 
ATOM     27  O   UNL     1       7.748   1.997   1.738  0.00  0.00    -0.274 OA
ATOM     28  H   UNL     1       7.393  -1.021   2.277  0.00  0.00    +0.150 HD
BRANCH  26  29
ATOM     29  C   UNL     1       9.506   0.540   2.336  0.00  0.00    +0.198 C 
BRANCH  29  30
ATOM     30  N   UNL     1      10.312   1.760   2.234  0.00  0.00    -0.322 N 
ATOM     31  C   UNL     1      11.667   1.712   2.481  0.00  0.00    +0.097 C 
ATOM     32  N   UNL     1      12.230   0.584   2.805  0.00  0.00    -0.387 N 
ATOM     33  H   UNL     1       9.893   2.600   1.993  0.00  0.00    +0.148 HD
ATOM     34  H   UNL     1      13.184   0.551   2.979  0.00  0.00    +0.157 HD
ATOM     35  H   UNL     1      11.696  -0.223   2.872  0.00  0.00    +0.157 HD
BRANCH  31  36
ATOM     36  C   UNL     1      12.483   2.946   2.378  0.00  0.00    +0.015 A 
ATOM     37  C   UNL     1      12.127   3.970   1.497  0.00  0.00    +0.031 A 
ATOM     38  C   UNL     1      12.916   5.102   1.433  0.00  0.00    +0.111 A 
ATOM     39  N   UNL     1      13.989   5.223   2.189  0.00  0.00    -0.263 NA
ATOM     40  C   UNL     1      14.360   4.280   3.033  0.00  0.00    +0.111 A 
ATOM     41  C   UNL     1      13.626   3.118   3.165  0.00  0.00    +0.031 A 
ENDBRANCH  31  36
ENDBRANCH  29  30
ENDBRANCH  26  29
ENDBRANCH   1  25
TORSDOF 8
