REMARK  Name = ZINC04135661
REMARK  7 active torsions:
REMARK  status: ('A' for Active; 'I' for Inactive)
REMARK    1  A    between atoms: C_1  and  C_2
REMARK    2  A    between atoms: C_5  and  C_7
REMARK    3  A    between atoms: C_9  and  C_13
REMARK    4  A    between atoms: N_15  and  N_16
REMARK    5  A    between atoms: C_17  and  C_18
REMARK    6  A    between atoms: C_17  and  C_19
REMARK    7  A    between atoms: C_23  and  N_25
REMARK                            x       y       z     vdW  Elec       q    Type
REMARK                         _______ _______ _______ _____ _____    ______ ____
ROOT
ATOM      1  C   UNL     1      -5.112   3.960  -1.517  0.00  0.00    +0.281 C 
ATOM      2  O   UNL     1      -5.930   3.111  -1.815  0.00  0.00    -0.267 OA
ATOM      3  N   UNL     1      -5.489   5.039  -0.802  0.00  0.00    -0.201 N 
ATOM      4  H   UNL     1      -4.856   5.752  -0.628  0.00  0.00    +0.178 HD
ENDROOT
BRANCH   1   7
ATOM      5  C   UNL     1      -1.795   3.057  -2.764  0.00  0.00    +0.100 A 
ATOM      6  C   UNL     1      -3.152   2.725  -2.585  0.00  0.00    +0.063 A 
ATOM      7  C   UNL     1      -3.709   3.810  -1.937  0.00  0.00    +0.122 A 
ATOM      8  N   UNL     1      -2.703   4.720  -1.767  0.00  0.00    -0.272 N 
ATOM      9  H   UNL     1      -2.804   5.613  -1.328  0.00  0.00    +0.189 HD
ATOM     10  N   UNL     1      -1.609   4.258  -2.255  0.00  0.00    -0.173 NA
BRANCH   5  15
ATOM     11  C   UNL     1       1.384  -0.806  -5.364  0.00  0.00    +0.051 C 
ATOM     12  C   UNL     1       0.756   0.368  -4.659  0.00  0.00    -0.013 A 
ATOM     13  C   UNL     1       1.331   1.532  -4.264  0.00  0.00    +0.011 A 
ATOM     14  C   UNL     1       0.558   2.480  -3.627  0.00  0.00    +0.018 A 
ATOM     15  C   UNL     1      -0.767   2.213  -3.413  0.00  0.00    +0.040 A 
ATOM     16  S   UNL     1      -0.934   0.585  -4.127  0.00  0.00    -0.092 S 
ENDBRANCH   5  15
ENDBRANCH   1   7
BRANCH   3  17
ATOM     17  N   UNL     1      -6.798   5.129  -0.309  0.00  0.00    -0.184 NA
ATOM     18  C   UNL     1      -7.200   6.220   0.269  0.00  0.00    +0.063 C 
ATOM     19  C   UNL     1      -8.552   6.266   0.933  0.00  0.00    +0.068 C 
BRANCH  18  20
ATOM     20  C   UNL     1      -6.333   7.413   0.275  0.00  0.00    -0.000 A 
ATOM     21  C   UNL     1      -5.508   7.687  -0.818  0.00  0.00    +0.010 A 
ATOM     22  C   UNL     1      -4.700   8.805  -0.805  0.00  0.00    +0.003 A 
ATOM     23  C   UNL     1      -4.707   9.655   0.287  0.00  0.00    +0.033 A 
ATOM     24  C   UNL     1      -5.522   9.390   1.373  0.00  0.00    +0.127 A 
ATOM     25  C   UNL     1      -6.339   8.278   1.372  0.00  0.00    +0.042 A 
BRANCH  24  26
ATOM     26  N   UNL     1      -5.523  10.305   2.536  0.00  0.00    +0.056 N 
ATOM     27  O   UNL     1      -4.883  11.341   2.497  0.00  0.00    -0.126 OA
ATOM     28  O   UNL     1      -6.163  10.022   3.533  0.00  0.00    -0.126 OA
ENDBRANCH  24  26
ENDBRANCH  18  20
ENDBRANCH   3  17
TORSDOF 5
