REMARK  Name = ZINC09705847
REMARK  9 active torsions:
REMARK  status: ('A' for Active; 'I' for Inactive)
REMARK    1  A    between atoms: C_1  and  C_2
REMARK    2  A    between atoms: C_7  and  N_8
REMARK    3  A    between atoms: C_9  and  C_11
REMARK    4  A    between atoms: C_12  and  N_20
REMARK    5  A    between atoms: C_21  and  C_23
REMARK    6  A    between atoms: N_25  and  C_26
REMARK    7  A    between atoms: C_29  and  C_36
REMARK    8  A    between atoms: C_32  and  C_34
REMARK    9  A    between atoms: C_32  and  C_35
REMARK                            x       y       z     vdW  Elec       q    Type
REMARK                         _______ _______ _______ _____ _____    ______ ____
ROOT
ATOM      1  C   UNL     1      -0.627   7.482  -0.546  0.00  0.00    +0.212 A 
ATOM      2  C   UNL     1      -1.172   6.494   0.230  0.00  0.00    +0.093 A 
ATOM      3  C   UNL     1      -0.099   6.053   1.130  0.00  0.00    +0.042 A 
ATOM      4  C   UNL     1      -0.013   5.095   2.140  0.00  0.00    +0.013 A 
ATOM      5  C   UNL     1       1.166   4.922   2.811  0.00  0.00    +0.001 A 
ATOM      6  C   UNL     1       2.275   5.694   2.494  0.00  0.00    +0.004 A 
ATOM      7  C   UNL     1       2.209   6.645   1.499  0.00  0.00    +0.047 A 
ATOM      8  C   UNL     1       1.021   6.838   0.803  0.00  0.00    +0.138 A 
ATOM      9  O   UNL     1       0.665   7.668  -0.198  0.00  0.00    -0.448 OA
ENDROOT
BRANCH   1  11
ATOM     10  N   UNL     1      -0.667   9.102  -2.362  0.00  0.00    -0.279 N 
ATOM     11  C   UNL     1      -1.333   8.218  -1.593  0.00  0.00    +0.285 C 
ATOM     12  O   UNL     1      -2.524   8.034  -1.770  0.00  0.00    -0.266 OA
ATOM     13  H   UNL     1       0.295   9.192  -2.275  0.00  0.00    +0.155 HD
BRANCH  10  20
ATOM     14  C   UNL     1       0.761  10.117  -4.604  0.00  0.00    +0.045 C 
ATOM     15  C   UNL     1      -0.703  10.405  -4.395  0.00  0.00    -0.029 A 
ATOM     16  C   UNL     1      -1.392  11.181  -5.306  0.00  0.00    +0.005 A 
ATOM     17  C   UNL     1      -2.736  11.445  -5.114  0.00  0.00    +0.000 A 
ATOM     18  C   UNL     1      -3.395  10.932  -4.011  0.00  0.00    +0.002 A 
ATOM     19  C   UNL     1      -2.712  10.155  -3.097  0.00  0.00    +0.023 A 
ATOM     20  C   UNL     1      -1.361   9.888  -3.286  0.00  0.00    +0.037 A 
ENDBRANCH  10  20
ENDBRANCH   1  11
BRANCH   2  21
ATOM     21  N   UNL     1      -2.471   6.009   0.176  0.00  0.00    -0.274 N 
ATOM     22  C   UNL     1      -2.713   4.704   0.406  0.00  0.00    +0.303 C 
ATOM     23  O   UNL     1      -1.810   3.972   0.756  0.00  0.00    -0.265 OA
ATOM     24  H   UNL     1      -3.205   6.610  -0.027  0.00  0.00    +0.155 HD
BRANCH  22  25
ATOM     25  C   UNL     1      -4.092   4.157   0.230  0.00  0.00    +0.300 C 
ATOM     26  O   UNL     1      -4.994   4.889  -0.120  0.00  0.00    -0.265 OA
ATOM     27  N   UNL     1      -4.333   2.851   0.460  0.00  0.00    -0.305 N 
ATOM     28  H   UNL     1      -3.612   2.266   0.740  0.00  0.00    +0.149 HD
BRANCH  27  29
ATOM     29  C   UNL     1      -5.686   2.315   0.287  0.00  0.00    +0.074 C 
ATOM     30  C   UNL     1      -6.491   2.539   1.569  0.00  0.00    +0.025 C 
ATOM     31  C   UNL     1      -7.903   1.980   1.389  0.00  0.00    -0.012 C 
ATOM     32  C   UNL     1      -7.824   0.481   1.092  0.00  0.00    +0.009 C 
ATOM     33  C   UNL     1      -7.019   0.257  -0.190  0.00  0.00    -0.033 C 
ATOM     34  C   UNL     1      -5.606   0.816  -0.009  0.00  0.00    +0.028 C 
ATOM     35  C   UNL     1      -6.939  -1.242  -0.487  0.00  0.00    +0.011 C 
ATOM     36  C   UNL     1      -7.706   0.972  -1.355  0.00  0.00    +0.011 C 
ATOM     37  C   UNL     1      -8.708   2.204   2.670  0.00  0.00    +0.007 C 
ENDBRANCH  27  29
ENDBRANCH  22  25
ENDBRANCH   2  21
TORSDOF 5
