REMARK  Name = ZINC12374897
REMARK  5 active torsions:
REMARK  status: ('A' for Active; 'I' for Inactive)
REMARK    1  A    between atoms: C_3  and  C_6
REMARK    2  A    between atoms: C_9  and  C_31
REMARK    3  A    between atoms: C_13  and  C_16
REMARK    4  A    between atoms: N_18  and  C_19
REMARK    5  A    between atoms: C_19  and  C_20
REMARK                            x       y       z     vdW  Elec       q    Type
REMARK                         _______ _______ _______ _____ _____    ______ ____
ROOT
ATOM      1  C   UNL     1       3.599   0.625  -0.029  0.00  0.00    +0.140 C 
ATOM      2  C   UNL     1       4.094   0.360  -1.456  0.00  0.00    +0.066 C 
ATOM      3  C   UNL     1       3.497  -0.953  -1.977  0.00  0.00    +0.215 C 
ATOM      4  N   UNL     1       3.705  -2.000  -0.972  0.00  0.00    -0.238 N 
ATOM      5  C   UNL     1       3.976  -1.747   0.331  0.00  0.00    +0.130 A 
ATOM      6  C   UNL     1       4.112  -2.963   0.974  0.00  0.00    +0.096 A 
ATOM      7  C   UNL     1       3.908  -3.968  -0.006  0.00  0.00    +0.149 A 
ATOM      8  N   UNL     1       3.669  -3.382  -1.149  0.00  0.00    -0.177 NA
ATOM      9  N   UNL     1       4.079  -0.462   0.846  0.00  0.00    -0.319 N 
ATOM     10  H   UNL     1       4.445  -0.287   1.727  0.00  0.00    +0.148 HD
ENDROOT
BRANCH   1  13
ATOM     11  C   UNL     1      -0.016   1.341   0.009  0.00  0.00    +0.041 A 
ATOM     12  C   UNL     1       1.331   1.769  -0.001  0.00  0.00    +0.046 A 
ATOM     13  C   UNL     1       2.092   0.660  -0.014  0.00  0.00    +0.125 A 
ATOM     14  O   UNL     1       1.282  -0.411  -0.012  0.00  0.00    -0.466 OA
ATOM     15  C   UNL     1       0.002  -0.004   0.002  0.00  0.00    +0.195 A 
ENDBRANCH   1  13
BRANCH   6  16
ATOM     16  C   UNL     1       4.410  -3.174   2.395  0.00  0.00    +0.249 C 
ATOM     17  O   UNL     1       4.563  -2.219   3.133  0.00  0.00    -0.270 OA
ATOM     18  N   UNL     1       4.513  -4.426   2.883  0.00  0.00    -0.311 N 
ATOM     19  H   UNL     1       4.391  -5.188   2.295  0.00  0.00    +0.149 HD
BRANCH  18  20
ATOM     20  C   UNL     1       4.811  -4.637   4.302  0.00  0.00    +0.111 C 
BRANCH  20  21
ATOM     21  C   UNL     1       4.873  -6.137   4.593  0.00  0.00    -0.013 C 
ATOM     22  C   UNL     1       5.972  -6.776   3.742  0.00  0.00    +0.012 C 
ATOM     23  C   UNL     1       6.035  -8.277   4.032  0.00  0.00    -0.010 C 
ATOM     24  C   UNL     1       6.345  -8.497   5.514  0.00  0.00    +0.007 C 
ATOM     25  C   UNL     1       5.246  -7.858   6.366  0.00  0.00    -0.010 C 
ATOM     26  C   UNL     1       5.184  -6.357   6.075  0.00  0.00    +0.012 C 
ATOM     27  C   UNL     1       3.900  -8.500   6.026  0.00  0.00    +0.007 C 
ATOM     28  C   UNL     1       3.590  -8.280   4.544  0.00  0.00    -0.010 C 
ATOM     29  C   UNL     1       4.689  -8.919   3.692  0.00  0.00    +0.007 C 
ATOM     30  C   UNL     1       3.527  -6.779   4.253  0.00  0.00    +0.012 C 
ENDBRANCH  20  21
ENDBRANCH  18  20
ENDBRANCH   6  16
BRANCH   3  31
ATOM     31  C   UNL     1       4.189  -1.347  -3.283  0.00  0.00    +0.412 C 
ATOM     32  F   UNL     1       5.558  -1.518  -3.053  0.00  0.00    -0.168 F 
ATOM     33  F   UNL     1       3.643  -2.545  -3.757  0.00  0.00    -0.168 F 
ATOM     34  F   UNL     1       3.998  -0.340  -4.235  0.00  0.00    -0.168 F 
ENDBRANCH   3  31
TORSDOF 5
