REMARK  Name = ZINC01784772
REMARK  7 active torsions:
REMARK  status: ('A' for Active; 'I' for Inactive)
REMARK    1  A    between atoms: C_1  and  C_2
REMARK    2  A    between atoms: C_5  and  S_8
REMARK    3  A    between atoms: S_8  and  N_11
REMARK    4  A    between atoms: N_24  and  S_27
REMARK    5  A    between atoms: S_27  and  C_30
REMARK    6  A    between atoms: C_33  and  O_36
REMARK    7  A    between atoms: O_36  and  C_37
REMARK                            x       y       z     vdW  Elec       q    Type
REMARK                         _______ _______ _______ _____ _____    ______ ____
ROOT
ATOM      1  N   UNL     1      -6.514   1.373   0.036  0.00  0.00    -0.106 NA
ATOM      2  C   UNL     1      -5.214   1.301   0.030  0.00  0.00    +0.186 C 
ATOM      3  N   UNL     1      -4.418   0.173   0.022  0.00  0.00    -0.259 N 
ATOM      4  C   UNL     1      -3.100   0.278   0.017  0.00  0.00    +0.257 C 
ATOM      5  O   UNL     1      -2.382  -0.703   0.009  0.00  0.00    -0.269 OA
ATOM      6  C   UNL     1      -2.539   1.655   0.022  0.00  0.00    +0.090 C 
ATOM      7  C   UNL     1      -1.220   2.065   0.018  0.00  0.00    +0.067 C 
ATOM      8  C   UNL     1      -0.708   3.452   0.027  0.00  0.00    +0.012 A 
ATOM      9  C   UNL     1      -1.330   4.697   0.040  0.00  0.00    +0.010 A 
ATOM     10  C   UNL     1      -0.563   5.845   0.038  0.00  0.00    +0.001 A 
ATOM     11  C   UNL     1       0.820   5.756   0.024  0.00  0.00    +0.002 A 
ATOM     12  C   UNL     1       1.446   4.526   0.013  0.00  0.00    +0.026 A 
ATOM     13  C   UNL     1       0.691   3.358   0.013  0.00  0.00    +0.068 A 
ATOM     14  N   UNL     1       1.061   2.018   0.003  0.00  0.00    -0.135 N 
ATOM     15  C   UNL     1      -0.014   1.213   0.009  0.00  0.00    +0.272 C 
ATOM     16  O   UNL     1       0.002  -0.004   0.002  0.00  0.00    -0.268 OA
ATOM     17  S   UNL     1      -4.031   2.639   0.040  0.00  0.00    -0.047 S 
ATOM     18  H   UNL     1      -4.830  -0.705   0.019  0.00  0.00    +0.157 HD
ENDROOT
BRANCH   1  19
ATOM     19  S   UNL     1      -7.420  -0.014   0.033  0.00  0.00    +0.101 S 
ATOM     20  O   UNL     1      -7.186  -0.649  -1.217  0.00  0.00    -0.146 OA
ATOM     21  O   UNL     1      -7.176  -0.661   1.274  0.00  0.00    -0.146 OA
BRANCH  19  26
ATOM     22  C   UNL     1     -13.221   1.644   0.065  0.00  0.00    +0.044 C 
ATOM     23  C   UNL     1     -11.772   1.229   0.057  0.00  0.00    -0.050 A 
ATOM     24  C   UNL     1     -11.113   1.046  -1.144  0.00  0.00    +0.005 A 
ATOM     25  C   UNL     1      -9.783   0.666  -1.151  0.00  0.00    +0.029 A 
ATOM     26  C   UNL     1      -9.114   0.470   0.042  0.00  0.00    +0.113 A 
ATOM     27  C   UNL     1      -9.775   0.648   1.243  0.00  0.00    +0.029 A 
ATOM     28  C   UNL     1     -11.103   1.032   1.250  0.00  0.00    +0.005 A 
ENDBRANCH  19  26
ENDBRANCH   1  19
BRANCH  14  29
ATOM     29  S   UNL     1       2.628   1.483  -0.016  0.00  0.00    +0.081 S 
ATOM     30  O   UNL     1       3.421   2.527   0.533  0.00  0.00    -0.149 OA
ATOM     31  O   UNL     1       2.615   0.170   0.528  0.00  0.00    -0.149 OA
BRANCH  29  32
ATOM     32  C   UNL     1       3.105   1.323  -1.704  0.00  0.00    +0.109 A 
ATOM     33  C   UNL     1       2.909   0.125  -2.366  0.00  0.00    +0.032 A 
ATOM     34  C   UNL     1       3.276  -0.001  -3.692  0.00  0.00    +0.047 A 
ATOM     35  C   UNL     1       3.853   1.073  -4.356  0.00  0.00    +0.120 A 
ATOM     36  C   UNL     1       4.053   2.272  -3.688  0.00  0.00    +0.047 A 
ATOM     37  C   UNL     1       3.679   2.395  -2.364  0.00  0.00    +0.032 A 
BRANCH  35  38
ATOM     38  O   UNL     1       4.221   0.949  -5.658  0.00  0.00    -0.495 OA
ATOM     39  C   UNL     1       3.985  -0.314  -6.282  0.00  0.00    +0.277 C 
ENDBRANCH  35  38
ENDBRANCH  29  32
ENDBRANCH  14  29
TORSDOF 5
