REMARK  Name = ZINC20416402
REMARK  11 active torsions:
REMARK  status: ('A' for Active; 'I' for Inactive)
REMARK    1  A    between atoms: C_1  and  C_2
REMARK    2  A    between atoms: C_2  and  N_3
REMARK    3  A    between atoms: C_4  and  C_20
REMARK    4  A    between atoms: C_7  and  S_8
REMARK    5  A    between atoms: S_8  and  C_9
REMARK    6  A    between atoms: C_9  and  C_11
REMARK    7  A    between atoms: C_9  and  C_12
REMARK    8  A    between atoms: C_20  and  N_21
REMARK    9  A    between atoms: N_21  and  C_22
REMARK   10  A    between atoms: N_21  and  S_29
REMARK   11  A    between atoms: S_29  and  C_32
REMARK                            x       y       z     vdW  Elec       q    Type
REMARK                         _______ _______ _______ _____ _____    ______ ____
ROOT
ATOM      1  N   UNL     1       4.249  -1.752   0.718  0.00  0.00    -0.305 N 
ATOM      2  C   UNL     1       3.515  -2.839   0.332  0.00  0.00    +0.153 A 
ATOM      3  N   UNL     1       3.708  -3.773   1.219  0.00  0.00    -0.132 NA
ATOM      4  N   UNL     1       4.504  -3.353   2.136  0.00  0.00    -0.122 NA
ATOM      5  C   UNL     1       4.865  -2.117   1.881  0.00  0.00    +0.192 A 
ENDROOT
BRANCH   1   7
ATOM      6  C   UNL     1       3.357   0.524   0.645  0.00  0.00    +0.027 C 
ATOM      7  C   UNL     1       4.351  -0.463   0.030  0.00  0.00    +0.122 C 
ENDBRANCH   1   7
BRANCH   5   8
ATOM      8  S   UNL     1       5.947  -1.120   2.851  0.00  0.00    -0.074 S 
BRANCH   8   9
ATOM      9  C   UNL     1       6.337  -2.283   4.182  0.00  0.00    +0.137 C 
ATOM     10  C   UNL     1       5.069  -2.589   4.980  0.00  0.00    +0.029 C 
BRANCH   9  11
ATOM     11  C   UNL     1       7.370  -1.674   5.094  0.00  0.00    +0.232 C 
ATOM     12  O   UNL     1       7.476  -0.468   5.172  0.00  0.00    -0.274 OA
ATOM     13  N   UNL     1       8.177  -2.469   5.824  0.00  0.00    -0.264 N 
ATOM     14  C   UNL     1       9.130  -1.907   6.666  0.00  0.00    +0.164 A 
ATOM     15  N   UNL     1       9.399  -0.634   6.880  0.00  0.00    -0.233 NA
ATOM     16  C   UNL     1      10.343  -0.268   7.725  0.00  0.00    +0.120 A 
ATOM     17  C   UNL     1      11.047  -1.233   8.365  0.00  0.00    +0.068 A 
ATOM     18  S   UNL     1      10.277  -2.702   7.700  0.00  0.00    -0.061 S 
ATOM     19  H   UNL     1       8.082  -3.563   5.754  0.00  0.00    +0.157 HD
ENDBRANCH   9  11
ENDBRANCH   8   9
ENDBRANCH   5   8
BRANCH   2  20
ATOM     20  C   UNL     1       2.648  -2.939  -0.897  0.00  0.00    +0.207 C 
BRANCH  20  21
ATOM     21  N   UNL     1       3.330  -3.746  -1.911  0.00  0.00    -0.200 N 
BRANCH  21  22
ATOM     22  C   UNL     1       3.194  -5.138  -1.906  0.00  0.00    +0.052 A 
ATOM     23  C   UNL     1       3.358  -5.857  -3.083  0.00  0.00    +0.027 A 
ATOM     24  C   UNL     1       3.223  -7.232  -3.075  0.00  0.00    +0.040 A 
ATOM     25  C   UNL     1       2.925  -7.893  -1.895  0.00  0.00    +0.124 A 
ATOM     26  C   UNL     1       2.761  -7.177  -0.721  0.00  0.00    +0.040 A 
ATOM     27  C   UNL     1       2.895  -5.803  -0.724  0.00  0.00    +0.027 A 
ATOM     28  F   UNL     1       2.794  -9.237  -1.890  0.00  0.00    -0.205 F 
ENDBRANCH  21  22
BRANCH  21  29
ATOM     29  S   UNL     1       4.263  -3.010  -3.065  0.00  0.00    +0.043 S 
ATOM     30  O   UNL     1       4.686  -1.793  -2.466  0.00  0.00    -0.155 OA
ATOM     31  O   UNL     1       5.211  -3.997  -3.448  0.00  0.00    -0.155 OA
ATOM     32  C   UNL     1       3.126  -2.670  -4.437  0.00  0.00    +0.218 C 
ENDBRANCH  21  29
ENDBRANCH  20  21
ENDBRANCH   2  20
TORSDOF 8
