REMARK  Name = ZINC35541686
REMARK  6 active torsions:
REMARK  status: ('A' for Active; 'I' for Inactive)
REMARK    1  A    between atoms: C_1  and  C_2
REMARK    2  A    between atoms: C_2  and  N_3
REMARK    3  A    between atoms: N_3  and  C_4
REMARK    4  A    between atoms: C_4  and  C_6
REMARK    5  A    between atoms: C_4  and  C_14
REMARK    6  A    between atoms: C_9  and  N_11
REMARK                            x       y       z     vdW  Elec       q    Type
REMARK                         _______ _______ _______ _____ _____    ______ ____
ROOT
ATOM      1  C   UNL     1       0.710  -1.947  -1.215  0.00  0.00    +0.028 C 
ENDROOT
BRANCH   1   2
ATOM      2  C   UNL     1      -0.700  -2.467  -1.328  0.00  0.00    -0.039 A 
ATOM      3  C   UNL     1      -1.680  -1.687  -1.912  0.00  0.00    +0.018 A 
ATOM      4  C   UNL     1      -2.974  -2.165  -2.015  0.00  0.00    +0.018 A 
ATOM      5  C   UNL     1      -3.287  -3.424  -1.535  0.00  0.00    +0.016 A 
ATOM      6  C   UNL     1      -2.307  -4.205  -0.952  0.00  0.00    +0.016 A 
ATOM      7  C   UNL     1      -1.012  -3.728  -0.853  0.00  0.00    +0.020 A 
ATOM      8 BR   UNL     1       0.331  -4.799  -0.061  0.00  0.00    -0.050 Br
ATOM      9 BR   UNL     1      -4.315  -1.098  -2.814  0.00  0.00    -0.050 Br
ENDBRANCH   1   2
BRANCH   1  10
ATOM     10  C   UNL     1       1.520  -2.432  -2.389  0.00  0.00    +0.098 A 
ATOM     11  C   UNL     1       2.371  -3.474  -2.381  0.00  0.00    +0.046 A 
ATOM     12  C   UNL     1       2.910  -3.572  -3.684  0.00  0.00    +0.075 A 
ATOM     13  C   UNL     1       2.357  -2.584  -4.410  0.00  0.00    +0.280 A 
ATOM     14  O   UNL     1       1.512  -1.900  -3.622  0.00  0.00    -0.440 OA
BRANCH  13  15
ATOM     15  N   UNL     1       2.629  -2.303  -5.838  0.00  0.00    +0.093 N 
ATOM     16  O   UNL     1       3.410  -2.992  -6.452  0.00  0.00    -0.123 OA
ATOM     17  O   UNL     1       2.071  -1.383  -6.390  0.00  0.00    -0.123 OA
ENDBRANCH  13  15
ENDBRANCH   1  10
BRANCH   1  18
ATOM     18  N   UNL     1       0.690  -0.478  -1.207  0.00  0.00    +0.388 N 
ATOM     19  H   UNL     1       0.202  -0.144  -2.024  0.00  0.00    -0.084 HD
ATOM     20  H   UNL     1       1.636  -0.129  -1.214  0.00  0.00    -0.084 HD
BRANCH  18  22
ATOM     21  C   UNL     1      -0.019   1.526   0.010  0.00  0.00    -0.017 C 
ATOM     22  C   UNL     1       0.002  -0.004   0.002  0.00  0.00    -0.085 C 
ENDBRANCH  18  22
ENDBRANCH   1  18
TORSDOF 5
