REMARK  Name = ZINC60341849
REMARK  13 active torsions:
REMARK  status: ('A' for Active; 'I' for Inactive)
REMARK    1  A    between atoms: C_1  and  C_2
REMARK    2  A    between atoms: C_2  and  N_3
REMARK    3  A    between atoms: C_6  and  C_13
REMARK    4  A    between atoms: C_8  and  C_10
REMARK    5  A    between atoms: C_10  and  C_11
REMARK    6  A    between atoms: C_10  and  C_12
REMARK    7  A    between atoms: N_15  and  C_16
REMARK    8  A    between atoms: C_16  and  C_17
REMARK    9  A    between atoms: C_17  and  C_18
REMARK   10  A    between atoms: C_17  and  C_19
REMARK   11  A    between atoms: C_17  and  N_20
REMARK   12  A    between atoms: C_22  and  C_29
REMARK   13  A    between atoms: C_25  and  C_28
REMARK                            x       y       z     vdW  Elec       q    Type
REMARK                         _______ _______ _______ _____ _____    ______ ____
ROOT
ATOM      1  N   UNL     1      -2.513   1.523   0.646  0.00  0.00    -0.278 N 
ATOM      2  C   UNL     1      -2.690   0.382   1.409  0.00  0.00    +0.151 A 
ATOM      3  C   UNL     1      -3.972  -0.191   1.469  0.00  0.00    +0.094 A 
ATOM      4  C   UNL     1      -4.175  -1.349   2.236  0.00  0.00    +0.054 A 
ATOM      5  C   UNL     1      -3.075  -1.881   2.911  0.00  0.00    +0.037 A 
ATOM      6  C   UNL     1      -1.845  -1.254   2.799  0.00  0.00    +0.047 A 
ATOM      7  N   UNL     1      -1.685  -0.167   2.071  0.00  0.00    -0.233 NA
ATOM      8  C   UNL     1      -5.065   0.449   0.718  0.00  0.00    +0.264 A 
ATOM      9  O   UNL     1      -6.191  -0.010   0.741  0.00  0.00    -0.267 OA
ATOM     10  N   UNL     1      -4.783   1.561   0.004  0.00  0.00    -0.274 N 
ATOM     11  H   UNL     1      -5.489   1.998  -0.497  0.00  0.00    +0.173 HD
ATOM     12  C   UNL     1      -3.543   2.074  -0.018  0.00  0.00    +0.331 A 
ATOM     13  O   UNL     1      -3.341   3.079  -0.671  0.00  0.00    -0.246 OA
ENDROOT
BRANCH   4  14
ATOM     14  C   UNL     1      -5.511  -1.984   2.327  0.00  0.00    +0.245 C 
ATOM     15  O   UNL     1      -6.128  -2.249   1.314  0.00  0.00    -0.270 OA
ATOM     16  N   UNL     1      -6.043  -2.267   3.533  0.00  0.00    -0.313 N 
ATOM     17  H   UNL     1      -5.551  -2.055   4.341  0.00  0.00    +0.149 HD
BRANCH  16  18
ATOM     18  C   UNL     1      -7.363  -2.895   3.622  0.00  0.00    +0.092 C 
BRANCH  18  19
ATOM     19  C   UNL     1      -7.779  -3.002   5.090  0.00  0.00    -0.055 C 
ATOM     20  C   UNL     1      -7.903  -1.599   5.688  0.00  0.00    -0.008 C 
ATOM     21  C   UNL     1      -9.127  -3.719   5.188  0.00  0.00    -0.008 C 
BRANCH  19  22
ATOM     22  N   UNL     1      -6.765  -3.762   5.833  0.00  0.00    +0.384 N 
ATOM     23  C   UNL     1      -6.672  -5.119   5.281  0.00  0.00    -0.075 C 
ATOM     24  C   UNL     1      -5.561  -5.890   5.997  0.00  0.00    -0.031 C 
ATOM     25  C   UNL     1      -5.882  -5.966   7.492  0.00  0.00    +0.003 C 
ATOM     26  C   UNL     1      -6.050  -4.547   8.041  0.00  0.00    -0.031 C 
ATOM     27  C   UNL     1      -7.143  -3.825   7.250  0.00  0.00    -0.075 C 
ATOM     28  C   UNL     1      -6.446  -4.613   9.518  0.00  0.00    +0.005 C 
ATOM     29  C   UNL     1      -4.227  -5.169   5.796  0.00  0.00    +0.005 C 
ATOM     30  H   UNL     1      -5.870  -3.304   5.744  0.00  0.00    -0.081 HD
ENDBRANCH  19  22
ENDBRANCH  18  19
ENDBRANCH  16  18
ENDBRANCH   4  14
BRANCH   6  31
ATOM     31  C   UNL     1      -0.658  -1.829   3.529  0.00  0.00    +0.032 C 
ATOM     32  C   UNL     1      -0.639  -1.303   4.966  0.00  0.00    +0.014 C 
ATOM     33  C   UNL     1      -0.761  -3.356   3.546  0.00  0.00    +0.014 C 
ENDBRANCH   6  31
BRANCH   1  35
ATOM     34  C   UNL     1      -1.034   3.168   1.690  0.00  0.00    +0.027 C 
ATOM     35  C   UNL     1      -1.187   2.141   0.566  0.00  0.00    +0.125 C 
ENDBRANCH   1  35
TORSDOF 6
