REMARK  Name = ZINC09582328
REMARK  11 active torsions:
REMARK  status: ('A' for Active; 'I' for Inactive)
REMARK    1  A    between atoms: C_1  and  C_2
REMARK    2  A    between atoms: C_2  and  C_3
REMARK    3  A    between atoms: N_7  and  C_21
REMARK    4  A    between atoms: C_10  and  C_20
REMARK    5  A    between atoms: N_12  and  C_13
REMARK    6  A    between atoms: C_16  and  C_19
REMARK    7  A    between atoms: C_21  and  C_22
REMARK    8  A    between atoms: N_24  and  C_25
REMARK    9  A    between atoms: C_25  and  C_26
REMARK   10  A    between atoms: C_29  and  O_32
REMARK   11  A    between atoms: O_32  and  C_33
REMARK                            x       y       z     vdW  Elec       q    Type
REMARK                         _______ _______ _______ _____ _____    ______ ____
ROOT
ATOM      1  C   UNL     1      -2.212   1.232   0.859  0.00  0.00    -0.030 A 
ATOM      2  C   UNL     1      -2.428  -0.010   1.368  0.00  0.00    +0.074 A 
ATOM      3  C   UNL     1      -3.709  -0.586   1.297  0.00  0.00    +0.254 A 
ATOM      4  O   UNL     1      -3.894  -1.701   1.756  0.00  0.00    -0.268 OA
ATOM      5  N   UNL     1      -4.734   0.078   0.729  0.00  0.00    -0.284 N 
ATOM      6  C   UNL     1      -4.549   1.329   0.208  0.00  0.00    +0.148 A 
ATOM      7  C   UNL     1      -3.290   1.931   0.269  0.00  0.00    +0.044 A 
ATOM      8  C   UNL     1      -3.405   3.200  -0.345  0.00  0.00    +0.070 A 
ATOM      9  N   UNL     1      -4.638   3.355  -0.737  0.00  0.00    -0.169 NA
ATOM     10  N   UNL     1      -5.378   2.212  -0.409  0.00  0.00    -0.215 N 
ATOM     11  C   UNL     1      -2.293   4.204  -0.513  0.00  0.00    +0.068 C 
ENDROOT
BRANCH  10  12
ATOM     12  C   UNL     1      -6.739   2.012  -0.672  0.00  0.00    +0.068 A 
ATOM     13  C   UNL     1      -7.221   2.127  -1.970  0.00  0.00    +0.028 A 
ATOM     14  C   UNL     1      -8.563   1.925  -2.227  0.00  0.00    +0.005 A 
ATOM     15  C   UNL     1      -9.428   1.618  -1.193  0.00  0.00    -0.050 A 
ATOM     16  C   UNL     1      -8.952   1.508   0.101  0.00  0.00    +0.005 A 
ATOM     17  C   UNL     1      -7.611   1.705   0.364  0.00  0.00    +0.028 A 
ATOM     18  C   UNL     1     -10.892   1.403  -1.476  0.00  0.00    +0.044 C 
ENDBRANCH  10  12
BRANCH   1  20
ATOM     19  C   UNL     1      -0.093   1.595  -0.378  0.00  0.00    +0.009 C 
ATOM     20  C   UNL     1      -0.843   1.859   0.929  0.00  0.00    +0.033 C 
ENDBRANCH   1  20
BRANCH   5  21
ATOM     21  C   UNL     1      -6.058  -0.546   0.669  0.00  0.00    +0.222 C 
BRANCH  21  22
ATOM     22  C   UNL     1      -6.777  -0.325   1.974  0.00  0.00    +0.233 C 
ATOM     23  O   UNL     1      -6.245   0.310   2.860  0.00  0.00    -0.274 OA
ATOM     24  N   UNL     1      -8.012  -0.834   2.158  0.00  0.00    -0.310 N 
ATOM     25  H   UNL     1      -8.437  -1.342   1.450  0.00  0.00    +0.149 HD
BRANCH  24  26
ATOM     26  C   UNL     1      -8.711  -0.620   3.428  0.00  0.00    +0.139 C 
BRANCH  26  27
ATOM     27  C   UNL     1     -10.062  -1.286   3.376  0.00  0.00    -0.030 A 
ATOM     28  C   UNL     1     -11.162  -0.581   2.922  0.00  0.00    +0.009 A 
ATOM     29  C   UNL     1     -12.400  -1.190   2.868  0.00  0.00    +0.046 A 
ATOM     30  C   UNL     1     -12.542  -2.508   3.280  0.00  0.00    +0.120 A 
ATOM     31  C   UNL     1     -11.438  -3.211   3.740  0.00  0.00    +0.046 A 
ATOM     32  C   UNL     1     -10.200  -2.599   3.786  0.00  0.00    +0.009 A 
BRANCH  30  33
ATOM     33  O   UNL     1     -13.760  -3.108   3.233  0.00  0.00    -0.495 OA
ATOM     34  C   UNL     1     -14.852  -2.323   2.748  0.00  0.00    +0.277 C 
ENDBRANCH  30  33
ENDBRANCH  26  27
ENDBRANCH  24  26
ENDBRANCH  21  22
ENDBRANCH   5  21
TORSDOF 7
