REMARK  Name = ZINC39533256
REMARK  10 active torsions:
REMARK  status: ('A' for Active; 'I' for Inactive)
REMARK    1  A    between atoms: C_1  and  C_2
REMARK    2  A    between atoms: C_2  and  C_3
REMARK    3  A    between atoms: C_3  and  C_4
REMARK    4  A    between atoms: C_7  and  C_10
REMARK    5  A    between atoms: C_10  and  C_12
REMARK    6  A    between atoms: C_10  and  N_15
REMARK    7  A    between atoms: C_12  and  N_13
REMARK    8  A    between atoms: C_19  and  S_22
REMARK    9  A    between atoms: S_22  and  O_25
REMARK   10  A    between atoms: O_25  and  C_26
REMARK                            x       y       z     vdW  Elec       q    Type
REMARK                         _______ _______ _______ _____ _____    ______ ____
ROOT
ATOM      1  N   UNL     1      -0.531  -6.874  -1.102  0.00  0.00    -0.296 NA
ATOM      2  C   UNL     1      -1.204  -6.275   0.059  0.00  0.00    +0.066 C 
ATOM      3  C   UNL     1      -2.602  -6.881   0.203  0.00  0.00    -0.064 C 
ATOM      4  N   UNL     1      -2.490  -8.335   0.377  0.00  0.00    +0.398 N 
ATOM      5  C   UNL     1      -1.837  -8.922  -0.800  0.00  0.00    +0.130 C 
ATOM      6  C   UNL     1      -0.433  -8.333  -0.953  0.00  0.00    +0.095 C 
ATOM      7  H   UNL     1      -1.940  -8.534   1.200  0.00  0.00    -0.083 HD
ATOM      8  H   UNL     1      -3.411  -8.733   0.485  0.00  0.00    -0.083 HD
ENDROOT
BRANCH   5   9
ATOM      9  S   UNL     1      -1.719 -10.720  -0.593  0.00  0.00    +0.109 S 
ATOM     10  O   UNL     1      -1.255 -11.322  -1.794  0.00  0.00    -0.138 OA
ATOM     11  O   UNL     1      -1.112 -11.030   0.654  0.00  0.00    -0.138 OA
BRANCH   9  12
ATOM     12  O   UNL     1      -3.159 -11.193  -0.453  0.00  0.00    -0.347 OA
BRANCH  12  13
ATOM     13  C   UNL     1      -3.854 -11.204  -1.620  0.00  0.00    +0.156 A 
ATOM     14  C   UNL     1      -4.556 -10.077  -2.021  0.00  0.00    +0.048 A 
ATOM     15  C   UNL     1      -5.261 -10.090  -3.209  0.00  0.00    +0.004 A 
ATOM     16  C   UNL     1      -5.268 -11.225  -3.998  0.00  0.00    +0.000 A 
ATOM     17  C   UNL     1      -4.569 -12.350  -3.601  0.00  0.00    +0.004 A 
ATOM     18  C   UNL     1      -3.857 -12.340  -2.417  0.00  0.00    +0.048 A 
ENDBRANCH  12  13
ENDBRANCH   9  12
ENDBRANCH   5   9
BRANCH   1  19
ATOM     19  C   UNL     1       0.795  -6.276  -1.308  0.00  0.00    +0.101 C 
BRANCH  19  23
ATOM     20  C   UNL     1       0.377  -2.077  -1.973  0.00  0.00    -0.047 A 
ATOM     21  C   UNL     1       1.415  -2.554  -1.194  0.00  0.00    +0.004 A 
ATOM     22  C   UNL     1       1.550  -3.912  -0.979  0.00  0.00    +0.005 A 
ATOM     23  C   UNL     1       0.647  -4.795  -1.542  0.00  0.00    -0.029 A 
ATOM     24  C   UNL     1      -0.391  -4.318  -2.320  0.00  0.00    +0.005 A 
ATOM     25  C   UNL     1      -0.529  -2.959  -2.532  0.00  0.00    +0.004 A 
BRANCH  20  26
ATOM     26  C   UNL     1       0.230  -0.596  -2.208  0.00  0.00    +0.035 C 
BRANCH  26  28
ATOM     27  C   UNL     1      -0.798   1.514  -1.349  0.00  0.00    +0.004 C 
ATOM     28  C   UNL     1      -0.648   0.010  -1.111  0.00  0.00    +0.001 C 
ENDBRANCH  26  28
ENDBRANCH  20  26
ENDBRANCH  19  23
BRANCH  19  29
ATOM     29  C   UNL     1       1.462  -6.921  -2.525  0.00  0.00    +0.117 C 
BRANCH  29  30
ATOM     30  N   UNL     1       2.820  -6.383  -2.681  0.00  0.00    -0.254 NA
ATOM     31 BR   UNL     1       3.608  -7.014  -4.231  0.00  0.00    +0.010 Br
ATOM     32  H   UNL     1       3.388  -6.594  -1.875  0.00  0.00    +0.135 HD
ENDBRANCH  29  30
ENDBRANCH  19  29
ENDBRANCH   1  19
TORSDOF 9
