REMARK  Name = ZINC09390858
REMARK  7 active torsions:
REMARK  status: ('A' for Active; 'I' for Inactive)
REMARK    1  A    between atoms: C_4  and  N_7
REMARK    2  A    between atoms: C_8  and  C_25
REMARK    3  A    between atoms: C_11  and  S_12
REMARK    4  A    between atoms: S_12  and  C_13
REMARK    5  A    between atoms: C_13  and  C_14
REMARK    6  A    between atoms: C_25  and  N_26
REMARK    7  A    between atoms: C_27  and  C_29
REMARK                            x       y       z     vdW  Elec       q    Type
REMARK                         _______ _______ _______ _____ _____    ______ ____
ROOT
ATOM      1  N   UNL     1      -4.237   2.606  -1.067  0.00  0.00    -0.273 N 
ATOM      2  C   UNL     1      -3.608   2.080   0.030  0.00  0.00    +0.156 A 
ATOM      3  N   UNL     1      -4.200   2.564   1.085  0.00  0.00    -0.132 NA
ATOM      4  N   UNL     1      -5.147   3.360   0.736  0.00  0.00    -0.122 NA
ATOM      5  C   UNL     1      -5.219   3.421  -0.574  0.00  0.00    +0.197 A 
ENDROOT
BRANCH   1   9
ATOM      6  C   UNL     1      -3.349   1.871  -5.073  0.00  0.00    +0.000 A 
ATOM      7  C   UNL     1      -4.564   1.469  -4.551  0.00  0.00    +0.002 A 
ATOM      8  C   UNL     1      -4.862   1.711  -3.224  0.00  0.00    +0.026 A 
ATOM      9  C   UNL     1      -3.938   2.358  -2.415  0.00  0.00    +0.050 A 
ATOM     10  C   UNL     1      -2.721   2.766  -2.943  0.00  0.00    +0.026 A 
ATOM     11  C   UNL     1      -2.427   2.516  -4.269  0.00  0.00    +0.002 A 
ENDBRANCH   1   9
BRANCH   5  12
ATOM     12  S   UNL     1      -6.362   4.374  -1.518  0.00  0.00    -0.076 S 
BRANCH  12  13
ATOM     13  C   UNL     1      -7.301   5.153  -0.180  0.00  0.00    +0.173 C 
BRANCH  13  14
ATOM     14  C   UNL     1      -8.368   6.041  -0.767  0.00  0.00    +0.230 C 
ATOM     15  O   UNL     1      -8.482   6.138  -1.971  0.00  0.00    -0.274 OA
ATOM     16  N   UNL     1      -9.195   6.728   0.046  0.00  0.00    -0.270 N 
ATOM     17  C   UNL     1     -10.263   7.624  -0.405  0.00  0.00    +0.118 C 
ATOM     18  C   UNL     1     -10.913   8.157   0.882  0.00  0.00    +0.056 C 
ATOM     19  C   UNL     1     -10.132   7.505   2.001  0.00  0.00    -0.024 A 
ATOM     20  C   UNL     1      -9.156   6.694   1.443  0.00  0.00    +0.040 A 
ATOM     21  C   UNL     1      -8.303   5.982   2.288  0.00  0.00    +0.024 A 
ATOM     22  C   UNL     1      -8.432   6.087   3.656  0.00  0.00    +0.002 A 
ATOM     23  C   UNL     1      -9.408   6.899   4.203  0.00  0.00    +0.000 A 
ATOM     24  C   UNL     1     -10.257   7.608   3.373  0.00  0.00    +0.005 A 
ENDBRANCH  13  14
ENDBRANCH  12  13
ENDBRANCH   5  12
BRANCH   2  25
ATOM     25  C   UNL     1      -2.449   1.117   0.020  0.00  0.00    +0.181 C 
BRANCH  25  26
ATOM     26  N   UNL     1      -1.191   1.867   0.018  0.00  0.00    -0.308 N 
ATOM     27  C   UNL     1      -0.014   1.209   0.009  0.00  0.00    +0.220 C 
ATOM     28  O   UNL     1       0.002  -0.004   0.002  0.00  0.00    -0.275 OA
ATOM     29  H   UNL     1      -1.204   2.837   0.023  0.00  0.00    +0.149 HD
BRANCH  27  30
ATOM     30  C   UNL     1       1.280   1.980   0.001  0.00  0.00    +0.048 C 
ATOM     31  C   UNL     1       1.337   2.867  -1.245  0.00  0.00    +0.019 C 
ATOM     32  C   UNL     1       2.652   3.650  -1.253  0.00  0.00    -0.009 C 
ATOM     33  C   UNL     1       3.828   2.672  -1.270  0.00  0.00    +0.007 C 
ATOM     34  C   UNL     1       3.771   1.784  -0.024  0.00  0.00    -0.009 C 
ATOM     35  C   UNL     1       2.457   1.002  -0.016  0.00  0.00    +0.019 C 
ATOM     36  C   UNL     1       3.852   2.658   1.229  0.00  0.00    +0.007 C 
ATOM     37  C   UNL     1       2.676   3.637   1.245  0.00  0.00    -0.009 C 
ATOM     38  C   UNL     1       2.733   4.524   0.000  0.00  0.00    +0.007 C 
ATOM     39  C   UNL     1       1.361   2.854   1.254  0.00  0.00    +0.019 C 
ENDBRANCH  27  30
ENDBRANCH  25  26
ENDBRANCH   2  25
TORSDOF 7
