REMARK  Name = ZINC11379948
REMARK  7 active torsions:
REMARK  status: ('A' for Active; 'I' for Inactive)
REMARK    1  A    between atoms: C_4  and  N_17
REMARK    2  A    between atoms: C_5  and  C_7
REMARK    3  A    between atoms: N_9  and  C_10
REMARK    4  A    between atoms: C_18  and  C_20
REMARK    5  A    between atoms: C_20  and  S_21
REMARK    6  A    between atoms: S_21  and  C_22
REMARK    7  A    between atoms: N_26  and  C_27
REMARK                            x       y       z     vdW  Elec       q    Type
REMARK                         _______ _______ _______ _____ _____    ______ ____
ROOT
ATOM      1  N   UNL     1       0.820   1.544  -0.023  0.00  0.00    -0.284 N 
ATOM      2  C   UNL     1       1.882   0.910   0.511  0.00  0.00    +0.228 C 
ATOM      3  O   UNL     1       2.937   1.495   0.638  0.00  0.00    -0.275 OA
ATOM      4  H   UNL     1      -0.001   1.056  -0.196  0.00  0.00    +0.155 HD
ENDROOT
BRANCH   1   8
ATOM      5  C   UNL     1       1.062   5.606  -0.935  0.00  0.00    +0.001 A 
ATOM      6  C   UNL     1       1.849   5.068   0.070  0.00  0.00    +0.002 A 
ATOM      7  C   UNL     1       1.770   3.724   0.374  0.00  0.00    +0.024 A 
ATOM      8  C   UNL     1       0.900   2.901  -0.328  0.00  0.00    +0.046 A 
ATOM      9  C   UNL     1       0.101   3.443  -1.346  0.00  0.00    +0.058 A 
ATOM     10  C   UNL     1       0.196   4.804  -1.646  0.00  0.00    +0.015 A 
BRANCH   9  11
ATOM     11  C   UNL     1      -0.828   2.580  -2.099  0.00  0.00    +0.250 C 
ATOM     12  O   UNL     1      -0.832   1.379  -1.908  0.00  0.00    -0.270 OA
ATOM     13  N   UNL     1      -1.669   3.122  -3.003  0.00  0.00    -0.281 N 
ATOM     14  H   UNL     1      -1.620   4.070  -3.203  0.00  0.00    +0.155 HD
BRANCH  13  15
ATOM     15  C   UNL     1      -2.611   2.317  -3.652  0.00  0.00    +0.034 A 
ATOM     16  C   UNL     1      -2.293   1.008  -3.991  0.00  0.00    +0.026 A 
ATOM     17  C   UNL     1      -3.226   0.214  -4.627  0.00  0.00    +0.040 A 
ATOM     18  C   UNL     1      -4.475   0.725  -4.938  0.00  0.00    +0.124 A 
ATOM     19  C   UNL     1      -4.793   2.032  -4.606  0.00  0.00    +0.040 A 
ATOM     20  C   UNL     1      -3.864   2.828  -3.965  0.00  0.00    +0.026 A 
ATOM     21  F   UNL     1      -5.386  -0.052  -5.564  0.00  0.00    -0.205 F 
ENDBRANCH  13  15
ENDBRANCH   9  11
ENDBRANCH   1   8
BRANCH   2  22
ATOM     22  C   UNL     1       1.759  -0.527   0.950  0.00  0.00    +0.173 C 
BRANCH  22  23
ATOM     23  S   UNL     1       3.346  -1.091   1.622  0.00  0.00    -0.077 S 
BRANCH  23  24
ATOM     24  C   UNL     1       3.043  -2.764   2.084  0.00  0.00    +0.194 A 
ATOM     25  N   UNL     1       1.908  -3.407   1.951  0.00  0.00    -0.121 NA
ATOM     26  N   UNL     1       2.088  -4.708   2.437  0.00  0.00    -0.112 NA
ATOM     27  C   UNL     1       3.326  -4.819   2.851  0.00  0.00    +0.221 A 
ATOM     28  N   UNL     1       3.950  -3.622   2.639  0.00  0.00    -0.287 N 
ATOM     29  N   UNL     1       3.904  -5.954   3.404  0.00  0.00    -0.300 N 
ATOM     30  C   UNL     1       5.106  -6.349   2.658  0.00  0.00    +0.108 C 
ATOM     31  C   UNL     1       5.795  -7.511   3.377  0.00  0.00    +0.019 C 
ATOM     32  C   UNL     1       4.824  -8.691   3.478  0.00  0.00    +0.003 C 
ATOM     33  C   UNL     1       3.561  -8.240   4.216  0.00  0.00    +0.019 C 
ATOM     34  C   UNL     1       2.936  -7.057   3.473  0.00  0.00    +0.108 C 
BRANCH  28  35
ATOM     35  C   UNL     1       5.347  -3.312   2.955  0.00  0.00    +0.093 C 
ATOM     36  C   UNL     1       5.741  -1.836   3.042  0.00  0.00    +0.027 C 
ATOM     37  C   UNL     1       6.198  -2.682   1.851  0.00  0.00    +0.027 C 
ENDBRANCH  28  35
ENDBRANCH  23  24
ENDBRANCH  22  23
ENDBRANCH   2  22
TORSDOF 7
