REMARK  Name = ZINC39612167
REMARK  10 active torsions:
REMARK  status: ('A' for Active; 'I' for Inactive)
REMARK    1  A    between atoms: C_2  and  C_3
REMARK    2  A    between atoms: C_3  and  N_4
REMARK    3  A    between atoms: C_8  and  C_10
REMARK    4  A    between atoms: C_10  and  O_11
REMARK    5  A    between atoms: O_11  and  C_12
REMARK    6  A    between atoms: C_12  and  C_14
REMARK    7  A    between atoms: C_14  and  C_16
REMARK    8  A    between atoms: C_14  and  N_27
REMARK    9  A    between atoms: C_16  and  C_17
REMARK   10  A    between atoms: C_28  and  C_30
REMARK                            x       y       z     vdW  Elec       q    Type
REMARK                         _______ _______ _______ _____ _____    ______ ____
ROOT
ATOM      1  C   UNL     1      -6.182  -7.534  -4.764  0.00  0.00    +0.186 C 
ENDROOT
BRANCH   1   2
ATOM      2  N   UNL     1      -6.138  -8.432  -5.920  0.00  0.00    -0.298 N 
ATOM      3  C   UNL     1      -6.865  -9.567  -5.920  0.00  0.00    +0.246 C 
ATOM      4  O   UNL     1      -7.558  -9.845  -4.960  0.00  0.00    -0.270 OA
ATOM      5  H   UNL     1      -5.585  -8.211  -6.685  0.00  0.00    +0.150 HD
BRANCH   3   6
ATOM      6  C   UNL     1      -6.820 -10.473  -7.086  0.00  0.00    +0.055 A 
ATOM      7  C   UNL     1      -6.021 -10.161  -8.187  0.00  0.00    +0.014 A 
ATOM      8  C   UNL     1      -5.983 -11.011  -9.272  0.00  0.00    +0.001 A 
ATOM      9  C   UNL     1      -6.736 -12.173  -9.272  0.00  0.00    +0.001 A 
ATOM     10  C   UNL     1      -7.530 -12.490  -8.185  0.00  0.00    +0.021 A 
ATOM     11  C   UNL     1      -7.573 -11.650  -7.089  0.00  0.00    +0.053 A 
ATOM     12 CL   UNL     1      -8.565 -12.053  -5.722  0.00  0.00    -0.083 Cl
ENDBRANCH   3   6
ENDBRANCH   1   2
BRANCH   1  13
ATOM     13  C   UNL     1      -4.912  -6.725  -4.707  0.00  0.00    +0.328 C 
ATOM     14  O   UNL     1      -4.057  -6.883  -5.546  0.00  0.00    -0.249 OA
BRANCH  13  15
ATOM     15  O   UNL     1      -4.730  -5.829  -3.724  0.00  0.00    -0.454 OA
BRANCH  15  16
ATOM     16  C   UNL     1      -3.502  -5.098  -3.732  0.00  0.00    +0.328 C 
BRANCH  16  21
ATOM     17  N   UNL     1      -1.318  -1.700  -1.126  0.00  0.00    -0.296 N 
ATOM     18  C   UNL     1      -2.386  -2.498  -1.322  0.00  0.00    +0.306 C 
ATOM     19  O   UNL     1      -3.328  -2.451  -0.556  0.00  0.00    -0.252 OA
ATOM     20  N   UNL     1      -2.409  -3.349  -2.367  0.00  0.00    -0.237 N 
ATOM     21  C   UNL     1      -3.477  -4.147  -2.563  0.00  0.00    +0.258 C 
ATOM     22  O   UNL     1      -4.417  -4.100  -1.799  0.00  0.00    -0.272 OA
ATOM     23  H   UNL     1      -0.566  -1.737  -1.737  0.00  0.00    +0.151 HD
ATOM     24  H   UNL     1      -1.657  -3.386  -2.978  0.00  0.00    +0.159 HD
BRANCH  17  25
ATOM     25  C   UNL     1      -1.293  -0.775   0.010  0.00  0.00    +0.132 C 
BRANCH  25  27
ATOM     26  C   UNL     1      -0.016   1.306   0.009  0.00  0.00    +0.005 C 
ATOM     27  C   UNL     1       0.002  -0.004   0.002  0.00  0.00    -0.016 C 
ENDBRANCH  25  27
ENDBRANCH  17  25
ENDBRANCH  16  21
ENDBRANCH  15  16
ENDBRANCH  13  15
ENDBRANCH   1  13
BRANCH   1  28
ATOM     28  C   UNL     1      -7.381  -6.592  -4.896  0.00  0.00    +0.071 C 
BRANCH  28  29
ATOM     29  C   UNL     1      -8.657  -7.391  -4.829  0.00  0.00    -0.020 A 
ATOM     30  C   UNL     1      -9.359  -7.862  -5.871  0.00  0.00    +0.087 A 
ATOM     31  N   UNL     1     -10.460  -8.540  -5.424  0.00  0.00    -0.360 N 
ATOM     32  H   UNL     1     -11.119  -8.970  -5.992  0.00  0.00    +0.165 HD
ATOM     33  C   UNL     1     -10.495  -8.520  -4.048  0.00  0.00    +0.047 A 
ATOM     34  C   UNL     1      -9.364  -7.805  -3.614  0.00  0.00    +0.003 A 
ATOM     35  C   UNL     1      -9.132  -7.627  -2.249  0.00  0.00    +0.010 A 
ATOM     36  C   UNL     1     -10.006  -8.153  -1.339  0.00  0.00    +0.001 A 
ATOM     37  C   UNL     1     -11.121  -8.863  -1.761  0.00  0.00    +0.002 A 
ATOM     38  C   UNL     1     -11.373  -9.042  -3.104  0.00  0.00    +0.026 A 
ENDBRANCH  28  29
ENDBRANCH   1  28
TORSDOF 10
