REMARK  Name = ZINC08912043
REMARK  14 active torsions:
REMARK  status: ('A' for Active; 'I' for Inactive)
REMARK    1  A    between atoms: C_1  and  C_2
REMARK    2  A    between atoms: C_2  and  C_3
REMARK    3  A    between atoms: C_3  and  N_74
REMARK    4  A    between atoms: C_4  and  C_5
REMARK    5  A    between atoms: C_4  and  N_74
REMARK    6  A    between atoms: C_5  and  C_6
REMARK    7  A    between atoms: C_7  and  C_8
REMARK    8  A    between atoms: C_7  and  N_74
REMARK    9  A    between atoms: C_8  and  N_9
REMARK   10  A    between atoms: C_10  and  C_12
REMARK   11  A    between atoms: C_23  and  C_27
REMARK   12  A    between atoms: C_24  and  C_25
REMARK   13  A    between atoms: C_25  and  C_26
REMARK   14  A    between atoms: C_30  and  C_33
REMARK                            x       y       z     vdW  Elec       q    Type
REMARK                         _______ _______ _______ _____ _____    ______ ____
ROOT
ATOM      1  C   UNL     1      -2.429  -6.886   1.841  0.00  0.00    +0.078 C 
ATOM      2  C   UNL     1      -3.451  -5.804   1.484  0.00  0.00    +0.031 C 
ATOM      3  C   UNL     1      -3.288  -4.618   2.439  0.00  0.00    +0.107 C 
ATOM      4  N   UNL     1      -1.891  -4.165   2.398  0.00  0.00    -0.314 N 
ATOM      5  C   UNL     1      -0.823  -5.147   2.632  0.00  0.00    +0.107 C 
ATOM      6  C   UNL     1      -1.014  -6.326   1.680  0.00  0.00    +0.031 C 
ATOM      7  C   UNL     1      -1.587  -2.844   2.138  0.00  0.00    +0.148 C 
ATOM      8  N   UNL     1      -0.481  -2.523   1.528  0.00  0.00    -0.113 NA
ATOM      9  S   UNL     1      -0.519  -0.853   1.424  0.00  0.00    +0.101 S 
ATOM     10  O   UNL     1      -0.658  -0.508   0.053  0.00  0.00    -0.146 OA
ATOM     11  O   UNL     1       0.511  -0.343   2.260  0.00  0.00    -0.146 OA
ATOM     12  C   UNL     1      -2.077  -0.535   2.225  0.00  0.00    +0.126 C 
ATOM     13  C   UNL     1      -2.490  -1.784   2.543  0.00  0.00    +0.021 C 
ENDROOT
BRANCH  12  14
ATOM     14  C   UNL     1      -2.742   0.754   2.482  0.00  0.00    +0.002 A 
ATOM     15  C   UNL     1      -2.046   1.952   2.296  0.00  0.00    +0.010 A 
ATOM     16  C   UNL     1      -2.675   3.155   2.538  0.00  0.00    +0.004 A 
ATOM     17  C   UNL     1      -3.992   3.178   2.964  0.00  0.00    -0.050 A 
ATOM     18  C   UNL     1      -4.687   1.996   3.150  0.00  0.00    +0.004 A 
ATOM     19  C   UNL     1      -4.072   0.785   2.912  0.00  0.00    +0.010 A 
ATOM     20  C   UNL     1      -4.672   4.497   3.227  0.00  0.00    +0.044 C 
ENDBRANCH  12  14
BRANCH   1  22
ATOM     21  N   UNL     1      -1.813  -9.149   1.054  0.00  0.00    -0.317 N 
ATOM     22  C   UNL     1      -2.608  -8.069   0.924  0.00  0.00    +0.216 C 
ATOM     23  O   UNL     1      -3.469  -8.048   0.070  0.00  0.00    -0.276 OA
ATOM     24  H   UNL     1      -1.125  -9.165   1.738  0.00  0.00    +0.149 HD
BRANCH  21  25
ATOM     25  C   UNL     1      -1.987 -10.298   0.163  0.00  0.00    +0.085 C 
BRANCH  25  26
ATOM     26  C   UNL     1      -0.965 -11.380   0.520  0.00  0.00    -0.060 C 
BRANCH  26  27
ATOM     27  N   UNL     1      -1.168 -12.540  -0.373  0.00  0.00    +0.381 N 
ATOM     28  H   UNL     1      -2.157 -12.813  -0.346  0.00  0.00    -0.082 HD
BRANCH  27  29
ATOM     29  C   UNL     1      -0.806 -12.180  -1.760  0.00  0.00    -0.079 C 
BRANCH  29  31
ATOM     30  C   UNL     1       1.002 -11.353  -3.274  0.00  0.00    +0.002 C 
ATOM     31  C   UNL     1       0.635 -11.669  -1.822  0.00  0.00    -0.022 C 
ENDBRANCH  29  31
ENDBRANCH  27  29
BRANCH  27  32
ATOM     32  C   UNL     1      -0.344 -13.679   0.085  0.00  0.00    -0.079 C 
BRANCH  32  33
ATOM     33  C   UNL     1      -0.864 -14.958  -0.576  0.00  0.00    -0.022 C 
ATOM     34  C   UNL     1      -0.125 -16.167   0.001  0.00  0.00    +0.002 C 
ENDBRANCH  32  33
ENDBRANCH  27  32
ENDBRANCH  26  27
ENDBRANCH  25  26
ENDBRANCH  21  25
ENDBRANCH   1  22
BRANCH  13  35
ATOM     35  C   UNL     1      -3.788  -2.052   3.259  0.00  0.00    +0.037 C 
ATOM     36  C   UNL     1      -4.946  -1.976   2.261  0.00  0.00    +0.009 C 
ENDBRANCH  13  35
TORSDOF 10
