REMARK  Name = ZINC09192134
REMARK  12 active torsions:
REMARK  status: ('A' for Active; 'I' for Inactive)
REMARK    1  A    between atoms: C_1  and  C_2
REMARK    2  A    between atoms: C_2  and  O_3
REMARK    3  A    between atoms: O_3  and  C_4
REMARK    4  A    between atoms: C_4  and  C_6
REMARK    5  A    between atoms: C_7  and  C_39
REMARK    6  A    between atoms: C_8  and  C_13
REMARK    7  A    between atoms: C_9  and  C_12
REMARK    8  A    between atoms: C_13  and  C_15
REMARK    9  A    between atoms: N_19  and  C_31
REMARK   10  A    between atoms: C_20  and  C_22
REMARK   11  A    between atoms: C_26  and  N_28
REMARK   12  A    between atoms: C_31  and  C_32
REMARK                            x       y       z     vdW  Elec       q    Type
REMARK                         _______ _______ _______ _____ _____    ______ ____
ROOT
ATOM      1  C   UNL     1       3.760  -5.508  -5.924  0.00  0.00    +0.076 C 
ATOM      2  C   UNL     1       3.909  -6.626  -6.671  0.00  0.00    +0.249 C 
ATOM      3  C   UNL     1       4.722  -6.308  -7.864  0.00  0.00    +0.288 C 
ATOM      4  O   UNL     1       5.031  -7.102  -8.729  0.00  0.00    -0.266 OA
ATOM      5  N   UNL     1       5.069  -5.008  -7.850  0.00  0.00    -0.279 N 
ATOM      6  C   UNL     1       4.494  -4.401  -6.644  0.00  0.00    +0.145 C 
ATOM      7  O   UNL     1       3.396  -7.842  -6.374  0.00  0.00    -0.282 OA
ENDROOT
BRANCH   6   8
ATOM      8  C   UNL     1       5.592  -3.853  -5.769  0.00  0.00    -0.020 A 
ATOM      9  C   UNL     1       6.750  -4.582  -5.574  0.00  0.00    +0.006 A 
ATOM     10  C   UNL     1       7.757  -4.080  -4.772  0.00  0.00    +0.003 A 
ATOM     11  C   UNL     1       7.606  -2.847  -4.165  0.00  0.00    +0.033 A 
ATOM     12  C   UNL     1       6.449  -2.117  -4.360  0.00  0.00    +0.127 A 
ATOM     13  C   UNL     1       5.444  -2.618  -5.166  0.00  0.00    +0.038 A 
BRANCH  12  14
ATOM     14  N   UNL     1       6.288  -0.797  -3.709  0.00  0.00    +0.056 N 
ATOM     15  O   UNL     1       7.203  -0.315  -3.084  0.00  0.00    -0.126 OA
ATOM     16  O   UNL     1       5.240  -0.201  -3.804  0.00  0.00    -0.126 OA
ENDBRANCH  12  14
ENDBRANCH   6   8
BRANCH   1  17
ATOM     17  C   UNL     1       3.023  -5.392  -4.661  0.00  0.00    +0.197 C 
ATOM     18  O   UNL     1       3.628  -5.339  -3.606  0.00  0.00    -0.287 OA
BRANCH  17  21
ATOM     19  C   UNL     1      -0.580  -5.278  -4.000  0.00  0.00    +0.128 A 
ATOM     20  C   UNL     1       0.703  -5.332  -3.538  0.00  0.00    -0.008 A 
ATOM     21  C   UNL     1       1.550  -5.341  -4.669  0.00  0.00    +0.046 A 
ATOM     22  C   UNL     1       0.735  -5.292  -5.787  0.00  0.00    +0.025 A 
ATOM     23  N   UNL     1      -0.543  -5.259  -5.378  0.00  0.00    -0.352 N 
ATOM     24  H   UNL     1      -1.319  -5.226  -5.960  0.00  0.00    +0.166 HD
ATOM     25  C   UNL     1       1.202  -5.282  -7.219  0.00  0.00    +0.064 C 
ATOM     26  C   UNL     1       1.135  -5.373  -2.095  0.00  0.00    +0.047 C 
BRANCH  19  27
ATOM     27  C   UNL     1      -1.790  -5.251  -3.172  0.00  0.00    +0.356 C 
ATOM     28  O   UNL     1      -1.698  -5.272  -1.960  0.00  0.00    -0.243 OA
BRANCH  27  29
ATOM     29  O   UNL     1      -3.005  -5.204  -3.755  0.00  0.00    -0.460 OA
BRANCH  29  31
ATOM     30  C   UNL     1      -5.420  -5.126  -3.725  0.00  0.00    +0.048 C 
ATOM     31  C   UNL     1      -4.140  -5.180  -2.888  0.00  0.00    +0.229 C 
ENDBRANCH  29  31
ENDBRANCH  27  29
ENDBRANCH  19  27
ENDBRANCH  17  21
ENDBRANCH   1  17
BRANCH   5  32
ATOM     32  C   UNL     1       5.873  -4.319  -8.862  0.00  0.00    +0.145 C 
BRANCH  32  33
ATOM     33  C   UNL     1       4.967  -3.759  -9.928  0.00  0.00    -0.012 A 
ATOM     34  C   UNL     1       4.636  -4.520 -11.039  0.00  0.00    +0.008 A 
ATOM     35  C   UNL     1       3.799  -3.964 -11.994  0.00  0.00    +0.020 A 
ATOM     36  C   UNL     1       3.326  -2.678 -11.809  0.00  0.00    +0.111 A 
ATOM     37  N   UNL     1       3.662  -1.984 -10.739  0.00  0.00    -0.263 NA
ATOM     38  C   UNL     1       4.450  -2.483  -9.807  0.00  0.00    +0.115 A 
ENDBRANCH  32  33
ENDBRANCH   5  32
TORSDOF 9
