REMARK  Name = ZINC11995060
REMARK  10 active torsions:
REMARK  status: ('A' for Active; 'I' for Inactive)
REMARK    1  A    between atoms: C_1  and  C_2
REMARK    2  A    between atoms: C_2  and  O_3
REMARK    3  A    between atoms: O_3  and  C_4
REMARK    4  A    between atoms: C_4  and  C_6
REMARK    5  A    between atoms: C_7  and  C_24
REMARK    6  A    between atoms: C_10  and  N_11
REMARK    7  A    between atoms: C_12  and  C_14
REMARK    8  A    between atoms: C_14  and  N_54
REMARK    9  A    between atoms: C_16  and  C_23
REMARK   10  A    between atoms: C_19  and  C_22
REMARK                            x       y       z     vdW  Elec       q    Type
REMARK                         _______ _______ _______ _____ _____    ______ ____
ROOT
ATOM      1  C   UNL     1      -1.255  -0.753   0.010  0.00  0.00    +0.095 A 
ATOM      2  C   UNL     1      -1.897  -1.149   1.249  0.00  0.00    +0.005 A 
ATOM      3  C   UNL     1      -3.060  -1.840   1.140  0.00  0.00    +0.056 A 
ATOM      4  S   UNL     1      -3.300  -1.963  -0.620  0.00  0.00    -0.080 S 
ATOM      5  C   UNL     1      -1.895  -1.114  -1.168  0.00  0.00    +0.086 A 
ENDROOT
BRANCH   2   6
ATOM      6  C   UNL     1      -1.311  -0.815   2.570  0.00  0.00    -0.016 A 
ATOM      7  C   UNL     1       0.028  -1.100   2.833  0.00  0.00    +0.010 A 
ATOM      8  C   UNL     1       0.569  -0.783   4.062  0.00  0.00    +0.020 A 
ATOM      9  C   UNL     1      -0.218  -0.192   5.036  0.00  0.00    +0.041 A 
ATOM     10  C   UNL     1      -1.550   0.089   4.781  0.00  0.00    +0.020 A 
ATOM     11  C   UNL     1      -2.099  -0.220   3.554  0.00  0.00    +0.010 A 
ATOM     12 CL   UNL     1       0.467   0.198   6.583  0.00  0.00    -0.084 Cl
ENDBRANCH   2   6
BRANCH   5  13
ATOM     13  N   UNL     1      -1.502  -0.858  -2.472  0.00  0.00    -0.281 N 
ATOM     14  C   UNL     1      -2.257  -1.290  -3.501  0.00  0.00    +0.201 C 
ATOM     15  O   UNL     1      -3.280  -1.904  -3.286  0.00  0.00    -0.278 OA
ATOM     16  H   UNL     1      -0.683  -0.367  -2.644  0.00  0.00    +0.155 HD
BRANCH  14  17
ATOM     17  C   UNL     1      -1.829  -1.011  -4.919  0.00  0.00    +0.019 C 
BRANCH  17  25
ATOM     18  C   UNL     1      -2.819  -3.050  -5.774  0.00  0.00    -0.046 C 
ATOM     19  C   UNL     1      -3.897  -3.599  -6.712  0.00  0.00    +0.099 C 
ATOM     20  O   UNL     1      -3.653  -3.125  -8.039  0.00  0.00    -0.378 OA
ATOM     21  C   UNL     1      -3.642  -1.699  -8.148  0.00  0.00    +0.099 C 
ATOM     22  C   UNL     1      -2.561  -1.131  -7.225  0.00  0.00    -0.046 C 
ATOM     23  C   UNL     1      -3.340  -1.300  -9.594  0.00  0.00    +0.036 C 
ATOM     24  C   UNL     1      -5.273  -3.123  -6.244  0.00  0.00    +0.036 C 
ATOM     25  N   UNL     1      -2.838  -1.573  -5.842  0.00  0.00    +0.389 N 
ATOM     26  H   UNL     1      -3.768  -1.238  -5.564  0.00  0.00    -0.081 HD
ENDBRANCH  17  25
ENDBRANCH  14  17
ENDBRANCH   5  13
BRANCH   1  27
ATOM     27  C   UNL     1       0.002  -0.004   0.002  0.00  0.00    +0.342 C 
ATOM     28  O   UNL     1       1.064  -0.598  -0.011  0.00  0.00    -0.245 OA
BRANCH  27  29
ATOM     29  O   UNL     1      -0.016   1.345   0.009  0.00  0.00    -0.461 OA
BRANCH  29  31
ATOM     30  C   UNL     1       1.047   3.535   0.011  0.00  0.00    +0.048 C 
ATOM     31  C   UNL     1       1.268   2.022   0.001  0.00  0.00    +0.229 C 
ENDBRANCH  29  31
ENDBRANCH  27  29
ENDBRANCH   1  27
TORSDOF 7
