REMARK  Name = ZINC08708461
REMARK  9 active torsions:
REMARK  status: ('A' for Active; 'I' for Inactive)
REMARK    1  A    between atoms: C_1  and  N_2
REMARK    2  A    between atoms: N_2  and  C_3
REMARK    3  A    between atoms: N_2  and  S_19
REMARK    4  A    between atoms: C_3  and  C_4
REMARK    5  A    between atoms: N_6  and  C_7
REMARK    6  A    between atoms: C_7  and  C_8
REMARK    7  A    between atoms: C_8  and  N_65
REMARK    8  A    between atoms: S_19  and  C_22
REMARK    9  A    between atoms: C_23  and  C_24
REMARK                            x       y       z     vdW  Elec       q    Type
REMARK                         _______ _______ _______ _____ _____    ______ ____
ROOT
ATOM      1  C   UNL     1       2.727  -1.817  -0.844  0.00  0.00    +0.229 C 
ATOM      2  O   UNL     1       1.796  -2.522  -0.516  0.00  0.00    -0.274 OA
ATOM      3  N   UNL     1       3.913  -2.373  -1.163  0.00  0.00    -0.315 N 
ATOM      4  H   UNL     1       4.658  -1.810  -1.426  0.00  0.00    +0.149 HD
ENDROOT
BRANCH   1   5
ATOM      5  C   UNL     1       2.558  -0.321  -0.896  0.00  0.00    +0.204 C 
BRANCH   5   7
ATOM      6  C   UNL     1       0.119   0.015  -1.508  0.00  0.00    +0.132 C 
ATOM      7  N   UNL     1       1.190   0.029  -0.509  0.00  0.00    -0.171 NA
BRANCH   7   8
ATOM      8  S   UNL     1       0.853   0.443   1.059  0.00  0.00    +0.054 S 
ATOM      9  O   UNL     1       1.866  -0.149   1.861  0.00  0.00    -0.153 OA
ATOM     10  O   UNL     1      -0.529   0.180   1.260  0.00  0.00    -0.153 OA
BRANCH   8  11
ATOM     11  C   UNL     1       1.059   2.187   1.194  0.00  0.00    +0.153 C 
ATOM     12  C   UNL     1       0.014   2.960   1.458  0.00  0.00    +0.028 C 
BRANCH  12  13
ATOM     13  C   UNL     1       0.187   4.423   1.571  0.00  0.00    -0.024 A 
ATOM     14  C   UNL     1       1.450   4.994   1.406  0.00  0.00    +0.008 A 
ATOM     15  C   UNL     1       1.603   6.362   1.508  0.00  0.00    +0.001 A 
ATOM     16  C   UNL     1       0.511   7.165   1.783  0.00  0.00    +0.000 A 
ATOM     17  C   UNL     1      -0.742   6.604   1.953  0.00  0.00    +0.001 A 
ATOM     18  C   UNL     1      -0.910   5.239   1.849  0.00  0.00    +0.008 A 
ENDBRANCH  12  13
ENDBRANCH   8  11
ENDBRANCH   7   8
ENDBRANCH   5   7
ENDBRANCH   1   5
BRANCH   3  19
ATOM     19  C   UNL     1       4.078  -3.828  -1.112  0.00  0.00    +0.092 C 
BRANCH  19  20
ATOM     20  C   UNL     1       5.531  -4.188  -1.427  0.00  0.00    -0.050 C 
ATOM     21  C   UNL     1       5.674  -5.709  -1.507  0.00  0.00    -0.010 C 
ATOM     22  C   UNL     1       5.273  -6.330  -0.167  0.00  0.00    -0.001 C 
ATOM     23  C   UNL     1       6.182  -5.790   0.938  0.00  0.00    -0.000 C 
ATOM     24  C   UNL     1       6.040  -4.269   1.018  0.00  0.00    -0.001 C 
ATOM     25  C   UNL     1       6.441  -3.648  -0.321  0.00  0.00    -0.010 C 
BRANCH  20  31
ATOM     26  C   UNL     1       5.019  -4.034  -3.788  0.00  0.00    -0.078 C 
ATOM     27  C   UNL     1       5.358  -3.283  -5.078  0.00  0.00    -0.019 C 
ATOM     28  C   UNL     1       6.815  -3.562  -5.457  0.00  0.00    -0.004 C 
ATOM     29  C   UNL     1       7.725  -3.138  -4.301  0.00  0.00    -0.019 C 
ATOM     30  C   UNL     1       7.318  -3.892  -3.033  0.00  0.00    -0.078 C 
ATOM     31  N   UNL     1       5.914  -3.562  -2.709  0.00  0.00    +0.384 N 
ATOM     32  H   UNL     1       5.823  -2.543  -2.623  0.00  0.00    -0.081 HD
ENDBRANCH  20  31
ENDBRANCH  19  20
ENDBRANCH   3  19
TORSDOF 8
