REMARK  Name = ZINC36027370
REMARK  6 active torsions:
REMARK  status: ('A' for Active; 'I' for Inactive)
REMARK    1  A    between atoms: C_4  and  C_7
REMARK    2  A    between atoms: C_7  and  C_8
REMARK    3  A    between atoms: N_12  and  C_30
REMARK    4  A    between atoms: N_17  and  S_20
REMARK    5  A    between atoms: S_20  and  C_23
REMARK    6  A    between atoms: C_30  and  C_31
REMARK                            x       y       z     vdW  Elec       q    Type
REMARK                         _______ _______ _______ _____ _____    ______ ____
ROOT
ATOM      1  C   UNL     1       3.708  -1.278   1.621  0.00  0.00    +0.023 C 
ATOM      2  C   UNL     1       5.101  -1.862   1.710  0.00  0.00    +0.201 C 
ATOM      3  O   UNL     1       6.133  -1.228   1.762  0.00  0.00    -0.277 OA
ATOM      4  N   UNL     1       5.000  -3.208   1.724  0.00  0.00    -0.311 N 
ATOM      5  C   UNL     1       3.589  -3.594   1.641  0.00  0.00    +0.006 C 
ATOM      6  N   UNL     1       2.803  -2.390   1.999  0.00  0.00    +0.401 N 
ATOM      7  C   UNL     1       3.290  -4.718   2.630  0.00  0.00    +0.023 C 
ATOM      8  C   UNL     1       4.135  -5.946   2.276  0.00  0.00    +0.109 C 
ATOM      9  N   UNL     1       3.900  -6.290   0.867  0.00  0.00    -0.177 NA
ATOM     10  C   UNL     1       4.089  -5.253  -0.156  0.00  0.00    +0.109 C 
ATOM     11  C   UNL     1       3.244  -4.031   0.219  0.00  0.00    +0.023 C 
ATOM     12  H   UNL     1       2.610  -2.372   2.989  0.00  0.00    -0.082 HD
ATOM     13  H   UNL     1       1.947  -2.350   1.466  0.00  0.00    -0.082 HD
ENDROOT
BRANCH   9  14
ATOM     14  S   UNL     1       3.431  -7.820   0.440  0.00  0.00    +0.061 S 
ATOM     15  O   UNL     1       3.821  -8.002  -0.914  0.00  0.00    -0.153 OA
ATOM     16  O   UNL     1       3.867  -8.684   1.480  0.00  0.00    -0.153 OA
BRANCH  14  17
ATOM     17  C   UNL     1       1.670  -7.851   0.465  0.00  0.00    +0.107 A 
ATOM     18  C   UNL     1       1.000  -8.186   1.628  0.00  0.00    +0.028 A 
ATOM     19  C   UNL     1      -0.381  -8.210   1.648  0.00  0.00    +0.003 A 
ATOM     20  C   UNL     1      -1.095  -7.900   0.505  0.00  0.00    +0.020 A 
ATOM     21  C   UNL     1      -0.426  -7.565  -0.658  0.00  0.00    +0.043 A 
ATOM     22  C   UNL     1       0.957  -7.535  -0.676  0.00  0.00    +0.048 A 
ATOM     23 CL   UNL     1      -1.322  -7.176  -2.093  0.00  0.00    -0.083 Cl
ENDBRANCH  14  17
ENDBRANCH   9  14
BRANCH   1  24
ATOM     24  C   UNL     1       3.415  -0.814   0.193  0.00  0.00    +0.028 C 
BRANCH  24  28
ATOM     25  C   UNL     1      -0.502   0.881   0.019  0.00  0.00    +0.000 A 
ATOM     26  C   UNL     1       0.586   1.684   0.304  0.00  0.00    +0.000 A 
ATOM     27  C   UNL     1       1.854   1.135   0.360  0.00  0.00    +0.003 A 
ATOM     28  C   UNL     1       2.033  -0.216   0.132  0.00  0.00    -0.048 A 
ATOM     29  C   UNL     1       0.944  -1.019  -0.152  0.00  0.00    +0.003 A 
ATOM     30  C   UNL     1      -0.323  -0.470  -0.210  0.00  0.00    +0.000 A 
ENDBRANCH  24  28
ENDBRANCH   1  24
BRANCH   4  31
ATOM     31  C   UNL     1       6.128  -4.139   1.808  0.00  0.00    +0.137 C 
BRANCH  31  32
ATOM     32  C   UNL     1       6.535  -4.316   3.272  0.00  0.00    +0.136 C 
ATOM     33  C   UNL     1       7.732  -5.286   3.370  0.00  0.00    +0.035 C 
ATOM     34  C   UNL     1       7.386  -6.110   4.640  0.00  0.00    +0.031 C 
ATOM     35  C   UNL     1       5.840  -6.167   4.542  0.00  0.00    +0.160 C 
ATOM     36  O   UNL     1       5.450  -4.888   4.012  0.00  0.00    -0.375 OA
ENDBRANCH  31  32
ENDBRANCH   4  31
TORSDOF 6
