REMARK  Name = ZINC20154584
REMARK  9 active torsions:
REMARK  status: ('A' for Active; 'I' for Inactive)
REMARK    1  A    between atoms: C_1  and  C_2
REMARK    2  A    between atoms: C_4  and  N_21
REMARK    3  A    between atoms: C_6  and  C_9
REMARK    4  A    between atoms: C_7  and  O_8
REMARK    5  A    between atoms: C_13  and  C_18
REMARK    6  A    between atoms: C_18  and  C_19
REMARK    7  A    between atoms: C_18  and  C_20
REMARK    8  A    between atoms: N_21  and  C_22
REMARK    9  A    between atoms: C_22  and  N_24
REMARK                            x       y       z     vdW  Elec       q    Type
REMARK                         _______ _______ _______ _____ _____    ______ ____
ROOT
ATOM      1  C   UNL     1       1.150  -5.030   0.243  0.00  0.00    +0.047 C 
ATOM      2  C   UNL     1      -0.121  -4.223   0.172  0.00  0.00    -0.007 A 
ATOM      3  C   UNL     1      -0.059  -2.844   0.123  0.00  0.00    +0.030 A 
ATOM      4  C   UNL     1      -1.227  -2.092   0.057  0.00  0.00    +0.034 A 
ATOM      5  C   UNL     1      -2.460  -2.723   0.045  0.00  0.00    +0.040 A 
ATOM      6  C   UNL     1      -2.528  -4.116   0.088  0.00  0.00    +0.080 A 
ATOM      7  C   UNL     1      -1.348  -4.867   0.155  0.00  0.00    +0.132 A 
ENDROOT
BRANCH   6   8
ATOM      8  C   UNL     1      -3.839  -4.795   0.071  0.00  0.00    +0.232 A 
ATOM      9  N   UNL     1      -4.998  -4.188   0.015  0.00  0.00    -0.209 NA
ATOM     10  C   UNL     1      -5.981  -5.125   0.013  0.00  0.00    +0.110 A 
ATOM     11  C   UNL     1      -7.376  -5.060  -0.036  0.00  0.00    +0.035 A 
ATOM     12  C   UNL     1      -8.115  -6.221  -0.017  0.00  0.00    -0.043 A 
ATOM     13  C   UNL     1      -7.484  -7.454   0.050  0.00  0.00    +0.007 A 
ATOM     14  C   UNL     1      -6.108  -7.535   0.099  0.00  0.00    +0.049 A 
ATOM     15  C   UNL     1      -5.347  -6.376   0.080  0.00  0.00    +0.156 A 
ATOM     16  O   UNL     1      -4.018  -6.129   0.115  0.00  0.00    -0.435 OA
BRANCH  12  17
ATOM     17  C   UNL     1      -9.620  -6.152  -0.069  0.00  0.00    +0.013 C 
ATOM     18  C   UNL     1     -10.122  -6.895  -1.308  0.00  0.00    +0.012 C 
ATOM     19  C   UNL     1     -10.204  -6.802   1.187  0.00  0.00    +0.012 C 
ENDBRANCH  12  17
ENDBRANCH   6   8
BRANCH   7  20
ATOM     20  O   UNL     1      -1.405  -6.223   0.203  0.00  0.00    -0.506 OA
ATOM     21  H   UNL     1      -2.380  -6.733   0.190  0.00  0.00    +0.292 HD
ENDBRANCH   7  20
BRANCH   4  22
ATOM     22  N   UNL     1      -1.156  -0.694   0.009  0.00  0.00    -0.297 N 
ATOM     23  H   UNL     1      -0.440  -0.157   0.649  0.00  0.00    +0.154 HD
BRANCH  22  24
ATOM     24  C   UNL     1      -1.965  -0.006  -0.821  0.00  0.00    +0.132 C 
ATOM     25  S   UNL     1      -2.978  -0.844  -1.917  0.00  0.00    -0.019 S 
BRANCH  24  26
ATOM     26  N   UNL     1      -1.976   1.341  -0.787  0.00  0.00    -0.340 N 
ATOM     27  H   UNL     1      -2.637   1.902  -1.465  0.00  0.00    +0.144 HD
ATOM     28  H   UNL     1      -1.326   1.880  -0.083  0.00  0.00    +0.144 HD
ENDBRANCH  24  26
ENDBRANCH  22  24
ENDBRANCH   4  22
TORSDOF 6
