REMARK  Name = ZINC41583651
REMARK  9 active torsions:
REMARK  status: ('A' for Active; 'I' for Inactive)
REMARK    1  A    between atoms: C_1  and  C_2
REMARK    2  A    between atoms: C_2  and  C_3
REMARK    3  A    between atoms: C_6  and  C_9
REMARK    4  A    between atoms: C_14  and  C_32
REMARK    5  A    between atoms: C_16  and  O_31
REMARK    6  A    between atoms: C_17  and  C_20
REMARK    7  A    between atoms: C_20  and  N_21
REMARK    8  A    between atoms: C_23  and  C_30
REMARK    9  A    between atoms: C_26  and  C_29
REMARK                            x       y       z     vdW  Elec       q    Type
REMARK                         _______ _______ _______ _____ _____    ______ ____
ROOT
ATOM      1  C   UNL     1       2.692  -1.858  -4.726  0.00  0.00    +0.058 C 
ATOM      2  C   UNL     1       4.043  -1.974  -4.736  0.00  0.00    +0.176 C 
ATOM      3  C   UNL     1       4.942  -1.770  -3.589  0.00  0.00    +0.232 C 
ATOM      4  O   UNL     1       4.639  -1.466  -2.449  0.00  0.00    -0.283 OA
ATOM      5  C   UNL     1       6.292  -2.017  -4.129  0.00  0.00    +0.071 A 
ATOM      6  C   UNL     1       7.567  -1.986  -3.562  0.00  0.00    -0.033 A 
ATOM      7  C   UNL     1       8.660  -2.267  -4.332  0.00  0.00    +0.050 A 
ATOM      8  C   UNL     1       8.505  -2.583  -5.679  0.00  0.00    +0.122 A 
ATOM      9  C   UNL     1       7.246  -2.617  -6.254  0.00  0.00    +0.020 A 
ATOM     10  C   UNL     1       6.123  -2.334  -5.486  0.00  0.00    +0.145 A 
ATOM     11  O   UNL     1       4.810  -2.305  -5.802  0.00  0.00    -0.451 OA
ATOM     12  C   UNL     1       7.737  -1.643  -2.105  0.00  0.00    +0.045 C 
ENDROOT
BRANCH   1  16
ATOM     13  C   UNL     1       0.725  -0.291  -1.313  0.00  0.00    -0.048 A 
ATOM     14  C   UNL     1       0.167  -1.354  -2.001  0.00  0.00    +0.004 A 
ATOM     15  C   UNL     1       0.800  -1.870  -3.112  0.00  0.00    +0.008 A 
ATOM     16  C   UNL     1       2.010  -1.315  -3.543  0.00  0.00    -0.021 A 
ATOM     17  C   UNL     1       2.567  -0.239  -2.842  0.00  0.00    +0.008 A 
ATOM     18  C   UNL     1       1.918   0.268  -1.736  0.00  0.00    +0.004 A 
BRANCH  13  20
ATOM     19  C   UNL     1      -0.939   1.373  -0.530  0.00  0.00    +0.009 C 
ATOM     20  C   UNL     1       0.025   0.266  -0.100  0.00  0.00    +0.032 C 
ENDBRANCH  13  20
ENDBRANCH   1  16
BRANCH   8  21
ATOM     21  O   UNL     1       9.598  -2.860  -6.434  0.00  0.00    -0.506 OA
ATOM     22  H   UNL     1       9.843  -3.795  -6.444  0.00  0.00    +0.292 HD
ENDBRANCH   8  21
BRANCH   9  23
ATOM     23  C   UNL     1       7.093  -2.961  -7.714  0.00  0.00    -0.036 C 
BRANCH  23  24
ATOM     24  N   UNL     1       6.931  -4.413  -7.860  0.00  0.00    +0.383 N 
ATOM     25  C   UNL     1       8.157  -5.088  -7.420  0.00  0.00    -0.075 C 
ATOM     26  C   UNL     1       7.964  -6.605  -7.494  0.00  0.00    -0.031 C 
ATOM     27  C   UNL     1       7.651  -7.004  -8.939  0.00  0.00    +0.003 C 
ATOM     28  C   UNL     1       6.413  -6.237  -9.413  0.00  0.00    -0.031 C 
ATOM     29  C   UNL     1       6.663  -4.735  -9.267  0.00  0.00    -0.075 C 
ATOM     30  C   UNL     1       6.136  -6.570 -10.880  0.00  0.00    +0.005 C 
ATOM     31  C   UNL     1       9.245  -7.306  -7.036  0.00  0.00    +0.005 C 
ATOM     32  H   UNL     1       6.156  -4.723  -7.293  0.00  0.00    -0.081 HD
ENDBRANCH  23  24
ENDBRANCH   9  23
TORSDOF 5
