REMARK  Name = ZINC66415371
REMARK  6 active torsions:
REMARK  status: ('A' for Active; 'I' for Inactive)
REMARK    1  A    between atoms: C_1  and  C_2
REMARK    2  A    between atoms: C_2  and  N_3
REMARK    3  A    between atoms: N_3  and  C_4
REMARK    4  A    between atoms: C_10  and  C_12
REMARK    5  A    between atoms: C_13  and  C_15
REMARK    6  A    between atoms: C_18  and  C_20
REMARK                            x       y       z     vdW  Elec       q    Type
REMARK                         _______ _______ _______ _____ _____    ______ ____
ROOT
ATOM      1  N   UNL     1       0.666  -0.625  -1.235  0.00  0.00    -0.293 N 
ATOM      2  C   UNL     1      -0.078  -0.227  -2.286  0.00  0.00    +0.266 C 
ATOM      3  O   UNL     1       0.443  -0.065  -3.373  0.00  0.00    -0.268 OA
ENDROOT
BRANCH   1   4
ATOM      4  C   UNL     1       1.918   0.068  -0.920  0.00  0.00    +0.079 C 
ATOM      5  C   UNL     1       3.042  -0.482  -1.801  0.00  0.00    +0.023 C 
ATOM      6  C   UNL     1       2.691  -0.258  -3.273  0.00  0.00    +0.002 C 
ATOM      7  C   UNL     1       2.525   1.241  -3.535  0.00  0.00    +0.000 C 
ATOM      8  C   UNL     1       1.402   1.791  -2.654  0.00  0.00    +0.005 C 
ATOM      9  C   UNL     1       1.752   1.566  -1.181  0.00  0.00    +0.006 C 
ATOM     10  C   UNL     1       0.628   2.116  -0.301  0.00  0.00    +0.009 C 
ENDBRANCH   1   4
BRANCH   2  11
ATOM     11  C   UNL     1      -1.521   0.012  -2.118  0.00  0.00    +0.133 A 
ATOM     12  C   UNL     1      -2.297   0.358  -3.192  0.00  0.00    +0.080 A 
ATOM     13  S   UNL     1      -3.825   0.516  -2.503  0.00  0.00    -0.072 S 
ATOM     14  C   UNL     1      -3.387   0.120  -0.820  0.00  0.00    +0.144 A 
ATOM     15  N   UNL     1      -2.088  -0.110  -0.925  0.00  0.00    -0.231 NA
BRANCH  14  16
ATOM     16  C   UNL     1      -4.247   0.059   0.373  0.00  0.00    +0.160 A 
ATOM     17  C   UNL     1      -5.587   0.299   0.406  0.00  0.00    +0.052 A 
ATOM     18  C   UNL     1      -5.997   0.130   1.742  0.00  0.00    +0.042 A 
ATOM     19  C   UNL     1      -4.900  -0.202   2.453  0.00  0.00    +0.196 A 
ATOM     20  O   UNL     1      -3.846  -0.249   1.623  0.00  0.00    -0.461 OA
ENDBRANCH  14  16
ENDBRANCH   2  11
BRANCH   1  22
ATOM     21  C   UNL     1      -0.465  -1.219   0.850  0.00  0.00    +0.024 C 
ATOM     22  C   UNL     1       0.224  -1.750  -0.408  0.00  0.00    +0.105 C 
ENDBRANCH   1  22
TORSDOF 4
