REMARK  Name = ZINC09881702
REMARK  8 active torsions:
REMARK  status: ('A' for Active; 'I' for Inactive)
REMARK    1  A    between atoms: N_11  and  C_12
REMARK    2  A    between atoms: C_12  and  C_13
REMARK    3  A    between atoms: C_13  and  C_14
REMARK    4  A    between atoms: C_14  and  S_15
REMARK    5  A    between atoms: S_15  and  C_16
REMARK    6  A    between atoms: C_19  and  C_28
REMARK    7  A    between atoms: N_20  and  C_21
REMARK    8  A    between atoms: C_28  and  N_60
REMARK                            x       y       z     vdW  Elec       q    Type
REMARK                         _______ _______ _______ _____ _____    ______ ____
ROOT
ATOM      1  C   UNL     1      -8.018   2.915  -2.766  0.00  0.00    +0.196 A 
ATOM      2  N   UNL     1      -8.590   2.782  -1.592  0.00  0.00    -0.122 NA
ATOM      3  N   UNL     1      -9.841   2.532  -1.740  0.00  0.00    -0.135 NA
ATOM      4  C   UNL     1     -10.141   2.480  -3.007  0.00  0.00    +0.122 A 
ATOM      5  N   UNL     1      -8.990   2.722  -3.708  0.00  0.00    -0.276 N 
ENDROOT
BRANCH   5   6
ATOM      6  C   UNL     1      -8.839   2.763  -5.103  0.00  0.00    +0.050 A 
ATOM      7  C   UNL     1      -9.483   3.746  -5.843  0.00  0.00    +0.029 A 
ATOM      8  C   UNL     1      -9.329   3.788  -7.215  0.00  0.00    +0.040 A 
ATOM      9  C   UNL     1      -8.542   2.845  -7.853  0.00  0.00    +0.124 A 
ATOM     10  C   UNL     1      -7.904   1.861  -7.118  0.00  0.00    +0.040 A 
ATOM     11  C   UNL     1      -8.051   1.818  -5.745  0.00  0.00    +0.029 A 
ATOM     12  F   UNL     1      -8.397   2.885  -9.196  0.00  0.00    -0.205 F 
ENDBRANCH   5   6
BRANCH   1  13
ATOM     13  S   UNL     1      -6.318   3.266  -3.070  0.00  0.00    -0.086 S 
BRANCH  13  14
ATOM     14  C   UNL     1      -5.711   3.378  -1.369  0.00  0.00    +0.079 C 
BRANCH  14  15
ATOM     15  C   UNL     1      -4.212   3.686  -1.381  0.00  0.00    +0.033 C 
BRANCH  15  16
ATOM     16  C   UNL     1      -3.699   3.780   0.057  0.00  0.00    +0.128 C 
BRANCH  16  27
ATOM     17  C   UNL     1       1.179   1.781   0.000  0.00  0.00    +0.002 A 
ATOM     18  C   UNL     1      -0.013   1.076   0.008  0.00  0.00    +0.002 A 
ATOM     19  C   UNL     1      -1.220   1.747   0.017  0.00  0.00    +0.028 A 
ATOM     20  C   UNL     1      -1.238   3.134   0.030  0.00  0.00    +0.070 A 
ATOM     21  C   UNL     1      -0.037   3.845   0.022  0.00  0.00    +0.067 A 
ATOM     22  C   UNL     1       1.170   3.162   0.007  0.00  0.00    +0.028 A 
ATOM     23  N   UNL     1      -0.370   5.197   0.033  0.00  0.00    -0.306 N 
ATOM     24  H   UNL     1       0.258   5.937   0.031  0.00  0.00    +0.170 HD
ATOM     25  C   UNL     1      -1.712   5.304   0.046  0.00  0.00    +0.328 A 
ATOM     26  O   UNL     1      -2.332   6.351   0.057  0.00  0.00    -0.247 OA
ATOM     27  N   UNL     1      -2.264   4.076   0.045  0.00  0.00    -0.292 N 
ENDBRANCH  16  27
ENDBRANCH  15  16
ENDBRANCH  14  15
ENDBRANCH  13  14
ENDBRANCH   1  13
BRANCH   4  28
ATOM     28  C   UNL     1     -11.502   2.204  -3.593  0.00  0.00    -0.001 C 
BRANCH  28  34
ATOM     29  C   UNL     1     -10.734   0.260  -4.812  0.00  0.00    -0.078 C 
ATOM     30  C   UNL     1     -10.829  -1.266  -4.890  0.00  0.00    -0.019 C 
ATOM     31  C   UNL     1     -12.264  -1.665  -5.245  0.00  0.00    -0.004 C 
ATOM     32  C   UNL     1     -13.219  -1.093  -4.194  0.00  0.00    -0.019 C 
ATOM     33  C   UNL     1     -13.055   0.428  -4.136  0.00  0.00    -0.078 C 
ATOM     34  N   UNL     1     -11.659   0.745  -3.767  0.00  0.00    +0.384 N 
ATOM     35  H   UNL     1     -11.434   0.278  -2.880  0.00  0.00    -0.081 HD
ENDBRANCH  28  34
ENDBRANCH   4  28
TORSDOF 8
