REMARK  Name = ZINC39756486
REMARK  15 active torsions:
REMARK  status: ('A' for Active; 'I' for Inactive)
REMARK    1  A    between atoms: C_1  and  C_2
REMARK    2  A    between atoms: C_2  and  N_3
REMARK    3  A    between atoms: N_3  and  C_4
REMARK    4  A    between atoms: N_3  and  C_6
REMARK    5  A    between atoms: C_4  and  C_5
REMARK    6  A    between atoms: C_6  and  C_7
REMARK    7  A    between atoms: C_12  and  C_16
REMARK    8  A    between atoms: C_13  and  C_15
REMARK    9  A    between atoms: N_19  and  C_20
REMARK   10  A    between atoms: C_20  and  C_21
REMARK   11  A    between atoms: C_21  and  C_23
REMARK   12  A    between atoms: C_24  and  C_33
REMARK   13  A    between atoms: C_25  and  C_30
REMARK   14  A    between atoms: C_26  and  C_29
REMARK   15  A    between atoms: C_30  and  C_32
REMARK                            x       y       z     vdW  Elec       q    Type
REMARK                         _______ _______ _______ _____ _____    ______ ____
ROOT
ATOM      1  C   UNL     1       1.690  -1.822   0.199  0.00  0.00    +0.145 C 
ATOM      2  N   UNL     1       1.150  -1.418  -1.111  0.00  0.00    -0.321 N 
ATOM      3  C   UNL     1       1.179  -0.076  -1.406  0.00  0.00    +0.079 A 
ATOM      4  C   UNL     1       2.087   0.808  -0.805  0.00  0.00    +0.068 A 
ATOM      5  C   UNL     1       1.980   2.182  -1.243  0.00  0.00    -0.027 A 
ATOM      6  C   UNL     1       1.029   2.444  -2.159  0.00  0.00    -0.008 A 
ATOM      7  S   UNL     1       0.275   0.854  -2.439  0.00  0.00    -0.078 S 
ATOM      8  C   UNL     1       0.685   3.766  -2.796  0.00  0.00    +0.052 C 
ATOM      9  C   UNL     1       2.884   3.261  -0.703  0.00  0.00    +0.045 C 
ATOM     10  C   UNL     1       3.031   0.256   0.193  0.00  0.00    +0.251 C 
ATOM     11  O   UNL     1       3.920   0.938   0.670  0.00  0.00    -0.270 OA
ATOM     12  N   UNL     1       2.866  -1.033   0.552  0.00  0.00    -0.273 N 
ATOM     13  H   UNL     1       0.791  -2.068  -1.735  0.00  0.00    +0.148 HD
ENDROOT
BRANCH   1  14
ATOM     14  C   UNL     1       0.614  -1.622   1.268  0.00  0.00    -0.036 C 
BRANCH  14  15
ATOM     15  N   UNL     1      -0.536  -2.487   0.972  0.00  0.00    +0.382 N 
ATOM     16  H   UNL     1      -0.859  -2.308   0.033  0.00  0.00    -0.082 HD
BRANCH  15  18
ATOM     17  C   UNL     1       0.382  -4.159   2.508  0.00  0.00    -0.017 C 
ATOM     18  C   UNL     1      -0.134  -3.895   1.092  0.00  0.00    -0.082 C 
ENDBRANCH  15  18
BRANCH  15  19
ATOM     19  C   UNL     1      -1.619  -2.205   1.924  0.00  0.00    -0.082 C 
ATOM     20  C   UNL     1      -2.862  -3.007   1.534  0.00  0.00    -0.017 C 
ENDBRANCH  15  19
ENDBRANCH  14  15
ENDBRANCH   1  14
BRANCH  12  21
ATOM     21  C   UNL     1       3.923  -1.674   1.338  0.00  0.00    +0.191 C 
BRANCH  21  22
ATOM     22  C   UNL     1       4.925  -2.310   0.409  0.00  0.00    +0.197 C 
ATOM     23  O   UNL     1       4.770  -2.235  -0.793  0.00  0.00    -0.289 OA
BRANCH  22  24
ATOM     24  C   UNL     1       6.045  -2.995   0.937  0.00  0.00    +0.088 A 
ATOM     25  C   UNL     1       7.034  -3.614   0.205  0.00  0.00    -0.012 A 
ATOM     26  C   UNL     1       7.946  -4.165   1.133  0.00  0.00    +0.041 A 
ATOM     27  C   UNL     1       7.473  -3.859   2.401  0.00  0.00    +0.024 A 
ATOM     28  N   UNL     1       6.340  -3.154   2.277  0.00  0.00    -0.355 N 
ATOM     29  H   UNL     1       5.809  -2.812   3.013  0.00  0.00    +0.166 HD
ATOM     30  C   UNL     1       8.128  -4.248   3.701  0.00  0.00    +0.064 C 
ATOM     31  C   UNL     1       7.126  -3.688  -1.298  0.00  0.00    +0.047 C 
BRANCH  26  32
ATOM     32  C   UNL     1       9.163  -4.920   0.816  0.00  0.00    +0.162 C 
ATOM     33  O   UNL     1       9.100  -6.114   0.610  0.00  0.00    -0.292 OA
ATOM     34  C   UNL     1      10.492  -4.212   0.746  0.00  0.00    +0.091 C 
ENDBRANCH  26  32
ENDBRANCH  22  24
ENDBRANCH  21  22
ENDBRANCH  12  21
TORSDOF 8
