REMARK  Name = ZINC13576880
REMARK  11 active torsions:
REMARK  status: ('A' for Active; 'I' for Inactive)
REMARK    1  A    between atoms: C_1  and  C_2
REMARK    2  A    between atoms: C_2  and  C_3
REMARK    3  A    between atoms: C_2  and  C_4
REMARK    4  A    between atoms: C_4  and  C_5
REMARK    5  A    between atoms: C_5  and  C_7
REMARK    6  A    between atoms: C_5  and  N_18
REMARK    7  A    between atoms: N_9  and  C_10
REMARK    8  A    between atoms: C_10  and  C_11
REMARK    9  A    between atoms: C_19  and  C_21
REMARK   10  A    between atoms: C_23  and  C_36
REMARK   11  A    between atoms: C_23  and  C_37
REMARK                            x       y       z     vdW  Elec       q    Type
REMARK                         _______ _______ _______ _____ _____    ______ ____
ROOT
ATOM      1  N   UNL     1      -2.533   4.093   0.594  0.00  0.00    -0.302 N 
ATOM      2  C   UNL     1      -3.081   5.295   0.325  0.00  0.00    +0.236 C 
ATOM      3  O   UNL     1      -2.428   6.146  -0.240  0.00  0.00    -0.274 OA
ATOM      4  H   UNL     1      -3.078   3.385   0.972  0.00  0.00    +0.150 HD
ENDROOT
BRANCH   2   5
ATOM      5  C   UNL     1      -4.505   5.580   0.727  0.00  0.00    +0.179 C 
ATOM      6  C   UNL     1      -5.448   5.066  -0.387  0.00  0.00    +0.040 C 
ATOM      7  S   UNL     1      -6.501   6.551  -0.695  0.00  0.00    -0.125 S 
ATOM      8  C   UNL     1      -6.059   7.458   0.847  0.00  0.00    +0.167 C 
ATOM      9  N   UNL     1      -4.641   7.015   0.985  0.00  0.00    -0.269 N 
ATOM     10  C   UNL     1      -3.932   8.123   1.292  0.00  0.00    +0.249 C 
ATOM     11  O   UNL     1      -2.837   8.130   1.820  0.00  0.00    -0.270 OA
ATOM     12  C   UNL     1      -4.687   9.325   0.888  0.00  0.00    +0.043 A 
ATOM     13  C   UNL     1      -5.996   8.935   0.588  0.00  0.00    -0.005 A 
ATOM     14  C   UNL     1      -6.912   9.864   0.154  0.00  0.00    +0.007 A 
ATOM     15  C   UNL     1      -6.544  11.193   0.026  0.00  0.00    +0.000 A 
ATOM     16  C   UNL     1      -5.255  11.591   0.334  0.00  0.00    +0.001 A 
ATOM     17  C   UNL     1      -4.326  10.666   0.763  0.00  0.00    +0.013 A 
ATOM     18  C   UNL     1      -4.658   4.684  -1.640  0.00  0.00    +0.025 C 
ATOM     19  C   UNL     1      -6.290   3.889   0.108  0.00  0.00    +0.025 C 
ENDBRANCH   2   5
BRANCH   1  20
ATOM     20  C   UNL     1      -1.114   3.857   0.316  0.00  0.00    +0.159 C 
BRANCH  20  21
ATOM     21  C   UNL     1      -0.878   2.380   0.130  0.00  0.00    +0.234 C 
ATOM     22  O   UNL     1      -1.742   1.585   0.434  0.00  0.00    -0.274 OA
ATOM     23  N   UNL     1       0.292   1.943  -0.374  0.00  0.00    -0.310 N 
ATOM     24  H   UNL     1       0.964   2.580  -0.664  0.00  0.00    +0.149 HD
BRANCH  23  25
ATOM     25  C   UNL     1       0.549   0.505  -0.490  0.00  0.00    +0.139 C 
BRANCH  25  26
ATOM     26  C   UNL     1       1.916   0.285  -1.085  0.00  0.00    -0.030 A 
ATOM     27  C   UNL     1       2.064   0.182  -2.456  0.00  0.00    +0.006 A 
ATOM     28  C   UNL     1       3.318  -0.015  -3.002  0.00  0.00    +0.020 A 
ATOM     29  C   UNL     1       4.424  -0.118  -2.177  0.00  0.00    +0.041 A 
ATOM     30  C   UNL     1       4.274  -0.021  -0.805  0.00  0.00    +0.020 A 
ATOM     31  C   UNL     1       3.020   0.181  -0.260  0.00  0.00    +0.006 A 
ATOM     32 CL   UNL     1       5.999  -0.371  -2.863  0.00  0.00    -0.084 Cl
ENDBRANCH  25  26
ENDBRANCH  23  25
ENDBRANCH  20  21
BRANCH  20  33
ATOM     33  C   UNL     1      -0.273   4.364   1.490  0.00  0.00    +0.034 C 
BRANCH  33  35
ATOM     34  C   UNL     1       1.621   5.029   0.002  0.00  0.00    +0.007 C 
ATOM     35  C   UNL     1       1.210   4.148   1.184  0.00  0.00    -0.015 C 
ATOM     36  C   UNL     1       2.043   4.522   2.412  0.00  0.00    +0.007 C 
ENDBRANCH  33  35
ENDBRANCH  20  33
ENDBRANCH   1  20
TORSDOF 7
