REMARK  Name = ZINC06215588
REMARK  6 active torsions:
REMARK  status: ('A' for Active; 'I' for Inactive)
REMARK    1  A    between atoms: C_1  and  C_2
REMARK    2  A    between atoms: C_5  and  N_9
REMARK    3  A    between atoms: C_7  and  C_8
REMARK    4  A    between atoms: C_13  and  C_14
REMARK    5  A    between atoms: C_17  and  C_19
REMARK    6  A    between atoms: C_22  and  C_25
REMARK                            x       y       z     vdW  Elec       q    Type
REMARK                         _______ _______ _______ _____ _____    ______ ____
ROOT
ATOM      1  N   UNL     1      -0.811   7.255   0.048  0.00  0.00    -0.184 N 
ATOM      2  C   UNL     1      -0.673   5.915   0.039  0.00  0.00    +0.272 C 
ATOM      3  O   UNL     1      -1.572   5.094   0.043  0.00  0.00    -0.268 OA
ATOM      4  C   UNL     1       0.772   5.633   0.023  0.00  0.00    +0.105 C 
ATOM      5  C   UNL     1       1.389   4.390   0.011  0.00  0.00    +0.064 C 
ATOM      6  C   UNL     1       1.422   6.955   0.030  0.00  0.00    +0.266 C 
ATOM      7  O   UNL     1       2.619   7.175   0.026  0.00  0.00    -0.268 OA
ATOM      8  N   UNL     1       0.438   7.875   0.039  0.00  0.00    -0.223 N 
ATOM      9  H   UNL     1       0.579   8.835   0.043  0.00  0.00    +0.174 HD
ENDROOT
BRANCH   1  14
ATOM     10  C   UNL     1      -5.779   9.993   0.110  0.00  0.00    +0.044 C 
ATOM     11  C   UNL     1      -4.459   9.265   0.093  0.00  0.00    -0.047 A 
ATOM     12  C   UNL     1      -4.433   7.882   0.085  0.00  0.00    +0.005 A 
ATOM     13  C   UNL     1      -3.226   7.213   0.069  0.00  0.00    +0.025 A 
ATOM     14  C   UNL     1      -2.036   7.930   0.062  0.00  0.00    +0.057 A 
ATOM     15  C   UNL     1      -2.065   9.318   0.076  0.00  0.00    +0.028 A 
ATOM     16  C   UNL     1      -3.276   9.982   0.087  0.00  0.00    -0.046 A 
ATOM     17  C   UNL     1      -3.309  11.488   0.097  0.00  0.00    +0.044 C 
ENDBRANCH   1  14
BRANCH   5  18
ATOM     18  C   UNL     1       0.611   3.220   0.013  0.00  0.00    +0.129 A 
ATOM     19  C   UNL     1       1.097   1.920   0.002  0.00  0.00    +0.050 A 
ATOM     20  C   UNL     1      -0.013   1.076   0.008  0.00  0.00    +0.050 A 
ATOM     21  C   UNL     1      -1.133   1.881   0.017  0.00  0.00    +0.136 A 
ATOM     22  O   UNL     1      -0.738   3.166   0.025  0.00  0.00    -0.455 OA
BRANCH  21  23
ATOM     23  C   UNL     1      -2.531   1.411   0.020  0.00  0.00    +0.017 A 
ATOM     24  C   UNL     1      -2.807   0.040   0.007  0.00  0.00    +0.012 A 
ATOM     25  C   UNL     1      -4.107  -0.397   0.016  0.00  0.00    +0.016 A 
ATOM     26  C   UNL     1      -5.155   0.528   0.025  0.00  0.00    +0.063 A 
ATOM     27  C   UNL     1      -4.879   1.898   0.032  0.00  0.00    +0.016 A 
ATOM     28  C   UNL     1      -3.580   2.336   0.029  0.00  0.00    +0.012 A 
BRANCH  26  29
ATOM     29  C   UNL     1      -6.555   0.057   0.028  0.00  0.00    +0.387 C 
ATOM     30  O   UNL     1      -7.466   0.860   0.036  0.00  0.00    -0.241 OA
ATOM     31  O   UNL     1      -6.821  -1.264   0.022  0.00  0.00    -0.241 OA
ENDBRANCH  26  29
ENDBRANCH  21  23
ENDBRANCH   5  18
TORSDOF 4
