REMARK  Name = ZINC23352590
REMARK  8 active torsions:
REMARK  status: ('A' for Active; 'I' for Inactive)
REMARK    1  A    between atoms: C_1  and  N_2
REMARK    2  A    between atoms: N_2  and  C_3
REMARK    3  A    between atoms: N_2  and  C_28
REMARK    4  A    between atoms: C_3  and  C_4
REMARK    5  A    between atoms: C_9  and  N_10
REMARK    6  A    between atoms: C_11  and  C_13
REMARK    7  A    between atoms: N_16  and  S_19
REMARK    8  A    between atoms: S_19  and  C_22
REMARK                            x       y       z     vdW  Elec       q    Type
REMARK                         _______ _______ _______ _____ _____    ______ ____
ROOT
ATOM      1  N   UNL     1       1.500  -2.656  -2.184  0.00  0.00    -0.285 N 
ATOM      2  C   UNL     1       0.444  -1.988  -1.679  0.00  0.00    +0.220 C 
ATOM      3  O   UNL     1      -0.516  -2.599  -1.258  0.00  0.00    -0.275 OA
ATOM      4  H   UNL     1       2.329  -2.102  -2.649  0.00  0.00    +0.155 HD
ENDROOT
BRANCH   1  10
ATOM      5  C   UNL     1       2.293  -4.771  -3.038  0.00  0.00    -0.043 A 
ATOM      6  C   UNL     1       2.337  -6.150  -2.967  0.00  0.00    +0.003 A 
ATOM      7  C   UNL     1       1.622  -6.815  -1.988  0.00  0.00    +0.000 A 
ATOM      8  C   UNL     1       0.867  -6.103  -1.073  0.00  0.00    +0.002 A 
ATOM      9  C   UNL     1       0.825  -4.724  -1.136  0.00  0.00    +0.023 A 
ATOM     10  C   UNL     1       1.541  -4.053  -2.118  0.00  0.00    +0.035 A 
BRANCH   5  11
ATOM     11  C   UNL     1       3.067  -4.046  -4.109  0.00  0.00    -0.041 C 
BRANCH  11  13
ATOM     12  C   UNL     1       5.213  -4.628  -3.150  0.00  0.00    -0.095 C 
ATOM     13  N   UNL     1       4.320  -3.529  -3.543  0.00  0.00    +0.382 N 
ATOM     14  H   UNL     1       4.071  -2.955  -2.639  0.00  0.00    -0.081 HD
BRANCH  13  15
ATOM     15  C   UNL     1       4.987  -2.620  -4.485  0.00  0.00    -0.069 C 
ATOM     16  C   UNL     1       5.418  -3.401  -5.729  0.00  0.00    -0.015 C 
ATOM     17  C   UNL     1       6.113  -2.454  -6.709  0.00  0.00    -0.002 C 
ATOM     18  C   UNL     1       7.345  -1.841  -6.040  0.00  0.00    -0.000 C 
ATOM     19  C   UNL     1       6.914  -1.060  -4.796  0.00  0.00    -0.002 C 
ATOM     20  C   UNL     1       6.219  -2.007  -3.816  0.00  0.00    -0.015 C 
ENDBRANCH  13  15
ENDBRANCH  11  13
ENDBRANCH   5  11
ENDBRANCH   1  10
BRANCH   2  21
ATOM     21  C   UNL     1       0.454  -0.481  -1.637  0.00  0.00    +0.078 C 
ATOM     22  C   UNL     1      -0.854   0.021  -1.022  0.00  0.00    +0.030 C 
ATOM     23  C   UNL     1      -0.854   1.553  -1.012  0.00  0.00    +0.110 C 
ATOM     24  N   UNL     1       0.356   2.022  -0.324  0.00  0.00    -0.177 NA
ATOM     25  C   UNL     1       1.664   1.528  -0.778  0.00  0.00    +0.110 C 
ATOM     26  C   UNL     1       1.635  -0.004  -0.790  0.00  0.00    +0.030 C 
BRANCH  24  27
ATOM     27  S   UNL     1       0.249   3.085   0.941  0.00  0.00    +0.061 S 
ATOM     28  O   UNL     1       1.499   3.756   1.014  0.00  0.00    -0.153 OA
ATOM     29  O   UNL     1      -0.981   3.780   0.784  0.00  0.00    -0.153 OA
BRANCH  27  30
ATOM     30  C   UNL     1       0.103   2.130   2.414  0.00  0.00    +0.105 A 
ATOM     31  C   UNL     1      -1.147   1.772   2.885  0.00  0.00    +0.028 A 
ATOM     32  C   UNL     1      -1.262   1.018   4.038  0.00  0.00    +0.002 A 
ATOM     33  C   UNL     1      -0.127   0.632   4.726  0.00  0.00    +0.000 A 
ATOM     34  C   UNL     1       1.122   0.995   4.260  0.00  0.00    +0.002 A 
ATOM     35  C   UNL     1       1.237   1.744   3.103  0.00  0.00    +0.028 A 
ENDBRANCH  27  30
ENDBRANCH  24  27
ENDBRANCH   2  21
TORSDOF 7
