REMARK  Name = ZINC05272375
REMARK  9 active torsions:
REMARK  status: ('A' for Active; 'I' for Inactive)
REMARK    1  A    between atoms: C_1  and  C_2
REMARK    2  A    between atoms: C_6  and  O_26
REMARK    3  A    between atoms: C_12  and  C_13
REMARK    4  A    between atoms: C_13  and  C_14
REMARK    5  A    between atoms: N_16  and  C_17
REMARK    6  A    between atoms: C_19  and  C_24
REMARK    7  A    between atoms: C_19  and  C_25
REMARK    8  A    between atoms: C_20  and  C_22
REMARK    9  A    between atoms: C_20  and  C_23
REMARK                            x       y       z     vdW  Elec       q    Type
REMARK                         _______ _______ _______ _____ _____    ______ ____
ROOT
ATOM      1  C   UNL     1       0.113   5.703  -2.353  0.00  0.00    +0.218 C 
ATOM      2  O   UNL     1      -0.129   5.078  -3.364  0.00  0.00    -0.275 OA
ATOM      3  N   UNL     1       0.389   5.051  -1.207  0.00  0.00    -0.312 N 
ATOM      4  H   UNL     1       0.582   5.550  -0.398  0.00  0.00    +0.149 HD
ENDROOT
BRANCH   3   5
ATOM      5  C   UNL     1       0.396   3.583  -1.181  0.00  0.00    +0.070 C 
ATOM      6  C   UNL     1       1.298   3.104  -0.042  0.00  0.00    +0.009 C 
ATOM      7  C   UNL     1       1.320   1.577  -0.002  0.00  0.00    -0.072 C 
ATOM      8  C   UNL     1      -1.042   1.551  -0.852  0.00  0.00    -0.072 C 
ATOM      9  C   UNL     1      -1.022   3.076  -0.918  0.00  0.00    +0.009 C 
ATOM     10  C   UNL     1      -0.944   0.975  -2.269  0.00  0.00    -0.010 C 
ATOM     11  C   UNL     1      -2.415   1.129  -0.282  0.00  0.00    -0.010 C 
ATOM     12  C   UNL     1       2.035   1.156   1.301  0.00  0.00    -0.010 C 
ATOM     13  C   UNL     1       2.151   1.041  -1.172  0.00  0.00    -0.010 C 
ATOM     14  N   UNL     1      -0.027   0.947   0.053  0.00  0.00    +0.386 N 
ATOM     15  H   UNL     1      -0.375   1.022   1.016  0.00  0.00    -0.084 HD
ATOM     16  H   UNL     1       0.074  -0.044  -0.199  0.00  0.00    -0.084 HD
ENDBRANCH   3   5
BRANCH   1  17
ATOM     17  C   UNL     1       0.105   7.210  -2.379  0.00  0.00    +0.138 C 
BRANCH  17  29
ATOM     18  C   UNL     1      -2.642   7.669  -3.141  0.00  0.00    +0.045 C 
ATOM     19  C   UNL     1      -1.523   7.901  -4.123  0.00  0.00    -0.029 A 
ATOM     20  C   UNL     1      -1.800   8.364  -5.484  0.00  0.00    +0.021 A 
ATOM     21  C   UNL     1      -3.112   8.604  -5.910  0.00  0.00    +0.015 A 
ATOM     22  C   UNL     1      -3.342   9.035  -7.185  0.00  0.00    +0.046 A 
ATOM     23  C   UNL     1      -2.280   9.239  -8.064  0.00  0.00    +0.120 A 
ATOM     24  C   UNL     1      -0.976   9.007  -7.659  0.00  0.00    +0.092 A 
ATOM     25  C   UNL     1      -0.724   8.568  -6.367  0.00  0.00    +0.143 A 
ATOM     26  O   UNL     1       0.540   8.337  -5.952  0.00  0.00    -0.422 OA
ATOM     27  C   UNL     1       0.801   7.917  -4.704  0.00  0.00    +0.341 A 
ATOM     28  O   UNL     1       1.957   7.726  -4.372  0.00  0.00    -0.245 OA
ATOM     29  C   UNL     1      -0.229   7.687  -3.769  0.00  0.00    +0.049 A 
BRANCH  23  30
ATOM     30  O   UNL     1      -2.526   9.667  -9.328  0.00  0.00    -0.507 OA
ATOM     31  H   UNL     1      -2.662   8.953  -9.966  0.00  0.00    +0.292 HD
ENDBRANCH  23  30
ENDBRANCH  17  29
ENDBRANCH   1  17
TORSDOF 4
