REMARK  Name = ZINC63823845
REMARK  9 active torsions:
REMARK  status: ('A' for Active; 'I' for Inactive)
REMARK    1  A    between atoms: C_6  and  C_11
REMARK    2  A    between atoms: C_11  and  C_12
REMARK    3  A    between atoms: C_12  and  N_13
REMARK    4  A    between atoms: C_14  and  C_16
REMARK    5  A    between atoms: C_16  and  C_17
REMARK    6  A    between atoms: C_17  and  C_18
REMARK    7  A    between atoms: C_18  and  C_19
REMARK    8  A    between atoms: C_19  and  C_20
REMARK    9  A    between atoms: C_20  and  N_21
REMARK                            x       y       z     vdW  Elec       q    Type
REMARK                         _______ _______ _______ _____ _____    ______ ____
ROOT
ATOM      1  N   UNL     1       5.000  -3.595  -1.503  0.00  0.00    -0.315 N 
ATOM      2  C   UNL     1       5.312  -4.189  -2.672  0.00  0.00    +0.213 C 
ATOM      3  O   UNL     1       5.184  -3.581  -3.714  0.00  0.00    -0.276 OA
ATOM      4  H   UNL     1       5.102  -4.081  -0.670  0.00  0.00    +0.149 HD
ENDROOT
BRANCH   1   5
ATOM      5  C   UNL     1       4.508  -2.215  -1.491  0.00  0.00    +0.108 C 
BRANCH   5   6
ATOM      6  C   UNL     1       4.231  -1.785  -0.049  0.00  0.00    +0.052 C 
BRANCH   6  12
ATOM      7  C   UNL     1      -0.017   1.399   0.010  0.00  0.00    +0.022 A 
ATOM      8  C   UNL     1       1.109   2.143   0.003  0.00  0.00    +0.027 A 
ATOM      9  C   UNL     1       2.385   1.516  -0.013  0.00  0.00    +0.043 A 
ATOM     10  N   UNL     1       3.600   2.009  -0.022  0.00  0.00    -0.380 N 
ATOM     11  C   UNL     1       4.557   0.897  -0.038  0.00  0.00    +0.144 C 
ATOM     12  C   UNL     1       3.724  -0.366  -0.036  0.00  0.00    -0.040 C 
ATOM     13  C   UNL     1       2.433   0.036  -0.021  0.00  0.00    +0.000 A 
ATOM     14  C   UNL     1       1.163  -0.699  -0.013  0.00  0.00    +0.030 A 
ATOM     15  C   UNL     1       0.002  -0.004   0.002  0.00  0.00    +0.042 A 
ATOM     16 CL   UNL     1      -1.502  -0.870   0.012  0.00  0.00    -0.084 Cl
ATOM     17  H   UNL     1       3.828   2.952  -0.020  0.00  0.00    +0.160 HD
ENDBRANCH   6  12
ENDBRANCH   5   6
ENDBRANCH   1   5
BRANCH   2  18
ATOM     18  C   UNL     1       5.819  -5.608  -2.685  0.00  0.00    +0.096 C 
BRANCH  18  19
ATOM     19  C   UNL     1       6.095  -6.038  -4.127  0.00  0.00    +0.009 C 
BRANCH  19  20
ATOM     20  C   UNL     1       6.609  -7.479  -4.140  0.00  0.00    +0.002 C 
BRANCH  20  21
ATOM     21  C   UNL     1       6.886  -7.909  -5.582  0.00  0.00    +0.019 C 
BRANCH  21  22
ATOM     22  C   UNL     1       7.400  -9.350  -5.595  0.00  0.00    +0.118 C 
BRANCH  22  23
ATOM     23  N   UNL     1       7.665  -9.762  -6.975  0.00  0.00    -0.224 N 
ATOM     24  C   UNL     1       6.683 -10.336  -7.699  0.00  0.00    +0.236 C 
ATOM     25  O   UNL     1       5.634 -10.637  -7.171  0.00  0.00    -0.274 OA
ATOM     26  C   UNL     1       6.895 -10.600  -9.159  0.00  0.00    +0.144 C 
ATOM     27  C   UNL     1       6.211 -11.851  -9.615  0.00  0.00    -0.008 C 
ATOM     28  C   UNL     1       6.751 -12.628 -10.555  0.00  0.00    -0.003 C 
ATOM     29  C   UNL     1       8.003 -12.322 -11.138  0.00  0.00    +0.001 C 
ATOM     30  C   UNL     1       8.802 -11.361 -10.604  0.00  0.00    +0.022 C 
ATOM     31  C   UNL     1       8.361 -10.661  -9.477  0.00  0.00    +0.051 C 
ATOM     32  N   UNL     1       9.239 -10.095  -8.680  0.00  0.00    -0.166 NA
ATOM     33  C   UNL     1       8.881  -9.557  -7.508  0.00  0.00    +0.332 C 
ATOM     34  O   UNL     1       9.682  -8.868  -6.904  0.00  0.00    -0.250 OA
ENDBRANCH  22  23
ENDBRANCH  21  22
ENDBRANCH  20  21
ENDBRANCH  19  20
ENDBRANCH  18  19
ENDBRANCH   2  18
TORSDOF 9
