REMARK  Name = ZINC20901892
REMARK  3 active torsions:
REMARK  status: ('A' for Active; 'I' for Inactive)
REMARK    1  A    between atoms: C_4  and  C_7
REMARK    2  A    between atoms: C_7  and  C_8
REMARK    3  A    between atoms: C_14  and  C_16
REMARK                            x       y       z     vdW  Elec       q    Type
REMARK                         _______ _______ _______ _____ _____    ______ ____
ROOT
ATOM      1  C   UNL     1       7.937   7.778   1.589  0.00  0.00    -0.004 C 
ATOM      2  C   UNL     1       6.824   8.745   2.000  0.00  0.00    +0.023 C 
ATOM      3  C   UNL     1       5.798   8.848   0.867  0.00  0.00    +0.108 C 
ATOM      4  N   UNL     1       5.329   7.497   0.529  0.00  0.00    -0.296 N 
ATOM      5  C   UNL     1       6.324   6.463   0.212  0.00  0.00    +0.108 C 
ATOM      6  C   UNL     1       7.343   6.388   1.347  0.00  0.00    +0.023 C 
ATOM      7  C   UNL     1       4.012   7.210   0.516  0.00  0.00    +0.269 C 
ATOM      8  O   UNL     1       3.197   8.092   0.699  0.00  0.00    -0.268 OA
ENDROOT
BRANCH   7   9
ATOM      9  C   UNL     1       3.559   5.818   0.280  0.00  0.00    +0.175 A 
ATOM     10  C   UNL     1       2.249   5.338   0.346  0.00  0.00    +0.069 A 
ATOM     11  C   UNL     1       2.364   3.995   0.044  0.00  0.00    +0.178 A 
ATOM     12  O   UNL     1       3.650   3.765  -0.167  0.00  0.00    -0.353 OA
ATOM     13  N   UNL     1       4.310   4.781  -0.036  0.00  0.00    -0.073 NA
ATOM     14  C   UNL     1       1.148   3.166   0.018  0.00  0.00    +0.062 A 
ATOM     15  C   UNL     1       1.180   1.780   0.001  0.00  0.00    +0.015 A 
ATOM     16  C   UNL     1      -0.006   1.070   0.019  0.00  0.00    +0.001 A 
ATOM     17  C   UNL     1      -1.216   1.743   0.050  0.00  0.00    +0.004 A 
ATOM     18  C   UNL     1      -1.256   3.124   0.065  0.00  0.00    +0.046 A 
ATOM     19  C   UNL     1      -0.080   3.856   0.039  0.00  0.00    +0.132 A 
ATOM     20  O   UNL     1      -0.113   5.210   0.023  0.00  0.00    -0.486 OA
ATOM     21  C   UNL     1       0.925   5.968   0.653  0.00  0.00    +0.270 C 
ENDBRANCH   7   9
BRANCH   1  22
ATOM     22  C   UNL     1       8.981   7.699   2.705  0.00  0.00    +0.038 C 
BRANCH  22  26
ATOM     23  C   UNL     1      12.256   5.276   1.422  0.00  0.00    +0.000 A 
ATOM     24  C   UNL     1      12.271   6.638   1.187  0.00  0.00    +0.000 A 
ATOM     25  C   UNL     1      11.211   7.422   1.603  0.00  0.00    +0.003 A 
ATOM     26  C   UNL     1      10.136   6.844   2.252  0.00  0.00    -0.047 A 
ATOM     27  C   UNL     1      10.123   5.483   2.491  0.00  0.00    +0.003 A 
ATOM     28  C   UNL     1      11.181   4.698   2.071  0.00  0.00    +0.000 A 
ENDBRANCH  22  26
ENDBRANCH   1  22
TORSDOF 3
