REMARK  Name = ZINC39336656
REMARK  5 active torsions:
REMARK  status: ('A' for Active; 'I' for Inactive)
REMARK    1  A    between atoms: C_1  and  C_2
REMARK    2  A    between atoms: C_4  and  S_9
REMARK    3  A    between atoms: C_5  and  C_8
REMARK    4  A    between atoms: S_9  and  N_12
REMARK    5  A    between atoms: N_12  and  C_13
REMARK                            x       y       z     vdW  Elec       q    Type
REMARK                         _______ _______ _______ _____ _____    ______ ____
ROOT
ATOM      1  S   UNL     1       0.728   0.003  -2.735  0.00  0.00    +0.073 S 
ATOM      2  O   UNL     1       1.564  -0.934  -3.401  0.00  0.00    -0.150 OA
ATOM      3  O   UNL     1      -0.682   0.024  -2.909  0.00  0.00    -0.150 OA
ENDROOT
BRANCH   1   6
ATOM      4  C   UNL     1       0.775   2.089  -0.043  0.00  0.00    +0.047 C 
ATOM      5  C   UNL     1       0.396   0.613   0.102  0.00  0.00    +0.197 C 
ATOM      6  C   UNL     1       1.020  -0.199  -1.009  0.00  0.00    +0.137 C 
ATOM      7  C   UNL     1       1.822  -1.085  -0.456  0.00  0.00    +0.061 C 
ATOM      8  N   UNL     1       1.817  -0.970   0.923  0.00  0.00    -0.268 N 
ATOM      9  O   UNL     1       0.942   0.075   1.316  0.00  0.00    -0.265 OA
ATOM     10  C   UNL     1       2.637  -2.094  -1.223  0.00  0.00    +0.067 C 
ATOM     11  H   UNL     1       2.334  -1.522   1.530  0.00  0.00    +0.194 HD
ENDBRANCH   1   6
BRANCH   1  12
ATOM     12  N   UNL     1       1.279   1.508  -3.152  0.00  0.00    -0.216 N 
ATOM     13  H   UNL     1       0.659   2.177  -3.482  0.00  0.00    +0.174 HD
BRANCH  12  14
ATOM     14  C   UNL     1       2.621   1.811  -3.030  0.00  0.00    +0.048 C 
ATOM     15  C   UNL     1       3.522   0.832  -2.640  0.00  0.00    +0.030 C 
ATOM     16  C   UNL     1       4.821   1.258  -2.369  0.00  0.00    -0.016 C 
ATOM     17  C   UNL     1       6.008   0.611  -2.318  0.00  0.00    +0.025 C 
ATOM     18  C   UNL     1       7.053   1.554  -2.361  0.00  0.00    +0.106 C 
ATOM     19  N   UNL     1       6.609   2.785  -2.315  0.00  0.00    -0.279 NA
ATOM     20  C   UNL     1       5.177   2.709  -2.118  0.00  0.00    +0.158 C 
ATOM     21  C   UNL     1       4.306   3.596  -2.933  0.00  0.00    +0.006 C 
ATOM     22  C   UNL     1       3.099   3.167  -3.317  0.00  0.00    +0.022 C 
ENDBRANCH  12  14
ENDBRANCH   1  12
TORSDOF 3
