REMARK  Name = ZINC67462787
REMARK  5 active torsions:
REMARK  status: ('A' for Active; 'I' for Inactive)
REMARK    1  A    between atoms: C_4  and  C_7
REMARK    2  A    between atoms: N_17  and  C_18
REMARK    3  A    between atoms: C_18  and  C_19
REMARK    4  A    between atoms: C_19  and  C_20
REMARK    5  A    between atoms: C_20  and  C_21
REMARK                            x       y       z     vdW  Elec       q    Type
REMARK                         _______ _______ _______ _____ _____    ______ ____
ROOT
ATOM      1  C   UNL     1       7.997  -2.248  -0.424  0.00  0.00    +0.021 C 
ATOM      2  C   UNL     1       7.687  -2.135   1.066  0.00  0.00    +0.010 C 
ATOM      3  C   UNL     1       6.454  -1.287   1.257  0.00  0.00    +0.020 C 
ATOM      4  C   UNL     1       5.199  -2.178   1.289  0.00  0.00    +0.109 C 
ATOM      5  N   UNL     1       5.259  -3.259   0.287  0.00  0.00    -0.286 N 
ATOM      6  C   UNL     1       5.740  -3.050  -1.060  0.00  0.00    +0.110 C 
ATOM      7  C   UNL     1       7.264  -3.321  -1.113  0.00  0.00    +0.027 C 
ATOM      8  C   UNL     1       4.849  -4.493   0.642  0.00  0.00    +0.302 C 
ATOM      9  O   UNL     1       4.523  -4.718   1.792  0.00  0.00    -0.253 OA
ATOM     10  N   UNL     1       4.799  -5.478  -0.277  0.00  0.00    -0.299 N 
ATOM     11  H   UNL     1       5.129  -5.319  -1.175  0.00  0.00    +0.150 HD
ENDROOT
BRANCH   1  15
ATOM     12  C   UNL     1      12.185  -2.950  -0.886  0.00  0.00    +0.000 A 
ATOM     13  C   UNL     1      11.614  -1.804  -1.409  0.00  0.00    +0.000 A 
ATOM     14  C   UNL     1      10.259  -1.577  -1.259  0.00  0.00    +0.004 A 
ATOM     15  C   UNL     1       9.474  -2.496  -0.588  0.00  0.00    -0.044 A 
ATOM     16  C   UNL     1      10.045  -3.642  -0.066  0.00  0.00    +0.004 A 
ATOM     17  C   UNL     1      11.400  -3.868  -0.214  0.00  0.00    +0.000 A 
ENDBRANCH   1  15
BRANCH  10  18
ATOM     18  C   UNL     1       4.248  -6.787   0.081  0.00  0.00    +0.106 C 
BRANCH  18  19
ATOM     19  C   UNL     1       4.309  -7.715  -1.133  0.00  0.00    +0.026 C 
BRANCH  19  20
ATOM     20  C   UNL     1       3.733  -9.083  -0.759  0.00  0.00    +0.078 C 
BRANCH  20  21
ATOM     21  C   UNL     1       3.793  -9.997  -1.956  0.00  0.00    +0.134 A 
ATOM     22  N   UNL     1       2.869 -10.141  -2.869  0.00  0.00    -0.134 NA
ATOM     23  N   UNL     1       3.258 -10.998  -3.748  0.00  0.00    -0.134 NA
ATOM     24  C   UNL     1       4.445 -11.434  -3.436  0.00  0.00    +0.133 A 
ATOM     25  N   UNL     1       4.814 -10.817  -2.289  0.00  0.00    -0.315 N 
ATOM     26  C   UNL     1       6.063 -11.018  -1.554  0.00  0.00    +0.125 C 
ATOM     27  C   UNL     1       7.165 -11.439  -2.531  0.00  0.00    +0.022 C 
ATOM     28  C   UNL     1       7.178 -12.961  -2.667  0.00  0.00    +0.002 C 
ATOM     29  C   UNL     1       5.849 -13.460  -3.225  0.00  0.00    +0.008 C 
ATOM     30  C   UNL     1       5.279 -12.431  -4.199  0.00  0.00    +0.076 C 
ENDBRANCH  20  21
ENDBRANCH  19  20
ENDBRANCH  18  19
ENDBRANCH  10  18
TORSDOF 5
