REMARK  Name = ZINC59385623
REMARK  8 active torsions:
REMARK  status: ('A' for Active; 'I' for Inactive)
REMARK    1  A    between atoms: C_1  and  C_2
REMARK    2  A    between atoms: C_3  and  C_19
REMARK    3  A    between atoms: C_4  and  C_10
REMARK    4  A    between atoms: C_13  and  N_16
REMARK    5  A    between atoms: N_16  and  C_17
REMARK    6  A    between atoms: N_16  and  C_18
REMARK    7  A    between atoms: N_21  and  N_22
REMARK    8  A    between atoms: C_23  and  C_24
REMARK                            x       y       z     vdW  Elec       q    Type
REMARK                         _______ _______ _______ _____ _____    ______ ____
ROOT
ATOM      1  C   UNL     1      -0.039   1.491   0.091  0.00  0.00    +0.061 C 
ATOM      2  C   UNL     1      -0.009  -0.015   0.029  0.00  0.00    +0.019 C 
ATOM      3  C   UNL     1      -1.170  -0.703   0.033  0.00  0.00    +0.057 C 
ATOM      4  C   UNL     1      -1.094  -2.215  -0.030  0.00  0.00    +0.142 C 
ATOM      5  N   UNL     1       0.250  -2.813  -0.090  0.00  0.00    -0.288 N 
ATOM      6  C   UNL     1       1.319  -1.993  -0.086  0.00  0.00    +0.304 C 
ATOM      7  O   UNL     1       2.433  -2.477  -0.135  0.00  0.00    -0.252 OA
ATOM      8  N   UNL     1       1.194  -0.661  -0.034  0.00  0.00    -0.273 N 
ATOM      9  H   UNL     1       0.363  -3.776  -0.132  0.00  0.00    +0.151 HD
ATOM     10  H   UNL     1       2.002  -0.124  -0.038  0.00  0.00    +0.156 HD
ENDROOT
BRANCH   4  11
ATOM     11  C   UNL     1      -1.793  -2.766   1.186  0.00  0.00    -0.022 A 
ATOM     12  C   UNL     1      -1.185  -2.689   2.425  0.00  0.00    +0.007 A 
ATOM     13  C   UNL     1      -1.823  -3.193   3.542  0.00  0.00    +0.023 A 
ATOM     14  C   UNL     1      -3.078  -3.778   3.418  0.00  0.00    +0.029 A 
ATOM     15  C   UNL     1      -3.685  -3.853   2.171  0.00  0.00    +0.023 A 
ATOM     16  C   UNL     1      -3.044  -3.342   1.060  0.00  0.00    +0.007 A 
BRANCH  14  17
ATOM     17  N   UNL     1      -3.726  -4.289   4.545  0.00  0.00    -0.336 N 
ATOM     18  C   UNL     1      -3.083  -4.209   5.859  0.00  0.00    +0.129 C 
ATOM     19  C   UNL     1      -5.048  -4.905   4.413  0.00  0.00    +0.129 C 
ENDBRANCH  14  17
ENDBRANCH   4  11
BRANCH   3  20
ATOM     20  C   UNL     1      -2.417  -0.034   0.094  0.00  0.00    +0.263 C 
ATOM     21  O   UNL     1      -3.077   0.117  -0.919  0.00  0.00    -0.269 OA
ATOM     22  N   UNL     1      -2.873   0.436   1.272  0.00  0.00    -0.203 N 
ATOM     23  H   UNL     1      -2.315   0.383   2.063  0.00  0.00    +0.178 HD
BRANCH  22  24
ATOM     24  N   UNL     1      -4.152   1.001   1.352  0.00  0.00    -0.187 NA
ATOM     25  C   UNL     1      -4.592   1.453   2.487  0.00  0.00    +0.141 C 
BRANCH  25  26
ATOM     26  C   UNL     1      -5.938   2.048   2.572  0.00  0.00    +0.030 A 
ATOM     27  C   UNL     1      -6.412   2.541   3.790  0.00  0.00    +0.012 A 
ATOM     28  C   UNL     1      -7.673   3.096   3.862  0.00  0.00    +0.001 A 
ATOM     29  C   UNL     1      -8.469   3.166   2.732  0.00  0.00    +0.003 A 
ATOM     30  C   UNL     1      -8.008   2.680   1.522  0.00  0.00    +0.039 A 
ATOM     31  C   UNL     1      -6.745   2.126   1.432  0.00  0.00    +0.132 A 
ATOM     32  F   UNL     1      -6.294   1.657   0.248  0.00  0.00    -0.205 F 
ENDBRANCH  25  26
ENDBRANCH  22  24
ENDBRANCH   3  20
TORSDOF 5
