REMARK  Name = ZINC39666089
REMARK  11 active torsions:
REMARK  status: ('A' for Active; 'I' for Inactive)
REMARK    1  A    between atoms: C_1  and  C_2
REMARK    2  A    between atoms: C_2  and  O_3
REMARK    3  A    between atoms: O_3  and  C_4
REMARK    4  A    between atoms: C_9  and  C_10
REMARK    5  A    between atoms: C_14  and  C_23
REMARK    6  A    between atoms: N_25  and  C_26
REMARK    7  A    between atoms: C_26  and  C_27
REMARK    8  A    between atoms: C_27  and  C_29
REMARK    9  A    between atoms: C_27  and  O_30
REMARK   10  A    between atoms: O_30  and  C_31
REMARK   11  A    between atoms: C_34  and  C_37
REMARK                            x       y       z     vdW  Elec       q    Type
REMARK                         _______ _______ _______ _____ _____    ______ ____
ROOT
ATOM      1  C   UNL     1       2.987  -0.560   2.633  0.00  0.00    +0.250 C 
ATOM      2  O   UNL     1       3.207   0.620   2.439  0.00  0.00    -0.270 OA
ATOM      3  N   UNL     1       3.317  -1.122   3.813  0.00  0.00    -0.296 N 
ATOM      4  C   UNL     1       3.226  -2.551   4.196  0.00  0.00    +0.121 C 
ATOM      5  C   UNL     1       4.499  -2.813   5.031  0.00  0.00    +0.100 C 
ATOM      6  C   UNL     1       4.906  -1.432   5.571  0.00  0.00    -0.004 C 
ATOM      7  C   UNL     1       3.861  -0.452   5.018  0.00  0.00    +0.115 C 
ATOM      8  C   UNL     1       6.295  -1.055   5.064  0.00  0.00    -0.010 C 
ATOM      9  C   UNL     1       6.700   0.296   5.660  0.00  0.00    -0.082 C 
ATOM     10  N   UNL     1       6.700   0.206   7.125  0.00  0.00    +0.379 N 
ATOM     11  C   UNL     1       5.341  -0.065   7.610  0.00  0.00    -0.082 C 
ATOM     12  C   UNL     1       4.877  -1.431   7.096  0.00  0.00    -0.010 C 
ATOM     13  H   UNL     1       7.314  -0.539   7.416  0.00  0.00    -0.086 HD
ATOM     14  H   UNL     1       7.026   1.078   7.514  0.00  0.00    -0.086 HD
ENDROOT
BRANCH   1  20
ATOM     15  C   UNL     1       2.636  -1.122   0.229  0.00  0.00    +0.133 A 
ATOM     16  C   UNL     1       2.043  -1.899  -0.755  0.00  0.00    +0.046 A 
ATOM     17  C   UNL     1       1.176  -2.915  -0.405  0.00  0.00    +0.004 A 
ATOM     18  C   UNL     1       0.891  -3.165   0.928  0.00  0.00    +0.001 A 
ATOM     19  C   UNL     1       1.473  -2.403   1.918  0.00  0.00    +0.017 A 
ATOM     20  C   UNL     1       2.357  -1.376   1.578  0.00  0.00    +0.078 A 
BRANCH  15  21
ATOM     21  O   UNL     1       3.488  -0.123  -0.114  0.00  0.00    -0.491 OA
BRANCH  21  23
ATOM     22  C   UNL     1       4.705   1.238  -1.698  0.00  0.00    +0.048 C 
ATOM     23  C   UNL     1       3.725   0.077  -1.509  0.00  0.00    +0.226 C 
ENDBRANCH  21  23
ENDBRANCH  15  21
ENDBRANCH   1  20
BRANCH   5  24
ATOM     24  C   UNL     1       5.590  -3.382   4.161  0.00  0.00    +0.218 C 
ATOM     25  O   UNL     1       5.660  -3.065   2.992  0.00  0.00    -0.275 OA
ATOM     26  N   UNL     1       6.488  -4.242   4.681  0.00  0.00    -0.312 N 
ATOM     27  H   UNL     1       6.432  -4.495   5.616  0.00  0.00    +0.149 HD
BRANCH  26  28
ATOM     28  C   UNL     1       7.548  -4.794   3.835  0.00  0.00    +0.148 C 
BRANCH  28  29
ATOM     29  C   UNL     1       8.424  -5.735   4.664  0.00  0.00    +0.187 C 
ATOM     30  C   UNL     1       9.532  -6.312   3.780  0.00  0.00    +0.053 C 
BRANCH  29  31
ATOM     31  O   UNL     1       9.009  -5.010   5.748  0.00  0.00    -0.488 OA
BRANCH  31  32
ATOM     32  C   UNL     1       9.372  -5.726   6.845  0.00  0.00    +0.121 A 
ATOM     33  C   UNL     1       9.832  -5.074   7.979  0.00  0.00    +0.046 A 
ATOM     34  C   UNL     1      10.199  -5.804   9.093  0.00  0.00    +0.007 A 
ATOM     35  C   UNL     1      10.110  -7.184   9.077  0.00  0.00    -0.050 A 
ATOM     36  C   UNL     1       9.652  -7.836   7.947  0.00  0.00    +0.007 A 
ATOM     37  C   UNL     1       9.277  -7.110   6.833  0.00  0.00    +0.046 A 
ATOM     38  C   UNL     1      10.512  -7.978  10.293  0.00  0.00    +0.044 C 
ENDBRANCH  31  32
ENDBRANCH  29  31
ENDBRANCH  28  29
ENDBRANCH  26  28
ENDBRANCH   5  24
TORSDOF 8
