REMARK  Name = ZINC66412789
REMARK  4 active torsions:
REMARK  status: ('A' for Active; 'I' for Inactive)
REMARK    1  A    between atoms: C_1  and  C_2
REMARK    2  A    between atoms: C_5  and  C_7
REMARK    3  A    between atoms: C_13  and  C_15
REMARK    4  A    between atoms: C_18  and  C_21
REMARK                            x       y       z     vdW  Elec       q    Type
REMARK                         _______ _______ _______ _____ _____    ______ ____
ROOT
ATOM      1  C   UNL     1       1.039  -4.034  -0.024  0.00  0.00    +0.177 A 
ATOM      2  N   UNL     1       2.341  -4.268  -0.025  0.00  0.00    -0.203 NA
ATOM      3  C   UNL     1       2.737  -5.528  -0.033  0.00  0.00    +0.185 A 
ATOM      4  S   UNL     1       1.285  -6.373  -0.038  0.00  0.00    +0.050 S 
ATOM      5  N   UNL     1       0.226  -5.074  -0.025  0.00  0.00    -0.187 NA
ATOM      6  N   UNL     1       4.029  -6.028  -0.037  0.00  0.00    -0.258 N 
ATOM      7  C   UNL     1       4.236  -7.360  -0.045  0.00  0.00    +0.267 C 
ATOM      8  O   UNL     1       3.289  -8.122  -0.049  0.00  0.00    -0.268 OA
ATOM      9  H   UNL     1       4.785  -5.420  -0.035  0.00  0.00    +0.157 HD
ENDROOT
BRANCH   1  14
ATOM     10  C   UNL     1      -0.018   1.503   0.010  0.00  0.00    +0.051 C 
ATOM     11  C   UNL     1       0.002  -0.004   0.002  0.00  0.00    -0.013 A 
ATOM     12  C   UNL     1      -1.042  -0.872   0.002  0.00  0.00    +0.011 A 
ATOM     13  C   UNL     1      -0.789  -2.226  -0.007  0.00  0.00    +0.019 A 
ATOM     14  C   UNL     1       0.512  -2.653  -0.015  0.00  0.00    +0.057 A 
ATOM     15  S   UNL     1       1.405  -1.107  -0.018  0.00  0.00    -0.090 S 
ENDBRANCH   1  14
BRANCH   7  16
ATOM     16  C   UNL     1       5.612  -7.893  -0.050  0.00  0.00    +0.146 C 
ATOM     17  N   UNL     1       6.695  -7.190  -0.041  0.00  0.00    -0.084 NA
ATOM     18  O   UNL     1       7.865  -7.984  -0.055  0.00  0.00    -0.385 OA
ATOM     19  C   UNL     1       7.490  -9.320   0.339  0.00  0.00    +0.240 C 
ATOM     20  C   UNL     1       5.997  -9.360  -0.059  0.00  0.00    +0.116 C 
BRANCH  19  21
ATOM     21  C   UNL     1       8.284 -10.349  -0.424  0.00  0.00    -0.004 A 
ATOM     22  C   UNL     1       8.667 -10.099  -1.728  0.00  0.00    +0.007 A 
ATOM     23  C   UNL     1       9.395 -11.044  -2.428  0.00  0.00    +0.000 A 
ATOM     24  C   UNL     1       9.739 -12.238  -1.823  0.00  0.00    +0.000 A 
ATOM     25  C   UNL     1       9.357 -12.488  -0.518  0.00  0.00    +0.000 A 
ATOM     26  C   UNL     1       8.633 -11.541   0.183  0.00  0.00    +0.007 A 
ENDBRANCH  19  21
ENDBRANCH   7  16
TORSDOF 3
