REMARK  Name = ZINC09298056
REMARK  6 active torsions:
REMARK  status: ('A' for Active; 'I' for Inactive)
REMARK    1  A    between atoms: C_1  and  C_2
REMARK    2  A    between atoms: C_9  and  N_18
REMARK    3  A    between atoms: C_10  and  C_11
REMARK    4  A    between atoms: C_14  and  O_16
REMARK    5  A    between atoms: O_16  and  C_17
REMARK    6  A    between atoms: C_19  and  C_21
REMARK                            x       y       z     vdW  Elec       q    Type
REMARK                         _______ _______ _______ _____ _____    ______ ____
ROOT
ATOM      1  C   UNL     1      -0.758   1.595  -1.227  0.00  0.00    +0.008 C 
ATOM      2  C   UNL     1      -0.013   1.086   0.008  0.00  0.00    -0.009 C 
ATOM      3  C   UNL     1      -0.714   1.583   1.276  0.00  0.00    +0.008 C 
ATOM      4  C   UNL     1      -0.129   0.881   2.503  0.00  0.00    +0.037 C 
ATOM      5  C   UNL     1       1.387   1.034   2.479  0.00  0.00    -0.023 A 
ATOM      6  C   UNL     1       2.035   1.365   1.342  0.00  0.00    -0.004 A 
ATOM      7  S   UNL     1       3.745   1.426   1.796  0.00  0.00    -0.077 S 
ATOM      8  C   UNL     1       3.604   1.018   3.474  0.00  0.00    +0.085 A 
ATOM      9  C   UNL     1       2.236   0.844   3.643  0.00  0.00    +0.069 A 
ATOM     10  C   UNL     1       1.427   1.620  -0.003  0.00  0.00    +0.046 C 
ENDROOT
BRANCH   9  11
ATOM     11  C   UNL     1       1.671   0.482   4.945  0.00  0.00    +0.255 C 
ATOM     12  O   UNL     1       1.336   1.353   5.726  0.00  0.00    -0.270 OA
ATOM     13  N   UNL     1       1.523  -0.816   5.278  0.00  0.00    -0.217 N 
ATOM     14  C   UNL     1       1.003  -1.149   6.476  0.00  0.00    +0.407 C 
ATOM     15  O   UNL     1       0.668  -0.279   7.256  0.00  0.00    -0.226 OA
ATOM     16  H   UNL     1       1.790  -1.510   4.655  0.00  0.00    +0.161 HD
BRANCH  14  17
ATOM     17  O   UNL     1       0.855  -2.445   6.809  0.00  0.00    -0.453 OA
ATOM     18  C   UNL     1       0.288  -2.729   8.115  0.00  0.00    +0.282 C 
ENDBRANCH  14  17
ENDBRANCH   9  11
BRANCH   8  19
ATOM     19  N   UNL     1       4.610   0.894   4.418  0.00  0.00    -0.275 N 
ATOM     20  C   UNL     1       5.894   1.104   4.065  0.00  0.00    +0.250 C 
ATOM     21  O   UNL     1       6.169   1.401   2.918  0.00  0.00    -0.270 OA
ATOM     22  H   UNL     1       4.391   0.658   5.332  0.00  0.00    +0.156 HD
BRANCH  20  23
ATOM     23  C   UNL     1       6.967   0.972   5.071  0.00  0.00    +0.051 A 
ATOM     24  C   UNL     1       6.655   0.637   6.390  0.00  0.00    +0.014 A 
ATOM     25  C   UNL     1       7.662   0.512   7.324  0.00  0.00    +0.001 A 
ATOM     26  C   UNL     1       8.980   0.728   6.959  0.00  0.00    +0.001 A 
ATOM     27  C   UNL     1       9.297   1.064   5.655  0.00  0.00    +0.016 A 
ATOM     28  C   UNL     1       8.299   1.188   4.709  0.00  0.00    +0.030 A 
ATOM     29 BR   UNL     1       8.734   1.650   2.928  0.00  0.00    -0.050 Br
ENDBRANCH  20  23
ENDBRANCH   8  19
TORSDOF 4
