REMARK  Name = ZINC33298075
REMARK  10 active torsions:
REMARK  status: ('A' for Active; 'I' for Inactive)
REMARK    1  A    between atoms: C_1  and  C_2
REMARK    2  A    between atoms: C_5  and  C_22
REMARK    3  A    between atoms: C_7  and  S_8
REMARK    4  A    between atoms: S_8  and  N_11
REMARK    5  A    between atoms: N_11  and  C_12
REMARK    6  A    between atoms: C_12  and  C_13
REMARK    7  A    between atoms: C_13  and  N_14
REMARK    8  A    between atoms: C_19  and  C_21
REMARK    9  A    between atoms: C_28  and  C_32
REMARK   10  A    between atoms: C_30  and  C_31
REMARK                            x       y       z     vdW  Elec       q    Type
REMARK                         _______ _______ _______ _____ _____    ______ ____
ROOT
ATOM      1  C   UNL     1       2.822   3.012   2.043  0.00  0.00    +0.046 C 
ATOM      2  C   UNL     1       3.465   3.515   3.309  0.00  0.00    -0.024 A 
ATOM      3  C   UNL     1       3.693   4.870   3.475  0.00  0.00    +0.006 A 
ATOM      4  C   UNL     1       4.281   5.337   4.632  0.00  0.00    +0.009 A 
ATOM      5  C   UNL     1       4.646   4.441   5.637  0.00  0.00    -0.011 A 
ATOM      6  C   UNL     1       4.409   3.077   5.466  0.00  0.00    +0.037 A 
ATOM      7  C   UNL     1       3.824   2.621   4.302  0.00  0.00    +0.109 A 
ENDROOT
BRANCH   5   8
ATOM      8  C   UNL     1       5.277   4.936   6.882  0.00  0.00    +0.046 A 
ATOM      9  C   UNL     1       4.892   4.622   8.189  0.00  0.00    +0.145 A 
ATOM     10  N   UNL     1       5.685   5.247   9.026  0.00  0.00    -0.173 NA
ATOM     11  N   UNL     1       6.620   5.995   8.304  0.00  0.00    -0.218 N 
ATOM     12  C   UNL     1       6.375   5.801   6.969  0.00  0.00    +0.164 A 
ATOM     13  N   UNL     1       7.123   6.408   6.043  0.00  0.00    -0.232 NA
ATOM     14  C   UNL     1       8.116   7.196   6.390  0.00  0.00    +0.042 A 
ATOM     15  C   UNL     1       8.402   7.416   7.745  0.00  0.00    +0.046 A 
ATOM     16  C   UNL     1       7.646   6.809   8.692  0.00  0.00    +0.044 A 
ATOM     17  C   UNL     1       7.933   7.029  10.155  0.00  0.00    +0.066 C 
ATOM     18  C   UNL     1       8.949   7.865   5.328  0.00  0.00    +0.066 C 
ENDBRANCH   5   8
BRANCH   7  19
ATOM     19  S   UNL     1       3.529   0.898   4.082  0.00  0.00    +0.059 S 
ATOM     20  O   UNL     1       2.182   0.769   3.650  0.00  0.00    -0.153 OA
ATOM     21  O   UNL     1       4.020   0.250   5.248  0.00  0.00    -0.153 OA
BRANCH  19  22
ATOM     22  N   UNL     1       4.481   0.395   2.824  0.00  0.00    -0.192 NA
ATOM     23  H   UNL     1       4.015   0.178   1.851  0.00  0.00    +0.148 HD
BRANCH  22  24
ATOM     24  C   UNL     1       5.940   0.449   2.942  0.00  0.00    +0.087 C 
BRANCH  24  25
ATOM     25  C   UNL     1       6.572  -0.410   1.845  0.00  0.00    -0.061 C 
BRANCH  25  26
ATOM     26  N   UNL     1       8.036  -0.355   1.964  0.00  0.00    +0.382 N 
ATOM     27  C   UNL     1       8.487  -0.991   3.208  0.00  0.00    -0.078 C 
ATOM     28  C   UNL     1      10.016  -1.046   3.229  0.00  0.00    -0.019 C 
ATOM     29  C   UNL     1      10.575   0.377   3.128  0.00  0.00    -0.003 C 
ATOM     30  C   UNL     1      10.050   1.033   1.848  0.00  0.00    -0.016 C 
ATOM     31  C   UNL     1       8.520   1.028   1.867  0.00  0.00    -0.072 C 
ATOM     32  C   UNL     1       7.992   1.664   0.580  0.00  0.00    -0.013 C 
ATOM     33  H   UNL     1       8.466  -0.921   1.124  0.00  0.00    -0.081 HD
ENDBRANCH  25  26
ENDBRANCH  24  25
ENDBRANCH  22  24
ENDBRANCH  19  22
ENDBRANCH   7  19
TORSDOF 6
