REMARK  Name = ZINC34757438
REMARK  5 active torsions:
REMARK  status: ('A' for Active; 'I' for Inactive)
REMARK    1  A    between atoms: C_1  and  C_2
REMARK    2  A    between atoms: C_2  and  N_3
REMARK    3  A    between atoms: C_16  and  S_18
REMARK    4  A    between atoms: S_18  and  C_19
REMARK    5  A    between atoms: C_19  and  C_20
REMARK                            x       y       z     vdW  Elec       q    Type
REMARK                         _______ _______ _______ _____ _____    ______ ____
ROOT
ATOM      1  N   UNL     1       1.124   0.442  -2.233  0.00  0.00    +0.382 N 
ATOM      2  C   UNL     1       1.586   0.136  -3.593  0.00  0.00    -0.060 C 
ATOM      3  C   UNL     1       1.714  -1.382  -3.758  0.00  0.00    +0.088 C 
ATOM      4  N   UNL     1       2.587  -1.895  -2.691  0.00  0.00    -0.318 N 
ATOM      5  C   UNL     1       2.292  -1.501  -1.304  0.00  0.00    +0.088 C 
ATOM      6  C   UNL     1       2.136   0.023  -1.255  0.00  0.00    -0.060 C 
ATOM      7  C   UNL     1       3.655  -2.724  -2.982  0.00  0.00    +0.134 A 
ATOM      8  C   UNL     1       3.466  -4.130  -3.091  0.00  0.00    +0.051 A 
ATOM      9  C   UNL     1       2.221  -4.900  -2.932  0.00  0.00    -0.025 A 
ATOM     10  C   UNL     1       2.306  -6.231  -3.085  0.00  0.00    -0.004 A 
ATOM     11  S   UNL     1       4.018  -6.546  -3.450  0.00  0.00    -0.073 S 
ATOM     12  C   UNL     1       4.618  -4.879  -3.391  0.00  0.00    +0.115 A 
ATOM     13  N   UNL     1       5.793  -4.303  -3.558  0.00  0.00    -0.215 NA
ATOM     14  C   UNL     1       5.912  -2.987  -3.444  0.00  0.00    +0.191 A 
ATOM     15  N   UNL     1       4.864  -2.220  -3.167  0.00  0.00    -0.206 NA
ATOM     16  C   UNL     1       0.977  -6.912  -2.895  0.00  0.00    +0.043 C 
ATOM     17  C   UNL     1       0.105  -5.863  -2.170  0.00  0.00    +0.010 C 
ATOM     18  C   UNL     1       0.765  -4.544  -2.618  0.00  0.00    +0.037 C 
ATOM     19  H   UNL     1       0.262  -0.050  -2.055  0.00  0.00    -0.082 HD
ENDROOT
BRANCH   1  21
ATOM     20  C   UNL     1      -0.245   2.305  -3.040  0.00  0.00    -0.017 C 
ATOM     21  C   UNL     1       0.896   1.888  -2.110  0.00  0.00    -0.082 C 
ENDBRANCH   1  21
BRANCH  14  22
ATOM     22  S   UNL     1       7.492  -2.240  -3.670  0.00  0.00    -0.081 S 
BRANCH  22  23
ATOM     23  C   UNL     1       8.592  -3.638  -4.027  0.00  0.00    +0.112 C 
BRANCH  23  24
ATOM     24  C   UNL     1       9.994  -3.131  -4.244  0.00  0.00    -0.037 A 
ATOM     25  C   UNL     1      10.411  -2.773  -5.512  0.00  0.00    +0.006 A 
ATOM     26  C   UNL     1      11.697  -2.308  -5.712  0.00  0.00    +0.020 A 
ATOM     27  C   UNL     1      12.568  -2.202  -4.642  0.00  0.00    +0.041 A 
ATOM     28  C   UNL     1      12.150  -2.561  -3.373  0.00  0.00    +0.020 A 
ATOM     29  C   UNL     1      10.862  -3.021  -3.174  0.00  0.00    +0.006 A 
ATOM     30 CL   UNL     1      14.184  -1.619  -4.892  0.00  0.00    -0.084 Cl
ENDBRANCH  23  24
ENDBRANCH  22  23
ENDBRANCH  14  22
TORSDOF 4
