REMARK  Name = ZINC13985071
REMARK  4 active torsions:
REMARK  status: ('A' for Active; 'I' for Inactive)
REMARK    1  A    between atoms: C_9  and  C_12
REMARK    2  A    between atoms: C_10  and  O_11
REMARK    3  A    between atoms: N_13  and  C_14
REMARK    4  A    between atoms: C_17  and  O_20
REMARK                            x       y       z     vdW  Elec       q    Type
REMARK                         _______ _______ _______ _____ _____    ______ ____
ROOT
ATOM      1  C   UNL     1      -0.060   1.071  -1.465  0.00  0.00    +0.001 A 
ATOM      2  C   UNL     1       0.875   1.794  -0.727  0.00  0.00    +0.001 A 
ATOM      3  C   UNL     1       2.042   1.221  -0.322  0.00  0.00    +0.012 A 
ATOM      4  C   UNL     1       2.309  -0.118  -0.649  0.00  0.00    +0.024 A 
ATOM      5  C   UNL     1       1.359  -0.855  -1.399  0.00  0.00    -0.014 A 
ATOM      6  C   UNL     1       0.167  -0.230  -1.800  0.00  0.00    +0.008 A 
ATOM      7  C   UNL     1       1.619  -2.199  -1.730  0.00  0.00    +0.009 A 
ATOM      8  C   UNL     1       2.774  -2.788  -1.334  0.00  0.00    +0.013 A 
ATOM      9  C   UNL     1       3.732  -2.074  -0.589  0.00  0.00    +0.035 A 
ATOM     10  C   UNL     1       3.506  -0.741  -0.244  0.00  0.00    +0.133 A 
ENDROOT
BRANCH  10  11
ATOM     11  O   UNL     1       4.427  -0.053   0.473  0.00  0.00    -0.506 OA
ATOM     12  H   UNL     1       4.352  -0.175   1.430  0.00  0.00    +0.292 HD
ENDBRANCH  10  11
BRANCH   9  13
ATOM     13  C   UNL     1       4.975  -2.735  -0.172  0.00  0.00    +0.123 C 
ATOM     14  N   UNL     1       4.990  -4.022   0.038  0.00  0.00    -0.255 NA
BRANCH  14  15
ATOM     15  C   UNL     1       3.818  -4.728   0.047  0.00  0.00    +0.064 A 
ATOM     16  C   UNL     1       2.783  -4.357   0.908  0.00  0.00    +0.031 A 
ATOM     17  C   UNL     1       1.603  -5.070   0.913  0.00  0.00    +0.047 A 
ATOM     18  C   UNL     1       1.444  -6.157   0.063  0.00  0.00    +0.117 A 
ATOM     19  C   UNL     1       2.470  -6.530  -0.794  0.00  0.00    +0.047 A 
ATOM     20  C   UNL     1       3.651  -5.819  -0.810  0.00  0.00    +0.031 A 
BRANCH  18  21
ATOM     21  O   UNL     1       0.279  -6.858   0.071  0.00  0.00    -0.507 OA
ATOM     22  H   UNL     1      -0.384  -6.526  -0.549  0.00  0.00    +0.292 HD
ENDBRANCH  18  21
ENDBRANCH  14  15
ENDBRANCH   9  13
TORSDOF 4
