REMARK  Name = ZINC05106536
REMARK  6 active torsions:
REMARK  status: ('A' for Active; 'I' for Inactive)
REMARK    1  A    between atoms: C_1  and  C_2
REMARK    2  A    between atoms: C_2  and  N_3
REMARK    3  A    between atoms: C_17  and  S_18
REMARK    4  A    between atoms: S_18  and  C_19
REMARK    5  A    between atoms: C_19  and  C_20
REMARK    6  A    between atoms: C_25  and  C_28
REMARK                            x       y       z     vdW  Elec       q    Type
REMARK                         _______ _______ _______ _____ _____    ______ ____
ROOT
ATOM      1  N   UNL     1      -8.587   4.454   6.652  0.00  0.00    -0.286 N 
ATOM      2  C   UNL     1      -9.921   4.662   6.637  0.00  0.00    +0.279 A 
ATOM      3  O   UNL     1     -10.501   5.055   7.636  0.00  0.00    -0.265 OA
ATOM      4  C   UNL     1     -10.629   4.416   5.442  0.00  0.00    +0.131 A 
ATOM      5  C   UNL     1      -9.920   3.969   4.329  0.00  0.00    +0.104 A 
ATOM      6  C   UNL     1     -10.902   3.801   3.248  0.00  0.00    +0.026 A 
ATOM      7  C   UNL     1     -10.807   3.387   1.919  0.00  0.00    +0.012 A 
ATOM      8  C   UNL     1     -11.930   3.333   1.141  0.00  0.00    +0.001 A 
ATOM      9  C   UNL     1     -13.166   3.687   1.663  0.00  0.00    +0.002 A 
ATOM     10  C   UNL     1     -13.282   4.098   2.972  0.00  0.00    +0.026 A 
ATOM     11  C   UNL     1     -12.151   4.161   3.783  0.00  0.00    +0.049 A 
ATOM     12  N   UNL     1     -11.968   4.527   5.100  0.00  0.00    -0.349 N 
ATOM     13  H   UNL     1     -12.673   4.820   5.698  0.00  0.00    +0.166 HD
ATOM     14  N   UNL     1      -8.592   3.786   4.411  0.00  0.00    -0.221 NA
ATOM     15  C   UNL     1      -7.945   4.014   5.532  0.00  0.00    +0.173 A 
ENDROOT
BRANCH   1  17
ATOM     16  C   UNL     1      -7.342   6.152   7.896  0.00  0.00    +0.027 C 
ATOM     17  C   UNL     1      -7.825   4.700   7.879  0.00  0.00    +0.124 C 
ENDBRANCH   1  17
BRANCH  15  18
ATOM     18  S   UNL     1      -6.203   3.752   5.587  0.00  0.00    -0.078 S 
BRANCH  18  19
ATOM     19  C   UNL     1      -5.916   3.196   3.889  0.00  0.00    +0.173 C 
BRANCH  19  20
ATOM     20  C   UNL     1      -4.449   2.904   3.697  0.00  0.00    +0.229 C 
ATOM     21  O   UNL     1      -3.675   3.058   4.618  0.00  0.00    -0.275 OA
ATOM     22  N   UNL     1      -3.999   2.473   2.502  0.00  0.00    -0.264 N 
ATOM     23  C   UNL     1      -2.646   2.204   2.326  0.00  0.00    +0.165 A 
ATOM     24  N   UNL     1      -2.019   1.784   1.244  0.00  0.00    -0.230 NA
ATOM     25  C   UNL     1      -0.718   1.572   1.248  0.00  0.00    +0.047 A 
ATOM     26  C   UNL     1      -0.029   1.806   2.391  0.00  0.00    +0.071 A 
ATOM     27  S   UNL     1      -1.348   2.342   3.471  0.00  0.00    -0.060 S 
ATOM     28  C   UNL     1      -0.013   1.086   0.008  0.00  0.00    +0.066 C 
ATOM     29  H   UNL     1      -4.618   2.351   1.766  0.00  0.00    +0.157 HD
ENDBRANCH  19  20
ENDBRANCH  18  19
ENDBRANCH  15  18
TORSDOF 4
