REMARK  Name = ZINC17196436
REMARK  6 active torsions:
REMARK  status: ('A' for Active; 'I' for Inactive)
REMARK    1  A    between atoms: C_1  and  O_2
REMARK    2  A    between atoms: O_2  and  C_3
REMARK    3  A    between atoms: C_7  and  C_11
REMARK    4  A    between atoms: C_8  and  O_9
REMARK    5  A    between atoms: O_9  and  C_10
REMARK    6  A    between atoms: N_17  and  C_18
REMARK                            x       y       z     vdW  Elec       q    Type
REMARK                         _______ _______ _______ _____ _____    ______ ____
ROOT
ATOM      1  C   UNL     1      -2.571  -4.139   0.016  0.00  0.00    +0.032 C 
ATOM      2  C   UNL     1      -3.772  -4.761   0.128  0.00  0.00    +0.078 C 
ATOM      3  C   UNL     1      -4.074  -6.200   0.255  0.00  0.00    +0.256 C 
ATOM      4  O   UNL     1      -3.189  -7.036   0.273  0.00  0.00    -0.269 OA
ATOM      5  N   UNL     1      -5.348  -6.540   0.349  0.00  0.00    -0.260 N 
ATOM      6  C   UNL     1      -6.335  -5.578   0.327  0.00  0.00    +0.166 C 
ATOM      7  N   UNL     1      -7.636  -5.741   0.409  0.00  0.00    -0.226 NA
ATOM      8  S   UNL     1      -5.414  -4.057   0.167  0.00  0.00    -0.049 S 
ATOM      9  H   UNL     1      -5.591  -7.475   0.434  0.00  0.00    +0.157 HD
ENDROOT
BRANCH   7  10
ATOM     10  C   UNL     1      -8.466  -4.653   0.368  0.00  0.00    +0.067 A 
ATOM     11  C   UNL     1      -8.165  -3.513   1.117  0.00  0.00    +0.029 A 
ATOM     12  C   UNL     1      -9.005  -2.420   1.072  0.00  0.00    +0.017 A 
ATOM     13  C   UNL     1     -10.145  -2.451   0.286  0.00  0.00    +0.018 A 
ATOM     14  C   UNL     1     -10.449  -3.578  -0.459  0.00  0.00    +0.017 A 
ATOM     15  C   UNL     1      -9.614  -4.676  -0.427  0.00  0.00    +0.029 A 
ATOM     16 BR   UNL     1     -11.291  -0.949   0.231  0.00  0.00    -0.050 Br
ENDBRANCH   7  10
BRANCH   1  21
ATOM     17  C   UNL     1      -1.294  -0.614  -0.260  0.00  0.00    +0.162 A 
ATOM     18  C   UNL     1      -2.409   0.029  -0.774  0.00  0.00    +0.049 A 
ATOM     19  C   UNL     1      -3.571  -0.681  -1.030  0.00  0.00    +0.004 A 
ATOM     20  C   UNL     1      -3.631  -2.034  -0.776  0.00  0.00    +0.012 A 
ATOM     21  C   UNL     1      -2.513  -2.698  -0.257  0.00  0.00    +0.022 A 
ATOM     22  C   UNL     1      -1.335  -1.979  -0.003  0.00  0.00    +0.169 A 
BRANCH  17  24
ATOM     23  C   UNL     1      -0.187   1.490  -0.300  0.00  0.00    +0.277 C 
ATOM     24  O   UNL     1      -0.158   0.091  -0.012  0.00  0.00    -0.491 OA
ENDBRANCH  17  24
BRANCH  22  25
ATOM     25  O   UNL     1      -0.242  -2.613   0.495  0.00  0.00    -0.491 OA
ATOM     26  C   UNL     1      -0.124  -2.680   1.918  0.00  0.00    +0.277 C 
ENDBRANCH  22  25
ENDBRANCH   1  21
TORSDOF 4
