REMARK  Name = ZINC09528784
REMARK  5 active torsions:
REMARK  status: ('A' for Active; 'I' for Inactive)
REMARK    1  A    between atoms: C_5  and  C_7
REMARK    2  A    between atoms: C_7  and  N_64
REMARK    3  A    between atoms: C_10  and  C_13
REMARK    4  A    between atoms: C_13  and  N_14
REMARK    5  A    between atoms: C_15  and  C_17
REMARK                            x       y       z     vdW  Elec       q    Type
REMARK                         _______ _______ _______ _____ _____    ______ ____
ROOT
ATOM      1  N   UNL     1      -2.637   4.472  -7.191  0.00  0.00    -0.311 N 
ATOM      2  C   UNL     1      -2.662   5.221  -6.071  0.00  0.00    +0.244 C 
ATOM      3  O   UNL     1      -3.078   6.363  -6.113  0.00  0.00    -0.270 OA
ATOM      4  H   UNL     1      -2.305   3.561  -7.157  0.00  0.00    +0.149 HD
ENDROOT
BRANCH   2   5
ATOM      5  C   UNL     1      -2.186   4.656  -4.794  0.00  0.00    +0.039 A 
ATOM      6  C   UNL     1      -1.707   3.344  -4.744  0.00  0.00    +0.015 A 
ATOM      7  C   UNL     1      -1.254   2.819  -3.555  0.00  0.00    +0.026 A 
ATOM      8  C   UNL     1      -1.271   3.590  -2.396  0.00  0.00    +0.052 A 
ATOM      9  C   UNL     1      -1.733   4.920  -2.430  0.00  0.00    +0.055 A 
ATOM     10  C   UNL     1      -2.169   5.468  -3.620  0.00  0.00    +0.038 A 
ATOM     11  N   UNL     1      -1.770   5.679  -1.251  0.00  0.00    -0.282 N 
ATOM     12  C   UNL     1      -1.615   5.051  -0.065  0.00  0.00    +0.238 C 
ATOM     13  O   UNL     1      -1.546   5.691   0.963  0.00  0.00    -0.273 OA
ATOM     14  C   UNL     1      -1.528   3.549  -0.036  0.00  0.00    +0.160 C 
ATOM     15  N   UNL     1      -0.796   3.060  -1.205  0.00  0.00    -0.317 N 
ATOM     16  C   UNL     1      -0.753   1.593  -1.232  0.00  0.00    +0.106 C 
ATOM     17  C   UNL     1      -0.013   1.086   0.008  0.00  0.00    +0.019 C 
ATOM     18  C   UNL     1      -0.729   1.579   1.267  0.00  0.00    +0.004 C 
ATOM     19  C   UNL     1      -0.807   3.109   1.240  0.00  0.00    +0.032 C 
ATOM     20  H   UNL     1      -1.905   6.639  -1.287  0.00  0.00    +0.155 HD
ENDBRANCH   2   5
BRANCH   1  21
ATOM     21  C   UNL     1      -3.110   5.033  -8.459  0.00  0.00    +0.108 C 
BRANCH  21  24
ATOM     22  C   UNL     1      -3.387   3.495 -11.977  0.00  0.00    -0.078 C 
ATOM     23  C   UNL     1      -3.580   4.525 -10.861  0.00  0.00    -0.014 C 
ATOM     24  C   UNL     1      -2.974   3.983  -9.563  0.00  0.00    +0.003 C 
ATOM     25  C   UNL     1      -1.493   3.669  -9.791  0.00  0.00    -0.014 C 
ATOM     26  C   UNL     1      -1.360   2.666 -10.939  0.00  0.00    -0.078 C 
ATOM     27  N   UNL     1      -1.940   3.256 -12.164  0.00  0.00    +0.382 N 
ATOM     28  H   UNL     1      -1.476   4.153 -12.353  0.00  0.00    -0.081 HD
BRANCH  27  29
ATOM     29  C   UNL     1      -1.722   2.352 -13.312  0.00  0.00    -0.040 C 
BRANCH  29  34
ATOM     30  C   UNL     1       1.629   3.022 -14.918  0.00  0.00    +0.000 A 
ATOM     31  C   UNL     1       2.461   2.206 -14.174  0.00  0.00    +0.003 A 
ATOM     32  C   UNL     1       1.940   1.436 -13.151  0.00  0.00    +0.038 A 
ATOM     33  C   UNL     1       0.585   1.483 -12.871  0.00  0.00    +0.125 A 
ATOM     34  C   UNL     1      -0.247   2.300 -13.616  0.00  0.00    -0.029 A 
ATOM     35  C   UNL     1       0.275   3.065 -14.643  0.00  0.00    +0.004 A 
ATOM     36  F   UNL     1       0.075   0.730 -11.871  0.00  0.00    -0.205 F 
ENDBRANCH  29  34
ENDBRANCH  27  29
ENDBRANCH  21  24
ENDBRANCH   1  21
TORSDOF 5
