REMARK  Name = ZINC39634578
REMARK  12 active torsions:
REMARK  status: ('A' for Active; 'I' for Inactive)
REMARK    1  A    between atoms: C_1  and  O_2
REMARK    2  A    between atoms: O_2  and  C_3
REMARK    3  A    between atoms: C_6  and  C_11
REMARK    4  A    between atoms: C_8  and  O_9
REMARK    5  A    between atoms: O_9  and  C_10
REMARK    6  A    between atoms: C_11  and  C_12
REMARK    7  A    between atoms: C_12  and  N_13
REMARK    8  A    between atoms: C_14  and  C_16
REMARK    9  A    between atoms: C_27  and  C_29
REMARK   10  A    between atoms: C_29  and  C_30
REMARK   11  A    between atoms: C_30  and  S_31
REMARK   12  A    between atoms: S_31  and  C_32
REMARK                            x       y       z     vdW  Elec       q    Type
REMARK                         _______ _______ _______ _____ _____    ______ ____
ROOT
ATOM      1  C   UNL     1       6.625  -4.323  -6.337  0.00  0.00    +0.100 C 
ATOM      2  C   UNL     1       6.460  -3.462  -7.609  0.00  0.00    +0.121 C 
ATOM      3  N   UNL     1       7.699  -2.654  -7.679  0.00  0.00    -0.300 N 
ATOM      4  C   UNL     1       8.772  -3.586  -7.256  0.00  0.00    +0.115 C 
ATOM      5  C   UNL     1       8.145  -4.405  -6.111  0.00  0.00    -0.004 C 
ATOM      6  C   UNL     1       8.612  -5.855  -6.181  0.00  0.00    -0.010 C 
ATOM      7  C   UNL     1      10.115  -5.917  -5.895  0.00  0.00    -0.082 C 
ATOM      8  N   UNL     1      10.385  -5.358  -4.565  0.00  0.00    +0.379 N 
ATOM      9  C   UNL     1      10.019  -3.937  -4.534  0.00  0.00    -0.082 C 
ATOM     10  C   UNL     1       8.512  -3.792  -4.763  0.00  0.00    -0.010 C 
ATOM     11  C   UNL     1       7.824  -1.362  -8.044  0.00  0.00    +0.216 C 
ATOM     12  O   UNL     1       8.916  -0.836  -8.050  0.00  0.00    -0.276 OA
ATOM     13  H   UNL     1       9.845  -5.859  -3.875  0.00  0.00    -0.086 HD
ATOM     14  H   UNL     1      11.367  -5.456  -4.354  0.00  0.00    -0.086 HD
ENDROOT
BRANCH   1  16
ATOM     15  N   UNL     1       5.474  -4.405  -4.149  0.00  0.00    -0.315 N 
ATOM     16  C   UNL     1       5.955  -3.658  -5.162  0.00  0.00    +0.218 C 
ATOM     17  O   UNL     1       5.849  -2.450  -5.129  0.00  0.00    -0.275 OA
ATOM     18  H   UNL     1       5.559  -5.371  -4.176  0.00  0.00    +0.149 HD
BRANCH  15  19
ATOM     19  C   UNL     1       4.822  -3.758  -3.008  0.00  0.00    +0.109 C 
BRANCH  19  20
ATOM     20  C   UNL     1       4.371  -4.824  -2.007  0.00  0.00    +0.054 C 
BRANCH  20  24
ATOM     21  C   UNL     1       2.463  -2.937   1.323  0.00  0.00    +0.161 A 
ATOM     22  C   UNL     1       1.717  -3.322   0.221  0.00  0.00    +0.049 A 
ATOM     23  C   UNL     1       2.337  -3.932  -0.854  0.00  0.00    +0.007 A 
ATOM     24  C   UNL     1       3.700  -4.159  -0.833  0.00  0.00    -0.042 A 
ATOM     25  C   UNL     1       4.450  -3.777   0.264  0.00  0.00    +0.053 A 
ATOM     26  C   UNL     1       3.837  -3.160   1.343  0.00  0.00    +0.162 A 
BRANCH  21  28
ATOM     27  C   UNL     1       0.443  -2.140   2.292  0.00  0.00    +0.277 C 
ATOM     28  O   UNL     1       1.855  -2.337   2.381  0.00  0.00    -0.491 OA
ENDBRANCH  21  28
BRANCH  26  29
ATOM     29  O   UNL     1       4.574  -2.779   2.420  0.00  0.00    -0.491 OA
ATOM     30  C   UNL     1       5.978  -3.040   2.370  0.00  0.00    +0.277 C 
ENDBRANCH  26  29
ENDBRANCH  20  24
ENDBRANCH  19  20
ENDBRANCH  15  19
ENDBRANCH   1  16
BRANCH  11  31
ATOM     31  C   UNL     1       6.605  -0.572  -8.444  0.00  0.00    +0.106 C 
BRANCH  31  32
ATOM     32  C   UNL     1       7.020   0.855  -8.809  0.00  0.00    +0.078 C 
BRANCH  32  33
ATOM     33  S   UNL     1       5.553   1.807  -9.291  0.00  0.00    -0.164 S 
ATOM     34  C   UNL     1       6.207   3.451  -9.688  0.00  0.00    +0.084 C 
ENDBRANCH  32  33
ENDBRANCH  31  32
ENDBRANCH  11  31
TORSDOF 9
