REMARK  Name = ZINC40061458
REMARK  7 active torsions:
REMARK  status: ('A' for Active; 'I' for Inactive)
REMARK    1  A    between atoms: C_7  and  C_10
REMARK    2  A    between atoms: C_13  and  S_23
REMARK    3  A    between atoms: N_15  and  C_16
REMARK    4  A    between atoms: C_16  and  C_17
REMARK    5  A    between atoms: S_23  and  C_24
REMARK    6  A    between atoms: C_24  and  C_25
REMARK    7  A    between atoms: N_27  and  C_28
REMARK                            x       y       z     vdW  Elec       q    Type
REMARK                         _______ _______ _______ _____ _____    ______ ____
ROOT
ATOM      1  C   UNL     1       0.531  -3.441  -0.091  0.00  0.00    +0.147 C 
ATOM      2  N   UNL     1      -0.743  -3.232   0.114  0.00  0.00    -0.169 NA
ATOM      3  N   UNL     1      -1.452  -4.437   0.180  0.00  0.00    -0.237 N 
ATOM      4  C   UNL     1      -0.466  -5.513  -0.012  0.00  0.00    +0.237 C 
ATOM      5  N   UNL     1       0.813  -4.806  -0.190  0.00  0.00    -0.283 N 
ATOM      6  H   UNL     1      -2.405  -4.542   0.324  0.00  0.00    +0.171 HD
ENDROOT
BRANCH   1  13
ATOM      7  C   UNL     1       0.166   1.080  -0.189  0.00  0.00    +0.001 A 
ATOM      8  C   UNL     1       1.392   1.737  -0.313  0.00  0.00    +0.002 A 
ATOM      9  C   UNL     1       2.563   1.058  -0.395  0.00  0.00    +0.026 A 
ATOM     10  C   UNL     1       2.559  -0.360  -0.354  0.00  0.00    +0.043 A 
ATOM     11  N   UNL     1       3.543  -1.237  -0.414  0.00  0.00    -0.380 N 
ATOM     12  C   UNL     1       2.990  -2.592  -0.328  0.00  0.00    +0.152 C 
ATOM     13  C   UNL     1       1.491  -2.424  -0.203  0.00  0.00    +0.022 C 
ATOM     14  C   UNL     1       1.265  -1.048  -0.223  0.00  0.00    +0.006 A 
ATOM     15  C   UNL     1       0.087  -0.275  -0.143  0.00  0.00    +0.010 A 
ATOM     16  H   UNL     1       4.484  -1.019  -0.502  0.00  0.00    +0.160 HD
ENDBRANCH   1  13
BRANCH   5  17
ATOM     17  C   UNL     1       2.125  -5.414  -0.424  0.00  0.00    +0.140 C 
BRANCH  17  18
ATOM     18  C   UNL     1       2.402  -5.467  -1.927  0.00  0.00    +0.136 C 
ATOM     19  C   UNL     1       3.727  -6.221  -2.204  0.00  0.00    +0.035 C 
ATOM     20  C   UNL     1       3.489  -6.714  -3.657  0.00  0.00    +0.031 C 
ATOM     21  C   UNL     1       1.969  -6.989  -3.665  0.00  0.00    +0.160 C 
ATOM     22  O   UNL     1       1.386  -6.232  -2.595  0.00  0.00    -0.375 OA
ENDBRANCH  17  18
ENDBRANCH   5  17
BRANCH   4  23
ATOM     23  S   UNL     1      -0.409  -6.589   1.448  0.00  0.00    -0.109 S 
BRANCH  23  24
ATOM     24  C   UNL     1       0.026  -5.465   2.804  0.00  0.00    +0.168 C 
BRANCH  24  25
ATOM     25  C   UNL     1       0.108  -6.242   4.093  0.00  0.00    +0.227 C 
ATOM     26  O   UNL     1      -0.106  -7.436   4.096  0.00  0.00    -0.275 OA
ATOM     27  N   UNL     1       0.419  -5.610   5.242  0.00  0.00    -0.285 N 
ATOM     28  H   UNL     1       0.648  -4.667   5.230  0.00  0.00    +0.155 HD
BRANCH  27  29
ATOM     29  C   UNL     1       0.412  -6.314   6.453  0.00  0.00    +0.037 A 
ATOM     30  C   UNL     1      -0.000  -5.685   7.620  0.00  0.00    +0.027 A 
ATOM     31  C   UNL     1      -0.007  -6.379   8.814  0.00  0.00    +0.051 A 
ATOM     32  C   UNL     1       0.397  -7.705   8.852  0.00  0.00    +0.162 A 
ATOM     33  C   UNL     1       0.808  -8.338   7.685  0.00  0.00    +0.164 A 
ATOM     34  C   UNL     1       0.811  -7.643   6.486  0.00  0.00    +0.072 A 
ATOM     35  O   UNL     1       1.201  -9.642   7.701  0.00  0.00    -0.485 OA
ATOM     36  C   UNL     1       1.534 -10.198   8.977  0.00  0.00    +0.270 C 
ATOM     37  C   UNL     1       0.439  -9.801   9.976  0.00  0.00    +0.270 C 
ATOM     38  O   UNL     1       0.388  -8.372  10.040  0.00  0.00    -0.485 OA
ENDBRANCH  27  29
ENDBRANCH  24  25
ENDBRANCH  23  24
ENDBRANCH   4  23
TORSDOF 7
