REMARK  Name = ZINC42104352
REMARK  6 active torsions:
REMARK  status: ('A' for Active; 'I' for Inactive)
REMARK    1  A    between atoms: C_1  and  C_2
REMARK    2  A    between atoms: C_2  and  C_3
REMARK    3  A    between atoms: C_9  and  N_14
REMARK    4  A    between atoms: N_14  and  C_15
REMARK    5  A    between atoms: C_16  and  C_22
REMARK    6  A    between atoms: C_20  and  C_21
REMARK                            x       y       z     vdW  Elec       q    Type
REMARK                         _______ _______ _______ _____ _____    ______ ____
ROOT
ATOM      1  C   UNL     1       3.231   1.759   0.796  0.00  0.00    -0.047 A 
ATOM      2  C   UNL     1       1.940   2.074   0.412  0.00  0.00    +0.005 A 
ATOM      3  C   UNL     1       1.382   1.487  -0.705  0.00  0.00    +0.024 A 
ATOM      4  C   UNL     1       2.117   0.570  -1.455  0.00  0.00    +0.039 A 
ATOM      5  C   UNL     1       3.413   0.263  -1.058  0.00  0.00    +0.003 A 
ATOM      6  C   UNL     1       3.969   0.854   0.054  0.00  0.00    +0.011 A 
ATOM      7  C   UNL     1       3.935  -0.744  -2.057  0.00  0.00    +0.190 C 
ATOM      8  C   UNL     1       2.785  -0.936  -3.022  0.00  0.00    +0.242 C 
ATOM      9  O   UNL     1       2.771  -1.666  -3.991  0.00  0.00    -0.273 OA
ATOM     10  N   UNL     1       1.781  -0.146  -2.604  0.00  0.00    -0.283 N 
ATOM     11  H   UNL     1       0.922  -0.081  -3.050  0.00  0.00    +0.155 HD
ENDROOT
BRANCH   1  13
ATOM     12  C   UNL     1       4.538   3.701   1.613  0.00  0.00    +0.009 C 
ATOM     13  C   UNL     1       3.834   2.404   2.017  0.00  0.00    +0.032 C 
ENDBRANCH   1  13
BRANCH   7  14
ATOM     14  N   UNL     1       5.109  -0.213  -2.754  0.00  0.00    -0.327 N 
ATOM     15  H   UNL     1       5.001   0.268  -3.590  0.00  0.00    +0.147 HD
BRANCH  14  16
ATOM     16  C   UNL     1       6.395  -0.401  -2.211  0.00  0.00    +0.072 A 
ATOM     17  C   UNL     1       7.150   0.547  -1.599  0.00  0.00    +0.054 A 
ATOM     18  N   UNL     1       8.317  -0.040  -1.221  0.00  0.00    -0.280 N 
ATOM     19  H   UNL     1       9.051   0.394  -0.760  0.00  0.00    +0.189 HD
ATOM     20  N   UNL     1       8.269  -1.384  -1.615  0.00  0.00    -0.177 NA
ATOM     21  C   UNL     1       7.120  -1.601  -2.202  0.00  0.00    +0.081 A 
ATOM     22  C   UNL     1       6.655  -2.916  -2.773  0.00  0.00    +0.069 C 
ATOM     23  C   UNL     1       6.766   1.987  -1.379  0.00  0.00    +0.067 C 
ENDBRANCH  14  16
ENDBRANCH   7  14
TORSDOF 3
