REMARK  Name = ZINC06197926
REMARK  14 active torsions:
REMARK  status: ('A' for Active; 'I' for Inactive)
REMARK    1  A    between atoms: C_1  and  C_2
REMARK    2  A    between atoms: C_2  and  C_3
REMARK    3  A    between atoms: C_10  and  C_15
REMARK    4  A    between atoms: C_15  and  C_17
REMARK    5  A    between atoms: C_15  and  N_73
REMARK    6  A    between atoms: N_21  and  C_22
REMARK    7  A    between atoms: C_22  and  C_23
REMARK    8  A    between atoms: C_22  and  C_24
REMARK    9  A    between atoms: C_22  and  C_25
REMARK   10  A    between atoms: C_25  and  C_26
REMARK   11  A    between atoms: C_27  and  C_28
REMARK   12  A    between atoms: C_27  and  N_73
REMARK   13  A    between atoms: C_33  and  C_34
REMARK   14  A    between atoms: C_33  and  N_73
REMARK                            x       y       z     vdW  Elec       q    Type
REMARK                         _______ _______ _______ _____ _____    ______ ____
ROOT
ATOM      1  C   UNL     1      -3.006  -0.310   1.438  0.00  0.00    +0.039 C 
ENDROOT
BRANCH   1   9
ATOM      2  C   UNL     1      -8.915  -0.334  -0.397  0.00  0.00    -0.047 A 
ATOM      3  C   UNL     1      -8.675  -0.789  -1.686  0.00  0.00    +0.005 A 
ATOM      4  C   UNL     1      -7.392  -1.059  -2.110  0.00  0.00    +0.026 A 
ATOM      5  C   UNL     1      -6.324  -0.874  -1.238  0.00  0.00    +0.049 A 
ATOM      6  C   UNL     1      -6.571  -0.412   0.068  0.00  0.00    -0.001 A 
ATOM      7  C   UNL     1      -7.882  -0.145   0.477  0.00  0.00    +0.013 A 
ATOM      8  C   UNL     1      -5.440  -0.225   0.980  0.00  0.00    +0.017 A 
ATOM      9  C   UNL     1      -4.191  -0.496   0.527  0.00  0.00    +0.011 A 
ATOM     10  C   UNL     1      -3.998  -0.957  -0.793  0.00  0.00    +0.251 A 
ATOM     11  O   UNL     1      -2.867  -1.199  -1.178  0.00  0.00    -0.268 OA
ATOM     12  N   UNL     1      -5.030  -1.136  -1.636  0.00  0.00    -0.322 N 
ATOM     13  H   UNL     1      -4.857  -1.464  -2.564  0.00  0.00    +0.169 HD
BRANCH   2  15
ATOM     14  C   UNL     1     -10.941  -1.311   0.648  0.00  0.00    +0.009 C 
ATOM     15  C   UNL     1     -10.327  -0.046   0.044  0.00  0.00    +0.032 C 
ENDBRANCH   2  15
ENDBRANCH   1   9
BRANCH   1  16
ATOM     16  C   UNL     1      -2.325  -1.638   1.655  0.00  0.00    +0.143 A 
ATOM     17  N   UNL     1      -1.526  -2.253   0.817  0.00  0.00    -0.115 NA
ATOM     18  N   UNL     1      -1.148  -3.356   1.365  0.00  0.00    -0.023 NA
ATOM     19  N   UNL     1      -1.691  -3.464   2.528  0.00  0.00    -0.043 NA
ATOM     20  N   UNL     1      -2.424  -2.424   2.743  0.00  0.00    -0.225 N 
BRANCH  20  21
ATOM     21  C   UNL     1      -3.215  -2.150   3.945  0.00  0.00    +0.061 C 
ATOM     22  C   UNL     1      -2.630  -0.940   4.676  0.00  0.00    +0.036 C 
ATOM     23  C   UNL     1      -4.663  -1.855   3.547  0.00  0.00    +0.036 C 
BRANCH  21  24
ATOM     24  C   UNL     1      -3.179  -3.369   4.868  0.00  0.00    +0.026 C 
ATOM     25  C   UNL     1      -4.005  -3.084   6.124  0.00  0.00    +0.006 C 
ENDBRANCH  21  24
ENDBRANCH  20  21
ENDBRANCH   1  16
BRANCH   1  26
ATOM     26  N   UNL     1      -2.045   0.617   0.804  0.00  0.00    +0.394 N 
ATOM     27  H   UNL     1      -1.549   0.122   0.054  0.00  0.00    -0.080 HD
BRANCH  26  28
ATOM     28  C   UNL     1      -1.061   1.086   1.802  0.00  0.00    -0.034 C 
BRANCH  28  29
ATOM     29  C   UNL     1      -0.026   0.009   2.002  0.00  0.00    -0.027 A 
ATOM     30  C   UNL     1       1.059  -0.283   1.245  0.00  0.00    +0.009 A 
ATOM     31  C   UNL     1       1.882  -1.327   1.627  0.00  0.00    +0.008 A 
ATOM     32  C   UNL     1       1.572  -2.034   2.741  0.00  0.00    +0.045 A 
ATOM     33  S   UNL     1       0.083  -1.219   3.294  0.00  0.00    -0.103 S 
ENDBRANCH  28  29
ENDBRANCH  26  28
BRANCH  26  34
ATOM     34  C   UNL     1      -2.765   1.770   0.224  0.00  0.00    -0.045 C 
BRANCH  34  35
ATOM     35  C   UNL     1      -1.784   2.593  -0.614  0.00  0.00    +0.102 C 
ATOM     36  C   UNL     1      -2.474   3.865  -1.154  0.00  0.00    +0.032 C 
ATOM     37  C   UNL     1      -1.882   4.042  -2.570  0.00  0.00    +0.030 C 
ATOM     38  C   UNL     1      -0.904   2.855  -2.718  0.00  0.00    +0.160 C 
ATOM     39  O   UNL     1      -1.390   1.858  -1.793  0.00  0.00    -0.378 OA
ENDBRANCH  34  35
ENDBRANCH  26  34
ENDBRANCH   1  26
TORSDOF 10
