REMARK  Name = ZINC05587562
REMARK  3 active torsions:
REMARK  status: ('A' for Active; 'I' for Inactive)
REMARK    1  A    between atoms: C_1  and  C_2
REMARK    2  A    between atoms: C_4  and  N_26
REMARK    3  A    between atoms: C_9  and  C_18
REMARK                            x       y       z     vdW  Elec       q    Type
REMARK                         _______ _______ _______ _____ _____    ______ ____
ROOT
ATOM      1  C   UNL     1      -4.359   1.471   1.923  0.00  0.00    +0.046 C 
ATOM      2  C   UNL     1      -4.698   0.395   0.924  0.00  0.00    -0.027 A 
ATOM      3  C   UNL     1      -6.018   0.115   0.647  0.00  0.00    +0.038 A 
ATOM      4  C   UNL     1      -6.344  -0.868  -0.268  0.00  0.00    +0.127 A 
ATOM      5  C   UNL     1      -5.338  -1.575  -0.899  0.00  0.00    +0.038 A 
ATOM      6  C   UNL     1      -4.015  -1.308  -0.622  0.00  0.00    -0.017 A 
ATOM      7  C   UNL     1      -3.670  -0.307   0.291  0.00  0.00    +0.034 A 
ATOM      8  N   UNL     1      -2.360   0.042   0.610  0.00  0.00    -0.336 N 
ATOM      9  C   UNL     1      -1.293  -0.775   0.010  0.00  0.00    +0.106 C 
ATOM     10  C   UNL     1      -1.717  -1.087  -1.409  0.00  0.00    +0.029 C 
ATOM     11  C   UNL     1      -2.917  -2.072  -1.255  0.00  0.00    +0.049 C 
ATOM     12  C   UNL     1      -3.037  -2.670  -2.608  0.00  0.00    -0.023 C 
ATOM     13  C   UNL     1      -1.839  -2.659  -3.182  0.00  0.00    -0.030 C 
ATOM     14  C   UNL     1      -0.818  -2.005  -2.246  0.00  0.00    +0.033 C 
ATOM     15  H   UNL     1      -2.239   0.119   1.609  0.00  0.00    +0.147 HD
ENDROOT
BRANCH   9  16
ATOM     16  C   UNL     1       0.002  -0.004   0.002  0.00  0.00    -0.009 A 
ATOM     17  C   UNL     1       0.453   0.577  -1.169  0.00  0.00    +0.008 A 
ATOM     18  C   UNL     1       1.641   1.284  -1.177  0.00  0.00    +0.020 A 
ATOM     19  C   UNL     1       2.378   1.411  -0.013  0.00  0.00    +0.042 A 
ATOM     20  C   UNL     1       1.928   0.830   1.158  0.00  0.00    +0.040 A 
ATOM     21  C   UNL     1       0.739   0.122   1.166  0.00  0.00    +0.047 A 
ATOM     22 CL   UNL     1       0.173  -0.608   2.636  0.00  0.00    -0.083 Cl
ATOM     23 CL   UNL     1       3.870   2.299  -0.024  0.00  0.00    -0.083 Cl
ENDBRANCH   9  16
BRANCH   4  24
ATOM     24  N   UNL     1      -7.763  -1.162  -0.571  0.00  0.00    +0.056 N 
ATOM     25  O   UNL     1      -8.647  -0.536  -0.013  0.00  0.00    -0.126 OA
ATOM     26  O   UNL     1      -8.047  -2.029  -1.378  0.00  0.00    -0.126 OA
ENDBRANCH   4  24
TORSDOF 2
