REMARK  Name = ZINC36105304
REMARK  12 active torsions:
REMARK  status: ('A' for Active; 'I' for Inactive)
REMARK    1  A    between atoms: C_1  and  C_2
REMARK    2  A    between atoms: C_2  and  C_3
REMARK    3  A    between atoms: C_3  and  C_5
REMARK    4  A    between atoms: C_3  and  N_6
REMARK    5  A    between atoms: N_6  and  C_7
REMARK    6  A    between atoms: C_7  and  C_8
REMARK    7  A    between atoms: C_11  and  C_13
REMARK    8  A    between atoms: C_13  and  O_14
REMARK    9  A    between atoms: O_14  and  C_15
REMARK   10  A    between atoms: C_17  and  C_22
REMARK   11  A    between atoms: C_19  and  C_21
REMARK   12  A    between atoms: C_23  and  C_25
REMARK                            x       y       z     vdW  Elec       q    Type
REMARK                         _______ _______ _______ _____ _____    ______ ____
ROOT
ATOM      1  C   UNL     1       2.676   2.173  -1.034  0.00  0.00    +0.066 A 
ATOM      2  C   UNL     1       3.621   2.647  -0.182  0.00  0.00    +0.072 A 
ATOM      3  S   UNL     1       2.906   4.223   0.258  0.00  0.00    -0.077 S 
ATOM      4  C   UNL     1       1.508   4.110  -0.673  0.00  0.00    +0.116 A 
ATOM      5  N   UNL     1       1.631   2.944  -1.257  0.00  0.00    -0.244 NA
ENDROOT
BRANCH   1   6
ATOM      6  C   UNL     1       2.819   0.828  -1.700  0.00  0.00    +0.163 C 
BRANCH   6   7
ATOM      7  N   UNL     1       2.101  -0.182  -0.919  0.00  0.00    -0.293 N 
ATOM      8  C   UNL     1       2.736  -0.852   0.063  0.00  0.00    +0.219 C 
ATOM      9  O   UNL     1       3.874  -0.558   0.360  0.00  0.00    -0.275 OA
BRANCH   8  10
ATOM     10  C   UNL     1       2.031  -1.968   0.791  0.00  0.00    +0.075 C 
ATOM     11  C   UNL     1       1.739  -1.766   2.279  0.00  0.00    +0.013 C 
ATOM     12  C   UNL     1       2.831  -2.743   1.839  0.00  0.00    +0.013 C 
ENDBRANCH   8  10
BRANCH   7  13
ATOM     13  C   UNL     1       0.692  -0.464  -1.206  0.00  0.00    +0.073 C 
ATOM     14  C   UNL     1      -0.111   0.837  -1.142  0.00  0.00    +0.028 C 
BRANCH  13  16
ATOM     15  C   UNL     1       1.266  -2.432  -2.633  0.00  0.00    +0.005 C 
ATOM     16  C   UNL     1       0.568  -1.071  -2.605  0.00  0.00    +0.019 C 
ENDBRANCH  13  16
ENDBRANCH   7  13
ENDBRANCH   6   7
ENDBRANCH   1   6
BRANCH   4  17
ATOM     17  C   UNL     1       0.389   5.111  -0.806  0.00  0.00    +0.291 C 
BRANCH  17  18
ATOM     18  O   UNL     1      -0.606   4.848   0.185  0.00  0.00    -0.485 OA
BRANCH  18  19
ATOM     19  C   UNL     1      -1.691   5.665   0.203  0.00  0.00    +0.122 A 
ATOM     20  C   UNL     1      -1.799   6.696  -0.720  0.00  0.00    +0.049 A 
ATOM     21  C   UNL     1      -2.904   7.526  -0.701  0.00  0.00    -0.047 A 
ATOM     22  C   UNL     1      -3.901   7.330   0.237  0.00  0.00    +0.007 A 
ATOM     23  C   UNL     1      -3.795   6.304   1.158  0.00  0.00    -0.047 A 
ATOM     24  C   UNL     1      -2.696   5.467   1.139  0.00  0.00    +0.049 A 
ATOM     25  C   UNL     1      -4.883   6.093   2.179  0.00  0.00    +0.044 C 
ATOM     26  C   UNL     1      -3.022   8.645  -1.702  0.00  0.00    +0.044 C 
ENDBRANCH  18  19
ENDBRANCH  17  18
ENDBRANCH   4  17
TORSDOF 8
