REMARK  Name = ZINC66607033
REMARK  11 active torsions:
REMARK  status: ('A' for Active; 'I' for Inactive)
REMARK    1  A    between atoms: C_1  and  C_2
REMARK    2  A    between atoms: C_2  and  C_3
REMARK    3  A    between atoms: C_2  and  O_4
REMARK    4  A    between atoms: O_4  and  C_5
REMARK    5  A    between atoms: C_5  and  C_6
REMARK    6  A    between atoms: C_6  and  O_7
REMARK    7  A    between atoms: O_7  and  C_8
REMARK    8  A    between atoms: C_8  and  C_10
REMARK    9  A    between atoms: C_10  and  C_11
REMARK   10  A    between atoms: C_14  and  C_16
REMARK   11  A    between atoms: C_19  and  C_22
REMARK                            x       y       z     vdW  Elec       q    Type
REMARK                         _______ _______ _______ _____ _____    ______ ____
ROOT
ATOM      1  C   UNL     1       3.539   0.067  -6.907  0.00  0.00    +0.060 A 
ATOM      2  C   UNL     1       2.816   0.022  -8.058  0.00  0.00    +0.071 A 
ATOM      3  S   UNL     1       4.014  -0.701  -9.171  0.00  0.00    -0.075 S 
ATOM      4  C   UNL     1       5.343  -0.863  -7.986  0.00  0.00    +0.109 A 
ATOM      5  N   UNL     1       4.777  -0.367  -6.895  0.00  0.00    -0.243 NA
ENDROOT
BRANCH   4   6
ATOM      6  C   UNL     1       6.707  -1.402  -8.174  0.00  0.00    +0.007 A 
ATOM      7  C   UNL     1       7.598  -1.444  -7.100  0.00  0.00    +0.011 A 
ATOM      8  C   UNL     1       8.870  -1.947  -7.282  0.00  0.00    +0.013 A 
ATOM      9  C   UNL     1       9.263  -2.409  -8.525  0.00  0.00    +0.055 A 
ATOM     10  C   UNL     1       8.385  -2.370  -9.594  0.00  0.00    +0.013 A 
ATOM     11  C   UNL     1       7.108  -1.875  -9.424  0.00  0.00    +0.011 A 
BRANCH   9  12
ATOM     12  C   UNL     1      10.653  -2.957  -8.716  0.00  0.00    +0.417 C 
ATOM     13  F   UNL     1      10.651  -4.333  -8.464  0.00  0.00    -0.166 F 
ATOM     14  F   UNL     1      11.069  -2.725 -10.032  0.00  0.00    -0.166 F 
ATOM     15  F   UNL     1      11.531  -2.322  -7.831  0.00  0.00    -0.166 F 
ENDBRANCH   9  12
ENDBRANCH   4   6
BRANCH   1  16
ATOM     16  C   UNL     1       2.921   0.620  -5.649  0.00  0.00    +0.176 C 
BRANCH  16  17
ATOM     17  C   UNL     1       3.033  -0.399  -4.544  0.00  0.00    +0.313 C 
ATOM     18  O   UNL     1       3.561  -1.464  -4.756  0.00  0.00    -0.250 OA
BRANCH  17  19
ATOM     19  O   UNL     1       2.547  -0.122  -3.324  0.00  0.00    -0.462 OA
BRANCH  19  20
ATOM     20  C   UNL     1       2.688  -1.133  -2.324  0.00  0.00    +0.260 C 
BRANCH  20  21
ATOM     21  C   UNL     1       2.080  -0.640  -1.010  0.00  0.00    +0.201 C 
BRANCH  21  22
ATOM     22  O   UNL     1       0.671  -0.465  -1.174  0.00  0.00    -0.374 OA
BRANCH  22  24
ATOM     23  C   UNL     1      -0.019   1.526   0.010  0.00  0.00    +0.037 C 
ATOM     24  C   UNL     1       0.002  -0.004   0.002  0.00  0.00    +0.112 C 
ATOM     25  C   UNL     1      -1.433  -0.534   0.013  0.00  0.00    +0.037 C 
ENDBRANCH  22  24
ENDBRANCH  21  22
ENDBRANCH  20  21
ENDBRANCH  19  20
ENDBRANCH  17  19
ENDBRANCH  16  17
ENDBRANCH   1  16
TORSDOF 9
