REMARK  Name = ZINC40811439
REMARK  6 active torsions:
REMARK  status: ('A' for Active; 'I' for Inactive)
REMARK    1  A    between atoms: C_1  and  C_2
REMARK    2  A    between atoms: C_7  and  C_8
REMARK    3  A    between atoms: N_10  and  N_11
REMARK    4  A    between atoms: C_18  and  C_31
REMARK    5  A    between atoms: C_19  and  C_21
REMARK    6  A    between atoms: C_28  and  C_30
REMARK                            x       y       z     vdW  Elec       q    Type
REMARK                         _______ _______ _______ _____ _____    ______ ____
ROOT
ATOM      1  N   UNL     1      -1.799   0.237   5.543  0.00  0.00    -0.184 NA
ATOM      2  C   UNL     1      -1.199  -0.448   6.468  0.00  0.00    +0.070 C 
ATOM      3  C   UNL     1      -1.067  -1.962   6.408  0.00  0.00    +0.058 C 
ATOM      4  C   UNL     1      -1.341  -2.525   7.806  0.00  0.00    +0.014 C 
ATOM      5  C   UNL     1      -0.273  -2.053   8.797  0.00  0.00    +0.075 C 
ATOM      6  C   UNL     1      -0.162  -0.551   8.736  0.00  0.00    +0.115 A 
ATOM      7  C   UNL     1      -0.588   0.189   7.657  0.00  0.00    +0.042 A 
ATOM      8  C   UNL     1      -0.330   1.536   7.940  0.00  0.00    +0.009 A 
ATOM      9  C   UNL     1       0.250   1.562   9.177  0.00  0.00    +0.193 A 
ATOM     10  O   UNL     1       0.335   0.290   9.640  0.00  0.00    -0.454 OA
ATOM     11  C   UNL     1      -0.630   2.719   7.057  0.00  0.00    +0.048 C 
ENDROOT
BRANCH   9  12
ATOM     12  C   UNL     1       0.695   2.764   9.890  0.00  0.00    +0.282 C 
ATOM     13  O   UNL     1       0.689   3.843   9.327  0.00  0.00    -0.267 OA
ATOM     14  N   UNL     1       1.110   2.675  11.169  0.00  0.00    -0.292 N 
ATOM     15  C   UNL     1       1.004   1.407  11.904  0.00  0.00    +0.108 C 
ATOM     16  C   UNL     1       0.248   1.657  13.212  0.00  0.00    +0.019 C 
ATOM     17  C   UNL     1       0.940   2.778  13.991  0.00  0.00    +0.003 C 
ATOM     18  C   UNL     1       0.915   4.066  13.164  0.00  0.00    +0.022 C 
ATOM     19  C   UNL     1       1.684   3.842  11.854  0.00  0.00    +0.073 C 
ATOM     20  C   UNL     1       1.551   5.077  10.960  0.00  0.00    +0.028 C 
ENDBRANCH   9  12
BRANCH   1  23
ATOM     21  C   UNL     1      -2.983   0.292   3.479  0.00  0.00    +0.264 C 
ATOM     22  O   UNL     1      -3.058   1.502   3.570  0.00  0.00    -0.268 OA
ATOM     23  N   UNL     1      -2.360  -0.419   4.440  0.00  0.00    -0.203 N 
ATOM     24  H   UNL     1      -2.300  -1.384   4.367  0.00  0.00    +0.178 HD
BRANCH  21  31
ATOM     25  C   UNL     1      -4.553   1.794   1.569  0.00  0.00    +0.044 C 
ATOM     26  C   UNL     1      -4.334   0.315   1.387  0.00  0.00    -0.038 A 
ATOM     27  C   UNL     1      -4.879  -0.336   0.299  0.00  0.00    +0.004 A 
ATOM     28  C   UNL     1      -4.679  -1.694   0.130  0.00  0.00    +0.000 A 
ATOM     29  C   UNL     1      -3.933  -2.410   1.050  0.00  0.00    +0.001 A 
ATOM     30  C   UNL     1      -3.383  -1.772   2.142  0.00  0.00    +0.013 A 
ATOM     31  C   UNL     1      -3.575  -0.400   2.315  0.00  0.00    +0.041 A 
ENDBRANCH  21  31
ENDBRANCH   1  23
TORSDOF 3
