REMARK  Name = ZINC13004606
REMARK  6 active torsions:
REMARK  status: ('A' for Active; 'I' for Inactive)
REMARK    1  A    between atoms: C_1  and  C_2
REMARK    2  A    between atoms: C_2  and  C_4
REMARK    3  A    between atoms: C_2  and  N_19
REMARK    4  A    between atoms: C_9  and  C_12
REMARK    5  A    between atoms: C_12  and  N_67
REMARK    6  A    between atoms: C_20  and  C_22
REMARK                            x       y       z     vdW  Elec       q    Type
REMARK                         _______ _______ _______ _____ _____    ______ ____
ROOT
ATOM      1  C   UNL     1       1.396   1.982  -0.001  0.00  0.00    +0.239 C 
ATOM      2  O   UNL     1       2.328   1.207  -0.014  0.00  0.00    -0.273 OA
ATOM      3  N   UNL     1       1.624   3.311   0.004  0.00  0.00    -0.263 N 
ATOM      4  C   UNL     1       2.928   3.792  -0.005  0.00  0.00    +0.165 A 
ATOM      5  N   UNL     1       3.351   5.041  -0.008  0.00  0.00    -0.231 NA
ATOM      6  C   UNL     1       4.638   5.327  -0.013  0.00  0.00    +0.034 A 
ATOM      7  C   UNL     1       5.527   4.304  -0.028  0.00  0.00    +0.070 A 
ATOM      8  S   UNL     1       4.419   2.902  -0.025  0.00  0.00    -0.060 S 
ATOM      9  H   UNL     1       0.879   3.931   0.015  0.00  0.00    +0.157 HD
ENDROOT
BRANCH   1  11
ATOM     10  C   UNL     1      -0.734   1.954   1.269  0.00  0.00    +0.038 C 
ATOM     11  C   UNL     1      -0.018   1.461   0.010  0.00  0.00    +0.156 C 
BRANCH  11  12
ATOM     12  N   UNL     1       0.002  -0.004   0.002  0.00  0.00    -0.304 N 
ATOM     13  C   UNL     1      -1.051  -0.690  -0.485  0.00  0.00    +0.220 C 
ATOM     14  O   UNL     1      -2.015  -0.094  -0.916  0.00  0.00    -0.275 OA
ATOM     15  H   UNL     1       0.773  -0.481   0.347  0.00  0.00    +0.149 HD
BRANCH  13  16
ATOM     16  C   UNL     1      -1.031  -2.196  -0.493  0.00  0.00    +0.048 C 
ATOM     17  C   UNL     1      -0.884  -2.712   0.940  0.00  0.00    +0.019 C 
ATOM     18  C   UNL     1      -0.864  -4.242   0.931  0.00  0.00    -0.009 C 
ATOM     19  C   UNL     1      -2.170  -4.767   0.331  0.00  0.00    +0.007 C 
ATOM     20  C   UNL     1      -2.316  -4.251  -1.102  0.00  0.00    -0.009 C 
ATOM     21  C   UNL     1      -2.337  -2.721  -1.093  0.00  0.00    +0.019 C 
ATOM     22  C   UNL     1      -1.136  -4.740  -1.943  0.00  0.00    +0.007 C 
ATOM     23  C   UNL     1       0.171  -4.216  -1.343  0.00  0.00    -0.009 C 
ATOM     24  C   UNL     1       0.317  -4.732   0.090  0.00  0.00    +0.007 C 
ATOM     25  C   UNL     1       0.150  -2.686  -1.335  0.00  0.00    +0.019 C 
ENDBRANCH  13  16
ENDBRANCH  11  12
ENDBRANCH   1  11
BRANCH   6  26
ATOM     26  C   UNL     1       5.109   6.759  -0.009  0.00  0.00    -0.022 C 
BRANCH  26  33
ATOM     27  C   UNL     1       6.073   6.490  -2.224  0.00  0.00    -0.078 C 
ATOM     28  C   UNL     1       6.339   7.134  -3.558  0.00  0.00    -0.019 C 
ATOM     29  C   UNL     1       7.608   8.004  -3.436  0.00  0.00    -0.002 C 
ATOM     30  C   UNL     1       7.341   9.280  -2.782  0.00  0.00    -0.002 C 
ATOM     31  C   UNL     1       6.818   9.099  -1.342  0.00  0.00    -0.019 C 
ATOM     32  C   UNL     1       5.360   8.732  -1.406  0.00  0.00    -0.078 C 
ATOM     33  N   UNL     1       5.082   7.255  -1.394  0.00  0.00    +0.383 N 
ATOM     34  H   UNL     1       4.144   7.100  -1.784  0.00  0.00    -0.081 HD
ENDBRANCH  26  33
ENDBRANCH   6  26
TORSDOF 5
