REMARK  Name = ZINC09042839
REMARK  12 active torsions:
REMARK  status: ('A' for Active; 'I' for Inactive)
REMARK    1  A    between atoms: C_1  and  C_2
REMARK    2  A    between atoms: C_5  and  N_9
REMARK    3  A    between atoms: C_6  and  C_8
REMARK    4  A    between atoms: C_10  and  C_12
REMARK    5  A    between atoms: C_12  and  S_13
REMARK    6  A    between atoms: S_13  and  C_14
REMARK    7  A    between atoms: C_15  and  C_37
REMARK    8  A    between atoms: C_16  and  C_32
REMARK    9  A    between atoms: C_18  and  C_22
REMARK   10  A    between atoms: C_19  and  C_21
REMARK   11  A    between atoms: N_24  and  C_25
REMARK   12  A    between atoms: C_30  and  C_31
REMARK                            x       y       z     vdW  Elec       q    Type
REMARK                         _______ _______ _______ _____ _____    ______ ____
ROOT
ATOM      1  C   UNL     1       8.777   2.231   0.365  0.00  0.00    +0.093 C 
ATOM      2  C   UNL     1      10.052   1.767   0.463  0.00  0.00    +0.161 C 
ATOM      3  C   UNL     1      11.220   2.709   0.546  0.00  0.00    +0.115 C 
ATOM      4  C   UNL     1      10.764   4.093   0.906  0.00  0.00    +0.048 C 
ATOM      5  C   UNL     1       9.476   4.464   0.802  0.00  0.00    +0.048 C 
ATOM      6  N   UNL     1       8.525   3.585   0.358  0.00  0.00    -0.248 NA
ATOM      7  C   UNL     1       9.073   5.869   1.167  0.00  0.00    +0.066 C 
ENDROOT
BRANCH   3   8
ATOM      8  C   UNL     1      11.925   2.749  -0.785  0.00  0.00    +0.114 A 
ATOM      9  C   UNL     1      13.203   2.394  -1.009  0.00  0.00    +0.045 A 
ATOM     10  C   UNL     1      13.446   2.586  -2.388  0.00  0.00    +0.041 A 
ATOM     11  C   UNL     1      12.304   3.055  -2.923  0.00  0.00    +0.195 A 
ATOM     12  O   UNL     1      11.387   3.152  -1.947  0.00  0.00    -0.467 OA
ENDBRANCH   3   8
BRANCH   4  13
ATOM     13  C   UNL     1      11.714   5.033   1.373  0.00  0.00    +0.247 C 
ATOM     14  O   UNL     1      11.362   6.160   1.669  0.00  0.00    -0.270 OA
ATOM     15  N   UNL     1      13.010   4.679   1.489  0.00  0.00    -0.281 N 
ATOM     16  H   UNL     1      13.303   3.805   1.189  0.00  0.00    +0.155 HD
BRANCH  15  17
ATOM     17  C   UNL     1      13.931   5.574   2.043  0.00  0.00    +0.037 A 
ATOM     18  C   UNL     1      13.797   6.938   1.821  0.00  0.00    +0.023 A 
ATOM     19  C   UNL     1      14.709   7.819   2.369  0.00  0.00    +0.002 A 
ATOM     20  C   UNL     1      15.754   7.343   3.139  0.00  0.00    +0.000 A 
ATOM     21  C   UNL     1      15.891   5.985   3.362  0.00  0.00    +0.005 A 
ATOM     22  C   UNL     1      14.979   5.100   2.821  0.00  0.00    -0.029 A 
ATOM     23  C   UNL     1      15.126   3.620   3.070  0.00  0.00    +0.045 C 
ENDBRANCH  15  17
ENDBRANCH   4  13
BRANCH   2  24
ATOM     24  C   UNL     1      10.286   0.355   0.482  0.00  0.00    +0.074 C 
ATOM     25  N   UNL     1      10.471  -0.766   0.498  0.00  0.00    -0.196 NA
ENDBRANCH   2  24
BRANCH   1  26
ATOM     26  S   UNL     1       7.439   1.092   0.246  0.00  0.00    -0.100 S 
BRANCH  26  27
ATOM     27  C   UNL     1       6.050   2.248   0.146  0.00  0.00    +0.171 C 
BRANCH  27  29
ATOM     28  N   UNL     1       3.587   2.133  -0.053  0.00  0.00    -0.285 N 
ATOM     29  C   UNL     1       4.760   1.476   0.035  0.00  0.00    +0.227 C 
ATOM     30  O   UNL     1       4.779   0.263   0.024  0.00  0.00    -0.275 OA
ATOM     31  H   UNL     1       3.577   3.100  -0.126  0.00  0.00    +0.155 HD
BRANCH  28  36
ATOM     32  C   UNL     1      -1.294  -0.759   0.003  0.00  0.00    +0.044 C 
ATOM     33  C   UNL     1       0.003   0.009  -0.012  0.00  0.00    -0.050 A 
ATOM     34  C   UNL     1       1.133  -0.534   0.571  0.00  0.00    +0.005 A 
ATOM     35  C   UNL     1       2.323   0.168   0.559  0.00  0.00    +0.024 A 
ATOM     36  C   UNL     1       2.383   1.420  -0.039  0.00  0.00    +0.036 A 
ATOM     37  C   UNL     1       1.246   1.962  -0.624  0.00  0.00    -0.029 A 
ATOM     38  C   UNL     1       0.059   1.255  -0.609  0.00  0.00    +0.008 A 
ATOM     39  C   UNL     1       1.308   3.319  -1.275  0.00  0.00    +0.045 C 
ENDBRANCH  28  36
ENDBRANCH  27  29
ENDBRANCH  26  27
ENDBRANCH   1  26
TORSDOF 8
