REMARK  Name = ZINC21082821
REMARK  8 active torsions:
REMARK  status: ('A' for Active; 'I' for Inactive)
REMARK    1  A    between atoms: C_1  and  C_2
REMARK    2  A    between atoms: C_2  and  C_23
REMARK    3  A    between atoms: N_3  and  N_4
REMARK    4  A    between atoms: C_7  and  S_10
REMARK    5  A    between atoms: S_10  and  C_11
REMARK    6  A    between atoms: C_11  and  C_12
REMARK    7  A    between atoms: C_12  and  C_13
REMARK    8  A    between atoms: N_15  and  C_16
REMARK                            x       y       z     vdW  Elec       q    Type
REMARK                         _______ _______ _______ _____ _____    ______ ____
ROOT
ATOM      1  N   UNL     1       1.758  -1.721  -0.083  0.00  0.00    -0.205 N 
ATOM      2  C   UNL     1       1.311  -0.407  -0.062  0.00  0.00    +0.232 A 
ATOM      3  N   UNL     1       0.005  -0.003  -0.048  0.00  0.00    -0.186 NA
ATOM      4  C   UNL     1      -0.014   1.363  -0.031  0.00  0.00    +0.210 A 
ATOM      5  N   UNL     1       1.228   1.785  -0.034  0.00  0.00    -0.144 NA
ATOM      6  N   UNL     1       2.067   0.664  -0.054  0.00  0.00    -0.245 N 
ATOM      7  H   UNL     1       1.033  -2.548  -0.088  0.00  0.00    +0.177 HD
ATOM      8  H   UNL     1       3.162   0.564  -0.063  0.00  0.00    +0.192 HD
ENDROOT
BRANCH   1  11
ATOM      9  C   UNL     1       2.557  -4.357  -0.122  0.00  0.00    +0.069 C 
ATOM     10  C   UNL     1       3.550  -3.223  -0.114  0.00  0.00    +0.081 C 
ATOM     11  N   UNL     1       3.132  -1.993  -0.096  0.00  0.00    -0.183 NA
BRANCH  10  12
ATOM     12  C   UNL     1       4.995  -3.510  -0.128  0.00  0.00    +0.086 A 
ATOM     13  C   UNL     1       5.912  -2.455  -0.126  0.00  0.00    +0.029 A 
ATOM     14  C   UNL     1       7.264  -2.741  -0.134  0.00  0.00    +0.004 A 
ATOM     15  C   UNL     1       7.661  -4.072  -0.154  0.00  0.00    +0.020 A 
ATOM     16  C   UNL     1       6.702  -5.067  -0.160  0.00  0.00    +0.111 A 
ATOM     17  N   UNL     1       5.418  -4.770  -0.147  0.00  0.00    -0.254 NA
ENDBRANCH  10  12
ENDBRANCH   1  11
BRANCH   4  18
ATOM     18  S   UNL     1      -1.454   2.378  -0.014  0.00  0.00    -0.084 S 
BRANCH  18  19
ATOM     19  C   UNL     1      -0.683   4.016   0.005  0.00  0.00    +0.086 C 
BRANCH  19  20
ATOM     20  C   UNL     1      -1.771   5.091   0.021  0.00  0.00    +0.107 C 
BRANCH  20  21
ATOM     21  C   UNL     1      -1.130   6.455   0.037  0.00  0.00    +0.218 C 
ATOM     22  O   UNL     1       0.079   6.556   0.035  0.00  0.00    -0.275 OA
ATOM     23  N   UNL     1      -1.899   7.561   0.052  0.00  0.00    -0.285 N 
ATOM     24  H   UNL     1      -2.993   7.472  -0.021  0.00  0.00    +0.155 HD
BRANCH  23  25
ATOM     25  C   UNL     1      -1.306   8.824   0.162  0.00  0.00    +0.047 A 
ATOM     26  C   UNL     1      -0.076   9.069  -0.434  0.00  0.00    +0.024 A 
ATOM     27  C   UNL     1       0.505  10.318  -0.327  0.00  0.00    +0.002 A 
ATOM     28  C   UNL     1      -0.132  11.321   0.380  0.00  0.00    +0.001 A 
ATOM     29  C   UNL     1      -1.355  11.080   0.979  0.00  0.00    +0.017 A 
ATOM     30  C   UNL     1      -1.944   9.834   0.872  0.00  0.00    +0.039 A 
ATOM     31 BR   UNL     1      -3.615   9.504   1.692  0.00  0.00    -0.048 Br
ENDBRANCH  23  25
ENDBRANCH  20  21
ENDBRANCH  19  20
ENDBRANCH  18  19
ENDBRANCH   4  18
TORSDOF 7
