REMARK  Name = ZINC34810792
REMARK  9 active torsions:
REMARK  status: ('A' for Active; 'I' for Inactive)
REMARK    1  A    between atoms: C_1  and  C_2
REMARK    2  A    between atoms: N_8  and  C_9
REMARK    3  A    between atoms: C_9  and  C_10
REMARK    4  A    between atoms: C_10  and  C_11
REMARK    5  A    between atoms: C_11  and  N_12
REMARK    6  A    between atoms: C_13  and  C_15
REMARK    7  A    between atoms: N_22  and  C_25
REMARK    8  A    between atoms: C_25  and  C_26
REMARK    9  A    between atoms: C_29  and  C_32
REMARK                            x       y       z     vdW  Elec       q    Type
REMARK                         _______ _______ _______ _____ _____    ______ ____
ROOT
ATOM      1  C   UNL     1       6.776  -0.088   5.291  0.00  0.00    +0.148 A 
ATOM      2  C   UNL     1       8.085   0.274   5.684  0.00  0.00    +0.067 A 
ATOM      3  C   UNL     1       8.265  -0.308   6.891  0.00  0.00    +0.124 A 
ATOM      4  N   UNL     1       7.106  -0.989   7.200  0.00  0.00    -0.257 N 
ATOM      5  N   UNL     1       6.263  -0.836   6.255  0.00  0.00    -0.166 NA
ATOM      6  C   UNL     1       6.980  -1.735   8.458  0.00  0.00    +0.163 C 
ATOM      7  C   UNL     1       8.355  -2.248   8.880  0.00  0.00    +0.132 C 
ATOM      8  N   UNL     1       9.385  -1.218   8.813  0.00  0.00    -0.290 N 
ATOM      9  C   UNL     1       9.415  -0.304   7.812  0.00  0.00    +0.265 C 
ATOM     10  O   UNL     1      10.340   0.475   7.682  0.00  0.00    -0.268 OA
ENDROOT
BRANCH   1  12
ATOM     11  N   UNL     1       4.842  -0.112   3.791  0.00  0.00    -0.310 N 
ATOM     12  C   UNL     1       6.101   0.302   4.036  0.00  0.00    +0.264 C 
ATOM     13  O   UNL     1       6.681   0.997   3.225  0.00  0.00    -0.268 OA
ATOM     14  H   UNL     1       4.379  -0.666   4.439  0.00  0.00    +0.149 HD
BRANCH  11  15
ATOM     15  C   UNL     1       4.173   0.276   2.547  0.00  0.00    +0.103 C 
BRANCH  15  16
ATOM     16  C   UNL     1       2.764  -0.321   2.518  0.00  0.00    +0.000 C 
BRANCH  16  17
ATOM     17  C   UNL     1       2.066   0.083   1.218  0.00  0.00    -0.077 C 
BRANCH  17  24
ATOM     18  C   UNL     1      -0.019   1.526   0.010  0.00  0.00    -0.013 C 
ATOM     19  C   UNL     1       0.002  -0.004   0.002  0.00  0.00    -0.072 C 
ATOM     20  C   UNL     1      -1.434  -0.533   0.011  0.00  0.00    -0.016 C 
ATOM     21  C   UNL     1      -1.408  -2.064   0.003  0.00  0.00    -0.003 C 
ATOM     22  C   UNL     1      -0.600  -2.558   1.206  0.00  0.00    -0.019 C 
ATOM     23  C   UNL     1       0.805  -1.954   1.152  0.00  0.00    -0.078 C 
ATOM     24  N   UNL     1       0.713  -0.490   1.191  0.00  0.00    +0.381 N 
ATOM     25  H   UNL     1       0.213  -0.206   2.020  0.00  0.00    -0.081 HD
ENDBRANCH  17  24
ENDBRANCH  16  17
ENDBRANCH  15  16
ENDBRANCH  11  15
ENDBRANCH   1  12
BRANCH   8  26
ATOM     26  C   UNL     1      10.414  -1.169   9.855  0.00  0.00    +0.143 C 
BRANCH  26  27
ATOM     27  C   UNL     1      11.586  -2.022   9.444  0.00  0.00    -0.030 A 
ATOM     28  C   UNL     1      11.622  -3.360   9.788  0.00  0.00    +0.006 A 
ATOM     29  C   UNL     1      12.698  -4.142   9.411  0.00  0.00    +0.013 A 
ATOM     30  C   UNL     1      13.737  -3.586   8.689  0.00  0.00    +0.055 A 
ATOM     31  C   UNL     1      13.701  -2.248   8.345  0.00  0.00    +0.013 A 
ATOM     32  C   UNL     1      12.623  -1.467   8.718  0.00  0.00    +0.006 A 
BRANCH  30  33
ATOM     33  C   UNL     1      14.911  -4.439   8.279  0.00  0.00    +0.417 C 
ATOM     34  F   UNL     1      14.657  -5.009   7.027  0.00  0.00    -0.166 F 
ATOM     35  F   UNL     1      16.060  -3.645   8.206  0.00  0.00    -0.166 F 
ATOM     36  F   UNL     1      15.103  -5.453   9.223  0.00  0.00    -0.166 F 
ENDBRANCH  30  33
ENDBRANCH  26  27
ENDBRANCH   8  26
TORSDOF 8
