REMARK  Name = ZINC20758404
REMARK  6 active torsions:
REMARK  status: ('A' for Active; 'I' for Inactive)
REMARK    1  A    between atoms: C_1  and  C_2
REMARK    2  A    between atoms: C_2  and  C_3
REMARK    3  A    between atoms: C_3  and  C_5
REMARK    4  A    between atoms: C_3  and  N_6
REMARK    5  A    between atoms: C_7  and  C_9
REMARK    6  A    between atoms: C_22  and  C_25
REMARK                            x       y       z     vdW  Elec       q    Type
REMARK                         _______ _______ _______ _____ _____    ______ ____
ROOT
ATOM      1  C   UNL     1      -2.208   4.062  -3.305  0.00  0.00    +0.037 A 
ATOM      2  C   UNL     1      -1.124   4.625  -3.985  0.00  0.00    +0.015 A 
ATOM      3  C   UNL     1       0.088   4.750  -3.346  0.00  0.00    +0.024 A 
ATOM      4  C   UNL     1       0.233   4.319  -2.029  0.00  0.00    +0.031 A 
ATOM      5  C   UNL     1      -0.836   3.757  -1.345  0.00  0.00    -0.019 A 
ATOM      6  C   UNL     1      -2.056   3.631  -1.986  0.00  0.00    +0.019 A 
ATOM      7  C   UNL     1      -0.733   3.272   0.075  0.00  0.00    +0.049 C 
ATOM      8  C   UNL     1      -1.079   1.789   0.090  0.00  0.00    -0.023 C 
ATOM      9  C   UNL     1       0.011   1.065   0.067  0.00  0.00    -0.030 C 
ATOM     10  C   UNL     1       1.240   1.956   0.029  0.00  0.00    +0.033 C 
ATOM     11  C   UNL     1       0.714   3.295   0.599  0.00  0.00    +0.029 C 
ATOM     12  C   UNL     1       1.503   4.468   0.050  0.00  0.00    +0.105 C 
ATOM     13  N   UNL     1       1.470   4.461  -1.403  0.00  0.00    -0.336 N 
ATOM     14  H   UNL     1       2.404   4.567  -1.975  0.00  0.00    +0.147 HD
ENDROOT
BRANCH  12  15
ATOM     15  C   UNL     1       0.890   5.756   0.535  0.00  0.00    -0.027 A 
ATOM     16  C   UNL     1      -0.149   6.335  -0.168  0.00  0.00    +0.005 A 
ATOM     17  C   UNL     1      -0.715   7.514   0.280  0.00  0.00    +0.000 A 
ATOM     18  C   UNL     1      -0.234   8.120   1.425  0.00  0.00    +0.000 A 
ATOM     19  C   UNL     1       0.809   7.544   2.126  0.00  0.00    +0.000 A 
ATOM     20  C   UNL     1       1.371   6.362   1.681  0.00  0.00    +0.005 A 
ENDBRANCH  12  15
BRANCH   1  22
ATOM     21  N   UNL     1      -3.658   4.339  -5.254  0.00  0.00    -0.309 N 
ATOM     22  C   UNL     1      -3.512   3.924  -3.981  0.00  0.00    +0.244 C 
ATOM     23  O   UNL     1      -4.455   3.434  -3.389  0.00  0.00    -0.270 OA
ATOM     24  H   UNL     1      -2.805   4.782  -5.790  0.00  0.00    +0.149 HD
BRANCH  21  25
ATOM     25  C   UNL     1      -4.953   4.202  -5.926  0.00  0.00    +0.070 C 
ATOM     26  C   UNL     1      -5.070   2.799  -6.524  0.00  0.00    +0.028 C 
BRANCH  25  28
ATOM     27  C   UNL     1      -5.070   6.646  -6.430  0.00  0.00    +0.005 C 
ATOM     28  C   UNL     1      -5.062   5.243  -7.041  0.00  0.00    +0.018 C 
ENDBRANCH  25  28
ENDBRANCH  21  25
ENDBRANCH   1  22
TORSDOF 4
