REMARK  Name = ZINC18043362
REMARK  3 active torsions:
REMARK  status: ('A' for Active; 'I' for Inactive)
REMARK    1  A    between atoms: N_12  and  N_13
REMARK    2  A    between atoms: N_13  and  C_14
REMARK    3  A    between atoms: C_19  and  O_20
REMARK                            x       y       z     vdW  Elec       q    Type
REMARK                         _______ _______ _______ _____ _____    ______ ____
ROOT
ATOM      1  C   UNL     1       0.006   1.406  -0.354  0.00  0.00    +0.001 A 
ATOM      2  C   UNL     1       1.195   2.122  -0.335  0.00  0.00    +0.001 A 
ATOM      3  C   UNL     1       2.405   1.470  -0.242  0.00  0.00    +0.011 A 
ATOM      4  C   UNL     1       2.432   0.078  -0.167  0.00  0.00    +0.013 A 
ATOM      5  C   UNL     1       1.222  -0.650  -0.186  0.00  0.00    -0.016 A 
ATOM      6  C   UNL     1       0.008   0.042  -0.281  0.00  0.00    +0.008 A 
ATOM      7  C   UNL     1       1.248  -2.106  -0.108  0.00  0.00    +0.012 C 
ATOM      8  C   UNL     1       2.411  -2.786  -0.017  0.00  0.00    +0.054 C 
ATOM      9  C   UNL     1       3.657  -2.124   0.007  0.00  0.00    +0.206 C 
ATOM     10  O   UNL     1       4.691  -2.768   0.090  0.00  0.00    -0.286 OA
ATOM     11  C   UNL     1       3.705  -0.656  -0.067  0.00  0.00    +0.136 C 
ATOM     12  N   UNL     1       4.859  -0.013  -0.046  0.00  0.00    -0.178 NA
ENDROOT
BRANCH  12  13
ATOM     13  N   UNL     1       4.922   1.183   0.432  0.00  0.00    -0.234 N 
ATOM     14  H   UNL     1       4.146   1.575   0.863  0.00  0.00    +0.175 HD
BRANCH  13  15
ATOM     15  C   UNL     1       6.106   1.914   0.330  0.00  0.00    +0.090 A 
ATOM     16  C   UNL     1       7.216   1.357  -0.292  0.00  0.00    +0.028 A 
ATOM     17  C   UNL     1       8.387   2.083  -0.392  0.00  0.00    +0.002 A 
ATOM     18  C   UNL     1       8.457   3.364   0.125  0.00  0.00    +0.004 A 
ATOM     19  C   UNL     1       7.357   3.926   0.745  0.00  0.00    +0.047 A 
ATOM     20  C   UNL     1       6.176   3.208   0.846  0.00  0.00    +0.139 A 
BRANCH  20  21
ATOM     21  O   UNL     1       5.092   3.760   1.451  0.00  0.00    -0.505 OA
ATOM     22  H   UNL     1       5.046   3.596   2.403  0.00  0.00    +0.292 HD
ENDBRANCH  20  21
ENDBRANCH  13  15
ENDBRANCH  12  13
TORSDOF 3
