REMARK  Name = ZINC14932715
REMARK  6 active torsions:
REMARK  status: ('A' for Active; 'I' for Inactive)
REMARK    1  A    between atoms: C_1  and  N_2
REMARK    2  A    between atoms: N_2  and  C_3
REMARK    3  A    between atoms: C_3  and  C_4
REMARK    4  A    between atoms: C_16  and  C_18
REMARK    5  A    between atoms: N_20  and  C_30
REMARK    6  A    between atoms: C_22  and  C_23
REMARK                            x       y       z     vdW  Elec       q    Type
REMARK                         _______ _______ _______ _____ _____    ______ ____
ROOT
ATOM      1  C   UNL     1       0.632   0.125  -0.272  0.00  0.00    +0.083 A 
ATOM      2  C   UNL     1       1.914  -0.372  -0.386  0.00  0.00    +0.128 A 
ATOM      3  N   UNL     1       1.830  -1.710  -0.489  0.00  0.00    -0.239 N 
ATOM      4  N   UNL     1       0.489  -2.101  -0.453  0.00  0.00    -0.166 NA
ATOM      5  C   UNL     1      -0.267  -1.033  -0.323  0.00  0.00    +0.105 A 
ENDROOT
BRANCH   5   6
ATOM      6  C   UNL     1      -1.747  -1.005  -0.244  0.00  0.00    +0.003 A 
ATOM      7  C   UNL     1      -2.386  -0.070   0.568  0.00  0.00    +0.011 A 
ATOM      8  C   UNL     1      -3.764  -0.045   0.635  0.00  0.00    +0.020 A 
ATOM      9  C   UNL     1      -4.511  -0.953  -0.095  0.00  0.00    +0.041 A 
ATOM     10  C   UNL     1      -3.881  -1.888  -0.899  0.00  0.00    +0.020 A 
ATOM     11  C   UNL     1      -2.504  -1.918  -0.977  0.00  0.00    +0.011 A 
ATOM     12 CL   UNL     1      -6.244  -0.921  -0.001  0.00  0.00    -0.084 Cl
ENDBRANCH   5   6
BRANCH   3  13
ATOM     13  C   UNL     1       2.921  -2.579  -0.620  0.00  0.00    +0.065 A 
ATOM     14  C   UNL     1       4.214  -2.073  -0.651  0.00  0.00    +0.028 A 
ATOM     15  C   UNL     1       5.288  -2.933  -0.775  0.00  0.00    +0.002 A 
ATOM     16  C   UNL     1       5.076  -4.295  -0.879  0.00  0.00    +0.000 A 
ATOM     17  C   UNL     1       3.789  -4.802  -0.855  0.00  0.00    +0.002 A 
ATOM     18  C   UNL     1       2.712  -3.948  -0.725  0.00  0.00    +0.028 A 
ENDBRANCH   3  13
BRANCH   1  21
ATOM     19  C   UNL     1       2.244   1.900   1.209  0.00  0.00    +0.133 C 
ATOM     20  N   UNL     1       0.991   2.372   0.617  0.00  0.00    -0.293 N 
ATOM     21  C   UNL     1       0.242   1.538  -0.132  0.00  0.00    +0.250 C 
ATOM     22  O   UNL     1      -0.752   1.953  -0.695  0.00  0.00    -0.270 OA
BRANCH  20  23
ATOM     23  C   UNL     1       0.550   3.752   0.838  0.00  0.00    +0.181 C 
BRANCH  23  24
ATOM     24  C   UNL     1      -0.305   3.814   2.077  0.00  0.00    +0.128 A 
ATOM     25  N   UNL     1      -0.812   5.018   2.451  0.00  0.00    -0.309 N 
ATOM     26  H   UNL     1      -0.618   5.806   1.921  0.00  0.00    +0.170 HD
ATOM     27  C   UNL     1      -1.587   5.126   3.555  0.00  0.00    +0.259 A 
ATOM     28  O   UNL     1      -2.048   6.198   3.901  0.00  0.00    -0.267 OA
ATOM     29  C   UNL     1      -1.850   3.898   4.321  0.00  0.00    +0.065 A 
ATOM     30  C   UNL     1      -2.635   3.902   5.472  0.00  0.00    +0.015 A 
ATOM     31  C   UNL     1      -2.849   2.722   6.151  0.00  0.00    +0.001 A 
ATOM     32  C   UNL     1      -2.291   1.534   5.696  0.00  0.00    +0.002 A 
ATOM     33  C   UNL     1      -1.513   1.510   4.561  0.00  0.00    +0.028 A 
ATOM     34  C   UNL     1      -1.280   2.692   3.856  0.00  0.00    +0.078 A 
ATOM     35  N   UNL     1      -0.524   2.713   2.730  0.00  0.00    -0.232 NA
ENDBRANCH  23  24
ENDBRANCH  20  23
ENDBRANCH   1  21
TORSDOF 5
