REMARK  Name = ZINC45329773
REMARK  18 active torsions:
REMARK  status: ('A' for Active; 'I' for Inactive)
REMARK    1  A    between atoms: C_1  and  C_2
REMARK    2  A    between atoms: C_2  and  O_3
REMARK    3  A    between atoms: O_3  and  C_4
REMARK    4  A    between atoms: C_4  and  C_6
REMARK    5  A    between atoms: C_6  and  C_7
REMARK    6  A    between atoms: C_7  and  C_9
REMARK    7  A    between atoms: C_7  and  O_37
REMARK    8  A    between atoms: C_9  and  C_10
REMARK    9  A    between atoms: C_10  and  C_12
REMARK   10  A    between atoms: C_10  and  O_36
REMARK   11  A    between atoms: C_13  and  C_14
REMARK   12  A    between atoms: C_15  and  C_29
REMARK   13  A    between atoms: C_19  and  C_20
REMARK   14  A    between atoms: C_20  and  C_21
REMARK   15  A    between atoms: C_20  and  C_22
REMARK   16  A    between atoms: N_23  and  C_24
REMARK   17  A    between atoms: N_23  and  S_25
REMARK   18  A    between atoms: S_25  and  C_28
REMARK                            x       y       z     vdW  Elec       q    Type
REMARK                         _______ _______ _______ _____ _____    ______ ____
ROOT
ATOM      1  C   UNL     1       2.741  -7.971   6.871  0.00  0.00    +0.022 A 
ATOM      2  C   UNL     1       3.990  -8.611   6.727  0.00  0.00    +0.083 A 
ATOM      3  N   UNL     1       4.582  -9.110   7.808  0.00  0.00    -0.212 NA
ATOM      4  C   UNL     1       4.013  -9.009   8.999  0.00  0.00    +0.238 A 
ATOM      5  N   UNL     1       2.841  -8.415   9.171  0.00  0.00    -0.217 NA
ATOM      6  C   UNL     1       2.187  -7.887   8.151  0.00  0.00    +0.057 A 
ATOM      7  N   UNL     1       4.662  -9.542  10.099  0.00  0.00    -0.178 N 
ATOM      8  C   UNL     1       4.053  -9.443  11.428  0.00  0.00    +0.160 C 
ENDROOT
BRANCH   2   9
ATOM      9  C   UNL     1       4.629  -8.725   5.397  0.00  0.00    +0.001 A 
ATOM     10  C   UNL     1       3.845  -8.902   4.256  0.00  0.00    +0.013 A 
ATOM     11  C   UNL     1       4.446  -9.008   3.019  0.00  0.00    +0.039 A 
ATOM     12  C   UNL     1       5.825  -8.939   2.908  0.00  0.00    +0.123 A 
ATOM     13  C   UNL     1       6.609  -8.764   4.037  0.00  0.00    +0.039 A 
ATOM     14  C   UNL     1       6.017  -8.651   5.279  0.00  0.00    +0.013 A 
ATOM     15  F   UNL     1       6.409  -9.044   1.694  0.00  0.00    -0.205 F 
ENDBRANCH   2   9
BRANCH   7  16
ATOM     16  S   UNL     1       6.128 -10.290   9.914  0.00  0.00    +0.045 S 
ATOM     17  O   UNL     1       6.206 -11.207  10.997  0.00  0.00    -0.155 OA
ATOM     18  O   UNL     1       6.131 -10.754   8.571  0.00  0.00    -0.155 OA
ATOM     19  C   UNL     1       7.355  -8.970  10.122  0.00  0.00    +0.219 C 
ENDBRANCH   7  16
BRANCH   6  20
ATOM     20  C   UNL     1       0.858  -7.209   8.365  0.00  0.00    +0.032 C 
ATOM     21  C   UNL     1      -0.135  -8.209   8.961  0.00  0.00    +0.014 C 
ATOM     22  C   UNL     1       1.035  -6.031   9.325  0.00  0.00    +0.014 C 
ENDBRANCH   6  20
BRANCH   1  24
ATOM     23  C   UNL     1       2.692  -6.599   4.868  0.00  0.00    +0.005 C 
ATOM     24  C   UNL     1       2.043  -7.400   5.703  0.00  0.00    +0.010 C 
BRANCH  23  25
ATOM     25  C   UNL     1       1.979  -6.016   3.675  0.00  0.00    +0.140 C 
BRANCH  25  26
ATOM     26  O   UNL     1       0.597  -6.375   3.725  0.00  0.00    -0.388 OA
ATOM     27  H   UNL     1       0.137  -6.059   4.514  0.00  0.00    +0.210 HD
ENDBRANCH  25  26
BRANCH  25  28
ATOM     28  C   UNL     1       2.112  -4.492   3.696  0.00  0.00    +0.067 C 
BRANCH  28  29
ATOM     29  C   UNL     1       1.496  -3.909   2.423  0.00  0.00    +0.128 C 
BRANCH  29  30
ATOM     30  O   UNL     1       2.252  -4.338   1.288  0.00  0.00    -0.391 OA
ATOM     31  H   UNL     1       3.180  -4.065   1.308  0.00  0.00    +0.210 HD
ENDBRANCH  29  30
BRANCH  29  32
ATOM     32  C   UNL     1       1.516  -2.381   2.500  0.00  0.00    +0.152 C 
BRANCH  32  33
ATOM     33  C   UNL     1       0.801  -1.808   1.304  0.00  0.00    +0.310 C 
ATOM     34  O   UNL     1       0.324  -2.546   0.475  0.00  0.00    -0.251 OA
BRANCH  33  35
ATOM     35  O   UNL     1       0.693  -0.477   1.160  0.00  0.00    -0.465 OA
BRANCH  35  37
ATOM     36  C   UNL     1      -0.019   1.526   0.010  0.00  0.00    +0.048 C 
ATOM     37  C   UNL     1       0.002  -0.004   0.002  0.00  0.00    +0.229 C 
ENDBRANCH  35  37
ENDBRANCH  33  35
ENDBRANCH  32  33
ENDBRANCH  29  32
ENDBRANCH  28  29
ENDBRANCH  25  28
ENDBRANCH  23  25
ENDBRANCH   1  24
TORSDOF 13
