REMARK  Name = ZINC03840720
REMARK  14 active torsions:
REMARK  status: ('A' for Active; 'I' for Inactive)
REMARK    1  A    between atoms: C_1  and  C_2
REMARK    2  A    between atoms: C_10  and  C_12
REMARK    3  A    between atoms: C_12  and  C_13
REMARK    4  A    between atoms: C_13  and  C_14
REMARK    5  A    between atoms: C_13  and  C_15
REMARK    6  A    between atoms: C_13  and  C_16
REMARK    7  A    between atoms: C_18  and  C_38
REMARK    8  A    between atoms: C_21  and  O_37
REMARK    9  A    between atoms: C_23  and  C_27
REMARK   10  A    between atoms: C_27  and  C_29
REMARK   11  A    between atoms: C_27  and  C_30
REMARK   12  A    between atoms: N_32  and  C_33
REMARK   13  A    between atoms: N_32  and  C_34
REMARK   14  A    between atoms: C_34  and  C_35
REMARK                            x       y       z     vdW  Elec       q    Type
REMARK                         _______ _______ _______ _____ _____    ______ ____
ROOT
ATOM      1  C   UNL     1       5.444  -3.740   1.986  0.00  0.00    +0.014 C 
ATOM      2  C   UNL     1       6.066  -4.184   0.661  0.00  0.00    +0.042 C 
ATOM      3  C   UNL     1       7.453  -4.752   0.918  0.00  0.00    +0.057 A 
ATOM      4  C   UNL     1       8.477  -4.455   0.077  0.00  0.00    +0.015 A 
ATOM      5  S   UNL     1       9.838  -5.337   0.794  0.00  0.00    -0.057 S 
ATOM      6  C   UNL     1       8.965  -6.022   2.132  0.00  0.00    +0.165 A 
ATOM      7  N   UNL     1       7.752  -5.548   1.942  0.00  0.00    -0.229 NA
ATOM      8  N   UNL     1       9.429  -6.857   3.142  0.00  0.00    -0.265 N 
ATOM      9  C   UNL     1      10.723  -7.235   3.163  0.00  0.00    +0.219 C 
ATOM     10  O   UNL     1      11.481  -6.849   2.299  0.00  0.00    -0.275 OA
ATOM     11  C   UNL     1       8.439  -3.606  -1.149  0.00  0.00    +0.051 C 
ATOM     12  C   UNL     1       6.967  -3.357  -1.534  0.00  0.00    -0.022 C 
ATOM     13  C   UNL     1       6.169  -2.980  -0.284  0.00  0.00    +0.033 C 
ATOM     14  C   UNL     1       4.755  -2.562  -0.654  0.00  0.00    +0.123 C 
ATOM     15  C   UNL     1       4.780  -1.395  -1.638  0.00  0.00    +0.029 C 
ATOM     16  C   UNL     1       5.515  -1.837  -2.908  0.00  0.00    +0.007 C 
ATOM     17  C   UNL     1       6.952  -2.202  -2.540  0.00  0.00    +0.008 C 
ATOM     18  C   UNL     1       6.375  -4.614  -2.174  0.00  0.00    +0.012 C 
ATOM     19  H   UNL     1       8.822  -7.166   3.833  0.00  0.00    +0.157 HD
ENDROOT
BRANCH  15  20
ATOM     20  C   UNL     1       3.348  -0.989  -1.990  0.00  0.00    +0.078 C 
ATOM     21  C   UNL     1       2.662  -2.135  -2.736  0.00  0.00    +0.017 C 
BRANCH  20  22
ATOM     22  C   UNL     1       3.373   0.236  -2.866  0.00  0.00    +0.219 C 
ATOM     23  O   UNL     1       4.427   0.644  -3.308  0.00  0.00    -0.275 OA
ATOM     24  N   UNL     1       2.226   0.880  -3.159  0.00  0.00    -0.301 N 
ATOM     25  C   UNL     1       0.953   0.387  -2.626  0.00  0.00    +0.132 C 
BRANCH  24  26
ATOM     26  C   UNL     1       2.251   2.071  -4.011  0.00  0.00    +0.134 C 
BRANCH  26  27
ATOM     27  C   UNL     1       2.094   1.661  -5.453  0.00  0.00    -0.016 C 
ATOM     28  C   UNL     1       1.135   2.179  -6.180  0.00  0.00    +0.005 C 
ENDBRANCH  26  27
ENDBRANCH  24  26
ENDBRANCH  20  22
ENDBRANCH  15  20
BRANCH  14  29
ATOM     29  O   UNL     1       4.050  -2.170   0.526  0.00  0.00    -0.391 OA
ATOM     30  H   UNL     1       3.147  -1.864   0.361  0.00  0.00    +0.210 HD
ENDBRANCH  14  29
BRANCH   9  31
ATOM     31  C   UNL     1      11.226  -8.140   4.258  0.00  0.00    +0.102 C 
BRANCH  31  32
ATOM     32  C   UNL     1      12.716  -8.414   4.049  0.00  0.00    -0.029 C 
ATOM     33  C   UNL     1      13.488  -7.093   4.083  0.00  0.00    +0.011 C 
ATOM     34  C   UNL     1      13.227  -9.332   5.161  0.00  0.00    +0.011 C 
ATOM     35  C   UNL     1      12.924  -9.091   2.693  0.00  0.00    +0.011 C 
ENDBRANCH  31  32
ENDBRANCH   9  31
TORSDOF 7
