REMARK  Name = ZINC12282141
REMARK  8 active torsions:
REMARK  status: ('A' for Active; 'I' for Inactive)
REMARK    1  A    between atoms: C_3  and  C_6
REMARK    2  A    between atoms: C_6  and  C_7
REMARK    3  A    between atoms: C_7  and  N_8
REMARK    4  A    between atoms: C_9  and  C_11
REMARK    5  A    between atoms: N_13  and  C_29
REMARK    6  A    between atoms: C_15  and  C_18
REMARK    7  A    between atoms: N_20  and  C_21
REMARK    8  A    between atoms: C_29  and  C_30
REMARK                            x       y       z     vdW  Elec       q    Type
REMARK                         _______ _______ _______ _____ _____    ______ ____
ROOT
ATOM      1  C   UNL     1      -2.741   2.637   2.254  0.00  0.00    +0.100 A 
ATOM      2  C   UNL     1      -2.031   2.198   1.157  0.00  0.00    +0.102 A 
ATOM      3  N   UNL     1      -0.704   1.998   1.216  0.00  0.00    -0.349 N 
ATOM      4  C   UNL     1       0.027   2.215   2.322  0.00  0.00    +0.102 A 
ATOM      5  C   UNL     1      -0.552   2.659   3.490  0.00  0.00    +0.100 A 
ATOM      6  C   UNL     1      -2.006   2.896   3.503  0.00  0.00    +0.206 A 
ATOM      7  O   UNL     1      -2.576   3.290   4.506  0.00  0.00    -0.286 OA
ENDROOT
BRANCH   1   9
ATOM      8  N   UNL     1      -4.852   2.604   1.025  0.00  0.00    -0.311 N 
ATOM      9  C   UNL     1      -4.197   2.846   2.177  0.00  0.00    +0.249 C 
ATOM     10  O   UNL     1      -4.807   3.238   3.153  0.00  0.00    -0.270 OA
ATOM     11  H   UNL     1      -4.366   2.292   0.246  0.00  0.00    +0.149 HD
BRANCH   8  12
ATOM     12  C   UNL     1      -6.301   2.812   0.948  0.00  0.00    +0.109 C 
BRANCH  12  13
ATOM     13  C   UNL     1      -6.792   2.466  -0.459  0.00  0.00    +0.061 C 
BRANCH  13  16
ATOM     14  C   UNL     1     -10.348   3.764  -0.884  0.00  0.00    +0.008 A 
ATOM     15  C   UNL     1      -8.966   3.800  -0.877  0.00  0.00    +0.011 A 
ATOM     16  C   UNL     1      -8.281   2.681  -0.538  0.00  0.00    -0.009 A 
ATOM     17  S   UNL     1      -9.602   1.528  -0.200  0.00  0.00    -0.102 S 
ATOM     18  C   UNL     1     -10.978   2.614  -0.541  0.00  0.00    +0.045 A 
ENDBRANCH  13  16
ENDBRANCH  12  13
ENDBRANCH   8  12
ENDBRANCH   1   9
BRANCH   5  19
ATOM     19  C   UNL     1       0.262   2.892   4.695  0.00  0.00    +0.249 C 
ATOM     20  O   UNL     1      -0.266   3.285   5.719  0.00  0.00    -0.270 OA
ATOM     21  N   UNL     1       1.590   2.670   4.664  0.00  0.00    -0.308 N 
ATOM     22  H   UNL     1       2.011   2.356   3.848  0.00  0.00    +0.149 HD
BRANCH  21  23
ATOM     23  C   UNL     1       2.400   2.901   5.863  0.00  0.00    +0.073 C 
ATOM     24  C   UNL     1       2.797   4.377   5.934  0.00  0.00    +0.022 C 
ATOM     25  C   UNL     1       3.286   4.706   7.345  0.00  0.00    +0.002 C 
ATOM     26  C   UNL     1       2.346   4.073   8.373  0.00  0.00    +0.000 C 
ATOM     27  C   UNL     1       3.088   2.971   9.132  0.00  0.00    +0.000 C 
ATOM     28  C   UNL     1       3.210   1.733   8.241  0.00  0.00    +0.000 C 
ATOM     29  C   UNL     1       4.298   1.965   7.191  0.00  0.00    +0.002 C 
ATOM     30  C   UNL     1       3.661   2.036   5.802  0.00  0.00    +0.022 C 
ENDBRANCH  21  23
ENDBRANCH   5  19
BRANCH   3  31
ATOM     31  C   UNL     1      -0.019   1.526   0.010  0.00  0.00    +0.152 C 
BRANCH  31  32
ATOM     32  C   UNL     1       0.002  -0.004   0.002  0.00  0.00    +0.138 C 
ATOM     33  C   UNL     1       0.675  -0.526  -1.292  0.00  0.00    +0.035 C 
ATOM     34  C   UNL     1       1.166  -1.924  -0.827  0.00  0.00    +0.031 C 
ATOM     35  C   UNL     1       1.528  -1.668   0.652  0.00  0.00    +0.160 C 
ATOM     36  O   UNL     1       0.820  -0.497   1.075  0.00  0.00    -0.375 OA
ENDBRANCH  31  32
ENDBRANCH   3  31
TORSDOF 8
