REMARK  Name = ZINC40033323
REMARK  13 active torsions:
REMARK  status: ('A' for Active; 'I' for Inactive)
REMARK    1  A    between atoms: C_1  and  C_2
REMARK    2  A    between atoms: C_2  and  N_3
REMARK    3  A    between atoms: N_3  and  C_4
REMARK    4  A    between atoms: N_3  and  C_6
REMARK    5  A    between atoms: C_4  and  C_5
REMARK    6  A    between atoms: C_9  and  C_12
REMARK    7  A    between atoms: N_13  and  N_14
REMARK    8  A    between atoms: N_21  and  C_22
REMARK    9  A    between atoms: C_25  and  O_28
REMARK   10  A    between atoms: O_28  and  C_29
REMARK   11  A    between atoms: C_29  and  C_30
REMARK   12  A    between atoms: C_31  and  C_39
REMARK   13  A    between atoms: C_31  and  C_40
REMARK                            x       y       z     vdW  Elec       q    Type
REMARK                         _______ _______ _______ _____ _____    ______ ____
ROOT
ATOM      1  N   UNL     1      -6.176  -1.753   5.782  0.00  0.00    -0.206 N 
ATOM      2  C   UNL     1      -7.501  -2.096   5.846  0.00  0.00    +0.223 A 
ATOM      3  N   UNL     1      -8.088  -2.600   4.780  0.00  0.00    -0.214 NA
ATOM      4  C   UNL     1      -9.379  -2.947   4.806  0.00  0.00    +0.084 A 
ATOM      5  C   UNL     1     -10.118  -2.782   5.969  0.00  0.00    +0.049 A 
ATOM      6  C   UNL     1      -9.489  -2.243   7.098  0.00  0.00    +0.264 A 
ATOM      7  O   UNL     1     -10.107  -2.080   8.138  0.00  0.00    -0.267 OA
ATOM      8  N   UNL     1      -8.182  -1.912   7.014  0.00  0.00    -0.248 N 
ATOM      9  C   UNL     1     -11.565  -3.183   6.011  0.00  0.00    +0.001 C 
ATOM     10  C   UNL     1     -12.241  -2.898   4.671  0.00  0.00    +0.047 C 
ATOM     11  C   UNL     1     -11.441  -3.486   3.540  0.00  0.00    -0.037 A 
ATOM     12  C   UNL     1     -10.047  -3.504   3.608  0.00  0.00    +0.004 A 
ATOM     13  C   UNL     1      -9.304  -4.041   2.561  0.00  0.00    +0.010 A 
ATOM     14  C   UNL     1      -9.953  -4.558   1.457  0.00  0.00    +0.001 A 
ATOM     15  C   UNL     1     -11.335  -4.542   1.394  0.00  0.00    +0.000 A 
ATOM     16  C   UNL     1     -12.077  -4.008   2.433  0.00  0.00    +0.004 A 
ATOM     17  C   UNL     1     -11.666  -4.678   6.319  0.00  0.00    +0.016 C 
ATOM     18  C   UNL     1     -12.276  -2.393   7.112  0.00  0.00    +0.016 C 
ATOM     19  H   UNL     1      -5.752  -1.312   6.535  0.00  0.00    +0.177 HD
ENDROOT
BRANCH   8  20
ATOM     20  C   UNL     1      -7.524  -1.373   8.128  0.00  0.00    +0.053 A 
ATOM     21  C   UNL     1      -7.506   0.001   8.327  0.00  0.00    +0.030 A 
ATOM     22  C   UNL     1      -6.858   0.531   9.425  0.00  0.00    +0.047 A 
ATOM     23  C   UNL     1      -6.225  -0.309  10.329  0.00  0.00    +0.121 A 
ATOM     24  C   UNL     1      -6.242  -1.682  10.131  0.00  0.00    +0.047 A 
ATOM     25  C   UNL     1      -6.896  -2.214   9.037  0.00  0.00    +0.030 A 
BRANCH  23  26
ATOM     26  O   UNL     1      -5.587   0.214  11.410  0.00  0.00    -0.492 OA
BRANCH  26  27
ATOM     27  C   UNL     1      -4.957  -0.709  12.300  0.00  0.00    +0.225 C 
ATOM     28  C   UNL     1      -4.296   0.059  13.447  0.00  0.00    +0.048 C 
ENDBRANCH  26  27
ENDBRANCH  23  26
ENDBRANCH   8  20
BRANCH   1  30
ATOM     29  C   UNL     1      -4.178  -1.714   4.569  0.00  0.00    +0.138 C 
ATOM     30  N   UNL     1      -5.433  -2.039   4.629  0.00  0.00    -0.188 NA
BRANCH  29  34
ATOM     31  C   UNL     1      -1.927  -2.582   1.075  0.00  0.00    +0.030 A 
ATOM     32  C   UNL     1      -1.317  -1.949   2.153  0.00  0.00    +0.024 A 
ATOM     33  C   UNL     1      -2.044  -1.666   3.288  0.00  0.00    +0.011 A 
ATOM     34  C   UNL     1      -3.396  -2.015   3.356  0.00  0.00    -0.005 A 
ATOM     35  C   UNL     1      -4.005  -2.650   2.270  0.00  0.00    +0.011 A 
ATOM     36  C   UNL     1      -3.273  -2.925   1.136  0.00  0.00    +0.024 A 
BRANCH  31  37
ATOM     37  N   UNL     1      -1.187  -2.867  -0.073  0.00  0.00    -0.330 N 
BRANCH  37  39
ATOM     38  C   UNL     1       0.371  -1.093  -0.710  0.00  0.00    +0.024 C 
ATOM     39  C   UNL     1       0.231  -2.506  -0.139  0.00  0.00    +0.102 C 
ENDBRANCH  37  39
BRANCH  37  40
ATOM     40  C   UNL     1      -1.828  -3.528  -1.212  0.00  0.00    +0.102 C 
ATOM     41  C   UNL     1      -1.698  -5.045  -1.062  0.00  0.00    +0.024 C 
ENDBRANCH  37  40
ENDBRANCH  31  37
ENDBRANCH  29  34
ENDBRANCH   1  30
TORSDOF 8
