REMARK  Name = ZINC27580572
REMARK  6 active torsions:
REMARK  status: ('A' for Active; 'I' for Inactive)
REMARK    1  A    between atoms: C_1  and  C_2
REMARK    2  A    between atoms: C_4  and  C_26
REMARK    3  A    between atoms: C_6  and  C_25
REMARK    4  A    between atoms: C_7  and  C_11
REMARK    5  A    between atoms: N_13  and  C_14
REMARK    6  A    between atoms: C_21  and  C_24
REMARK                            x       y       z     vdW  Elec       q    Type
REMARK                         _______ _______ _______ _____ _____    ______ ____
ROOT
ATOM      1  C   UNL     1       0.199   0.276   6.954  0.00  0.00    +0.286 C 
ATOM      2  O   UNL     1      -0.407   1.069   7.649  0.00  0.00    -0.266 OA
ATOM      3  N   UNL     1       0.208   0.424   5.614  0.00  0.00    -0.247 N 
ATOM      4  H   UNL     1       0.755  -0.294   4.985  0.00  0.00    +0.158 HD
ENDROOT
BRANCH   1  11
ATOM      5  C   UNL     1       4.237  -5.748   8.468  0.00  0.00    +0.044 C 
ATOM      6  C   UNL     1       3.376  -4.528   8.669  0.00  0.00    -0.047 A 
ATOM      7  C   UNL     1       3.008  -4.151   9.954  0.00  0.00    +0.007 A 
ATOM      8  C   UNL     1       2.228  -3.048  10.155  0.00  0.00    -0.039 A 
ATOM      9  C   UNL     1       1.799  -2.294   9.060  0.00  0.00    +0.027 A 
ATOM     10  C   UNL     1       0.985  -1.088   8.909  0.00  0.00    +0.008 A 
ATOM     11  C   UNL     1       0.920  -0.844   7.574  0.00  0.00    +0.194 A 
ATOM     12  O   UNL     1       1.624  -1.780   6.904  0.00  0.00    -0.450 OA
ATOM     13  C   UNL     1       2.169  -2.671   7.755  0.00  0.00    +0.137 A 
ATOM     14  C   UNL     1       2.963  -3.798   7.575  0.00  0.00    +0.050 A 
ATOM     15  C   UNL     1       0.346  -0.283  10.010  0.00  0.00    +0.048 C 
ATOM     16  C   UNL     1       1.834  -2.645  11.553  0.00  0.00    +0.044 C 
ENDBRANCH   1  11
BRANCH   3  17
ATOM     17  C   UNL     1      -0.473   1.479   5.029  0.00  0.00    +0.228 A 
ATOM     18  C   UNL     1      -0.560   1.763   3.712  0.00  0.00    +0.037 A 
ATOM     19  C   UNL     1      -1.356   2.927   3.651  0.00  0.00    +0.089 A 
ATOM     20  N   UNL     1      -1.666   3.226   4.870  0.00  0.00    -0.081 NA
ATOM     21  O   UNL     1      -1.186   2.435   5.658  0.00  0.00    -0.339 OA
ATOM     22  C   UNL     1      -1.712   3.615   2.358  0.00  0.00    +0.059 C 
ATOM     23  C   UNL     1      -0.756   3.109   1.270  0.00  0.00    +0.010 C 
ATOM     24  C   UNL     1      -0.729   1.579   1.267  0.00  0.00    -0.009 C 
ATOM     25  C   UNL     1       0.015   1.070   2.510  0.00  0.00    +0.045 C 
ATOM     26  C   UNL     1      -0.013   1.086   0.008  0.00  0.00    +0.008 C 
ENDBRANCH   3  17
TORSDOF 2
