REMARK  Name = ZINC09847587
REMARK  6 active torsions:
REMARK  status: ('A' for Active; 'I' for Inactive)
REMARK    1  A    between atoms: C_1  and  C_2
REMARK    2  A    between atoms: C_2  and  C_4
REMARK    3  A    between atoms: C_2  and  S_12
REMARK    4  A    between atoms: S_12  and  C_13
REMARK    5  A    between atoms: C_16  and  C_25
REMARK    6  A    between atoms: N_17  and  C_18
REMARK                            x       y       z     vdW  Elec       q    Type
REMARK                         _______ _______ _______ _____ _____    ______ ____
ROOT
ATOM      1  C   UNL     1       2.205   1.579  -1.583  0.00  0.00    +0.197 A 
ATOM      2  N   UNL     1       1.488   0.888  -2.439  0.00  0.00    -0.122 NA
ATOM      3  N   UNL     1       2.178   0.638  -3.494  0.00  0.00    -0.128 NA
ATOM      4  C   UNL     1       3.384   1.145  -3.376  0.00  0.00    +0.171 A 
ATOM      5  N   UNL     1       3.441   1.765  -2.146  0.00  0.00    -0.270 N 
ENDROOT
BRANCH   4   6
ATOM      6  C   UNL     1       4.471   1.066  -4.370  0.00  0.00    +0.045 A 
ATOM      7  C   UNL     1       5.717   1.594  -4.254  0.00  0.00    +0.095 A 
ATOM      8  N   UNL     1       6.443   1.313  -5.375  0.00  0.00    -0.360 N 
ATOM      9  H   UNL     1       7.363   1.584  -5.523  0.00  0.00    +0.165 HD
ATOM     10  C   UNL     1       5.680   0.593  -6.269  0.00  0.00    +0.047 A 
ATOM     11  C   UNL     1       4.415   0.405  -5.685  0.00  0.00    +0.010 A 
ATOM     12  C   UNL     1       3.427  -0.297  -6.373  0.00  0.00    +0.011 A 
ATOM     13  C   UNL     1       3.697  -0.806  -7.624  0.00  0.00    +0.001 A 
ATOM     14  C   UNL     1       4.946  -0.621  -8.201  0.00  0.00    +0.002 A 
ATOM     15  C   UNL     1       5.932   0.072  -7.534  0.00  0.00    +0.026 A 
ENDBRANCH   4   6
BRANCH   5  16
ATOM     16  C   UNL     1       4.534   2.443  -1.588  0.00  0.00    +0.051 A 
ATOM     17  C   UNL     1       5.008   3.605  -2.182  0.00  0.00    +0.028 A 
ATOM     18  C   UNL     1       6.082   4.274  -1.628  0.00  0.00    +0.022 A 
ATOM     19  C   UNL     1       6.691   3.781  -0.488  0.00  0.00    +0.041 A 
ATOM     20  C   UNL     1       6.223   2.621   0.103  0.00  0.00    +0.022 A 
ATOM     21  C   UNL     1       5.147   1.951  -0.444  0.00  0.00    +0.028 A 
ATOM     22 CL   UNL     1       8.045   4.621   0.203  0.00  0.00    -0.084 Cl
ENDBRANCH   5  16
BRANCH   1  23
ATOM     23  S   UNL     1       1.679   2.152  -0.002  0.00  0.00    -0.073 S 
BRANCH  23  25
ATOM     24  C   UNL     1       0.002  -0.004   0.002  0.00  0.00    +0.029 C 
ATOM     25  C   UNL     1      -0.019   1.526   0.010  0.00  0.00    +0.137 C 
BRANCH  25  26
ATOM     26  C   UNL     1      -0.724   2.012   1.250  0.00  0.00    +0.236 C 
ATOM     27  O   UNL     1      -0.080   2.389   2.205  0.00  0.00    -0.274 OA
ATOM     28  N   UNL     1      -2.071   2.027   1.297  0.00  0.00    -0.224 N 
ATOM     29  C   UNL     1      -2.879   2.469   2.444  0.00  0.00    +0.136 C 
ATOM     30  C   UNL     1      -4.332   2.284   1.965  0.00  0.00    +0.125 C 
ATOM     31  N   UNL     1      -4.188   1.748   0.603  0.00  0.00    -0.297 N 
ATOM     32  C   UNL     1      -2.886   1.635   0.309  0.00  0.00    +0.309 C 
ATOM     33  O   UNL     1      -2.482   1.217  -0.757  0.00  0.00    -0.252 OA
ATOM     34  H   UNL     1      -4.920   1.513   0.012  0.00  0.00    +0.150 HD
ENDBRANCH  25  26
ENDBRANCH  23  25
ENDBRANCH   1  23
TORSDOF 5
