REMARK  Name = ZINC37540387
REMARK  14 active torsions:
REMARK  status: ('A' for Active; 'I' for Inactive)
REMARK    1  A    between atoms: C_1  and  C_2
REMARK    2  A    between atoms: C_2  and  C_4
REMARK    3  A    between atoms: C_2  and  C_12
REMARK    4  A    between atoms: C_5  and  C_6
REMARK    5  A    between atoms: C_6  and  C_8
REMARK    6  A    between atoms: C_6  and  C_9
REMARK    7  A    between atoms: C_9  and  C_10
REMARK    8  A    between atoms: C_9  and  C_11
REMARK    9  A    between atoms: C_18  and  C_37
REMARK   10  A    between atoms: C_22  and  C_23
REMARK   11  A    between atoms: C_22  and  O_36
REMARK   12  A    between atoms: C_23  and  C_25
REMARK   13  A    between atoms: C_23  and  O_35
REMARK   14  A    between atoms: C_28  and  O_34
REMARK                            x       y       z     vdW  Elec       q    Type
REMARK                         _______ _______ _______ _____ _____    ______ ____
ROOT
ATOM      1  C   UNL     1       0.808  -0.921   1.346  0.00  0.00    +0.002 C 
ATOM      2  C   UNL     1       0.983  -2.423   0.995  0.00  0.00    +0.005 C 
ATOM      3  C   UNL     1       2.519  -2.667   0.879  0.00  0.00    +0.007 C 
ATOM      4  C   UNL     1       3.074  -1.499   1.707  0.00  0.00    +0.030 C 
ATOM      5  C   UNL     1       2.221  -0.330   1.178  0.00  0.00    -0.023 C 
ATOM      6  C   UNL     1       2.514   0.913   1.985  0.00  0.00    +0.007 C 
ATOM      7  C   UNL     1       4.009   1.231   1.858  0.00  0.00    +0.003 C 
ATOM      8  C   UNL     1       4.872   0.086   2.367  0.00  0.00    +0.038 C 
ATOM      9  C   UNL     1       4.551  -1.257   1.698  0.00  0.00    +0.099 C 
ATOM     10  C   UNL     1       2.417  -0.050  -0.311  0.00  0.00    +0.012 C 
ENDROOT
BRANCH   1  12
ATOM     11  C   UNL     1      -0.290   1.230   0.716  0.00  0.00    +0.012 C 
ATOM     12  C   UNL     1      -0.154  -0.253   0.366  0.00  0.00    +0.012 C 
BRANCH  12  13
ATOM     13  C   UNL     1      -1.504  -0.916   0.456  0.00  0.00    -0.027 C 
ATOM     14  C   UNL     1      -2.023  -1.491  -0.601  0.00  0.00    -0.027 C 
BRANCH  14  15
ATOM     15  C   UNL     1      -3.373  -2.154  -0.511  0.00  0.00    +0.011 C 
ATOM     16  C   UNL     1      -3.238  -3.637  -0.861  0.00  0.00    +0.012 C 
BRANCH  15  17
ATOM     17  C   UNL     1      -4.337  -1.484  -1.493  0.00  0.00    -0.011 C 
ATOM     18  C   UNL     1      -5.708  -2.158  -1.402  0.00  0.00    +0.008 C 
ATOM     19  C   UNL     1      -4.473  -0.001  -1.143  0.00  0.00    +0.008 C 
ENDBRANCH  15  17
ENDBRANCH  14  15
ENDBRANCH  12  13
ENDBRANCH   1  12
BRANCH   9  20
ATOM     20  O   UNL     1       5.176  -2.291   2.501  0.00  0.00    -0.385 OA
ATOM     21  H   UNL     1       6.138  -2.219   2.556  0.00  0.00    +0.210 HD
ENDBRANCH   9  20
BRANCH   9  22
ATOM     22  C   UNL     1       5.184  -1.330   0.310  0.00  0.00    +0.169 C 
BRANCH  22  23
ATOM     23  C   UNL     1       6.662  -1.052   0.417  0.00  0.00    +0.010 C 
ATOM     24  C   UNL     1       7.421  -1.065  -0.674  0.00  0.00    -0.044 C 
ATOM     25  C   UNL     1       8.929  -0.942  -0.594  0.00  0.00    +0.066 C 
ATOM     26  C   UNL     1       9.549  -2.014  -1.497  0.00  0.00    +0.119 C 
ATOM     27  C   UNL     1       9.044  -1.840  -2.930  0.00  0.00    +0.036 C 
ATOM     28  C   UNL     1       7.542  -2.135  -2.990  0.00  0.00    +0.037 C 
ATOM     29  C   UNL     1       6.833  -1.207  -2.030  0.00  0.00    -0.051 C 
ATOM     30  C   UNL     1       5.736  -0.548  -2.386  0.00  0.00    +0.012 C 
BRANCH  26  31
ATOM     31  O   UNL     1      10.972  -1.886  -1.478  0.00  0.00    -0.391 OA
ATOM     32  H   UNL     1      11.433  -2.534  -2.029  0.00  0.00    +0.210 HD
ENDBRANCH  26  31
ENDBRANCH  22  23
BRANCH  22  33
ATOM     33  O   UNL     1       4.983  -2.634  -0.238  0.00  0.00    -0.385 OA
ATOM     34  H   UNL     1       5.312  -3.351   0.322  0.00  0.00    +0.210 HD
ENDBRANCH  22  33
ENDBRANCH   9  22
TORSDOF 9
