REMARK  Name = ZINC63530273
REMARK  4 active torsions:
REMARK  status: ('A' for Active; 'I' for Inactive)
REMARK    1  A    between atoms: C_6  and  C_19
REMARK    2  A    between atoms: C_8  and  S_11
REMARK    3  A    between atoms: S_11  and  C_12
REMARK    4  A    between atoms: C_24  and  C_27
REMARK                            x       y       z     vdW  Elec       q    Type
REMARK                         _______ _______ _______ _____ _____    ______ ____
ROOT
ATOM      1  C   UNL     1       1.807   1.675  -1.011  0.00  0.00    +0.001 A 
ATOM      2  C   UNL     1       3.177   1.875  -0.834  0.00  0.00    +0.002 A 
ATOM      3  C   UNL     1       3.985   0.901  -0.343  0.00  0.00    +0.026 A 
ATOM      4  C   UNL     1       3.438  -0.360   0.004  0.00  0.00    +0.044 A 
ATOM      5  N   UNL     1       4.001  -1.451   0.492  0.00  0.00    -0.369 N 
ATOM      6  C   UNL     1       2.974  -2.482   0.672  0.00  0.00    +0.204 C 
ATOM      7  C   UNL     1       1.673  -1.859   0.216  0.00  0.00    +0.030 C 
ATOM      8  C   UNL     1       1.994  -0.566  -0.183  0.00  0.00    +0.010 A 
ATOM      9  C   UNL     1       1.215   0.493  -0.699  0.00  0.00    +0.011 A 
ATOM     10  H   UNL     1       4.943  -1.553   0.698  0.00  0.00    +0.161 HD
ENDROOT
BRANCH   6  11
ATOM     11  C   UNL     1       2.883  -2.876   2.123  0.00  0.00    +0.243 C 
ATOM     12  O   UNL     1       3.162  -2.073   2.988  0.00  0.00    -0.273 OA
ATOM     13  N   UNL     1       2.491  -4.121   2.461  0.00  0.00    -0.299 N 
ATOM     14  C   UNL     1       2.062  -5.075   1.429  0.00  0.00    +0.108 C 
ATOM     15  C   UNL     1       0.677  -5.613   1.801  0.00  0.00    +0.032 C 
ATOM     16  C   UNL     1       0.721  -6.194   3.216  0.00  0.00    +0.078 C 
ATOM     17  C   UNL     1       1.094  -5.092   4.210  0.00  0.00    +0.032 C 
ATOM     18  C   UNL     1       2.490  -4.550   3.866  0.00  0.00    +0.108 C 
BRANCH  16  19
ATOM     19  C   UNL     1      -0.631  -6.754   3.571  0.00  0.00    +0.214 C 
ATOM     20  O   UNL     1      -1.542  -6.695   2.772  0.00  0.00    -0.276 OA
ATOM     21  N   UNL     1      -0.830  -7.322   4.778  0.00  0.00    -0.329 N 
ATOM     22  H   UNL     1      -0.102  -7.369   5.417  0.00  0.00    +0.145 HD
ATOM     23  H   UNL     1      -1.701  -7.682   5.007  0.00  0.00    +0.145 HD
ENDBRANCH  16  19
ENDBRANCH   6  11
BRANCH   7  24
ATOM     24  S   UNL     1       0.174  -2.571   0.197  0.00  0.00    -0.091 S 
BRANCH  24  25
ATOM     25  C   UNL     1       0.229  -3.645  -1.199  0.00  0.00    +0.013 A 
ATOM     26  C   UNL     1       1.329  -3.626  -2.048  0.00  0.00    +0.016 A 
ATOM     27  C   UNL     1       1.369  -4.468  -3.142  0.00  0.00    +0.021 A 
ATOM     28  C   UNL     1       0.316  -5.330  -3.392  0.00  0.00    +0.041 A 
ATOM     29  C   UNL     1      -0.781  -5.351  -2.548  0.00  0.00    +0.021 A 
ATOM     30  C   UNL     1      -0.825  -4.515  -1.450  0.00  0.00    +0.016 A 
ATOM     31 CL   UNL     1       0.370  -6.388  -4.768  0.00  0.00    -0.084 Cl
ENDBRANCH  24  25
ENDBRANCH   7  24
TORSDOF 4
