REMARK  Name = ZINC56850278
REMARK  9 active torsions:
REMARK  status: ('A' for Active; 'I' for Inactive)
REMARK    1  A    between atoms: C_1  and  C_2
REMARK    2  A    between atoms: C_2  and  C_3
REMARK    3  A    between atoms: C_2  and  C_4
REMARK    4  A    between atoms: C_2  and  C_5
REMARK    5  A    between atoms: C_12  and  C_14
REMARK    6  A    between atoms: N_16  and  C_17
REMARK    7  A    between atoms: C_17  and  C_18
REMARK    8  A    between atoms: C_18  and  S_19
REMARK    9  A    between atoms: S_19  and  N_22
REMARK                            x       y       z     vdW  Elec       q    Type
REMARK                         _______ _______ _______ _____ _____    ______ ____
ROOT
ATOM      1  C   UNL     1       0.718  -0.497  -1.257  0.00  0.00    -0.001 C 
ATOM      2  C   UNL     1      -0.026   0.007  -2.496  0.00  0.00    +0.009 C 
ATOM      3  C   UNL     1       0.533  -0.709  -3.733  0.00  0.00    +0.043 C 
ATOM      4  C   UNL     1       2.032  -0.643  -3.684  0.00  0.00    -0.006 A 
ATOM      5  C   UNL     1       2.798  -0.317  -2.603  0.00  0.00    -0.036 A 
ATOM      6  C   UNL     1       4.173  -0.320  -2.792  0.00  0.00    +0.024 A 
ATOM      7  C   UNL     1       4.629  -0.652  -4.054  0.00  0.00    +0.074 A 
ATOM      8  S   UNL     1       3.103  -0.949  -4.927  0.00  0.00    -0.088 S 
ATOM      9  C   UNL     1       2.154   0.029  -1.264  0.00  0.00    +0.040 C 
ENDROOT
BRANCH   1  11
ATOM     10  C   UNL     1      -0.019   1.526   0.010  0.00  0.00    +0.011 C 
ATOM     11  C   UNL     1       0.002  -0.004   0.002  0.00  0.00    -0.035 C 
ATOM     12  C   UNL     1       0.742  -0.511   1.242  0.00  0.00    +0.011 C 
ATOM     13  C   UNL     1      -1.433  -0.534   0.013  0.00  0.00    +0.011 C 
ENDBRANCH   1  11
BRANCH   7  14
ATOM     14  C   UNL     1       6.007  -0.739  -4.545  0.00  0.00    +0.251 C 
ATOM     15  O   UNL     1       6.936  -0.498  -3.797  0.00  0.00    -0.270 OA
ATOM     16  N   UNL     1       6.246  -1.084  -5.826  0.00  0.00    -0.309 N 
ATOM     17  H   UNL     1       5.505  -1.276  -6.422  0.00  0.00    +0.149 HD
BRANCH  16  18
ATOM     18  C   UNL     1       7.623  -1.171  -6.317  0.00  0.00    +0.128 C 
BRANCH  18  19
ATOM     19  C   UNL     1       7.614  -1.579  -7.792  0.00  0.00    +0.203 C 
BRANCH  19  20
ATOM     20  S   UNL     1       9.320  -1.685  -8.400  0.00  0.00    +0.028 S 
ATOM     21  O   UNL     1       9.908  -0.393  -8.436  0.00  0.00    -0.158 OA
ATOM     22  O   UNL     1       9.994  -2.771  -7.778  0.00  0.00    -0.158 OA
BRANCH  20  23
ATOM     23  N   UNL     1       9.178  -2.130  -9.989  0.00  0.00    -0.208 NA
ATOM     24  H   UNL     1       8.300  -2.269 -10.377  0.00  0.00    +0.144 HD
ATOM     25  H   UNL     1       9.973  -2.252 -10.531  0.00  0.00    +0.144 HD
ENDBRANCH  20  23
ENDBRANCH  19  20
ENDBRANCH  18  19
ENDBRANCH  16  18
ENDBRANCH   7  14
TORSDOF 6
