REMARK  Name = ZINC63140448
REMARK  10 active torsions:
REMARK  status: ('A' for Active; 'I' for Inactive)
REMARK    1  A    between atoms: C_1  and  C_2
REMARK    2  A    between atoms: C_2  and  O_3
REMARK    3  A    between atoms: O_3  and  C_4
REMARK    4  A    between atoms: C_9  and  C_10
REMARK    5  A    between atoms: N_29  and  C_32
REMARK    6  A    between atoms: C_32  and  C_33
REMARK    7  A    between atoms: C_36  and  O_41
REMARK    8  A    between atoms: C_37  and  O_39
REMARK    9  A    between atoms: O_39  and  C_40
REMARK   10  A    between atoms: O_41  and  C_42
REMARK                            x       y       z     vdW  Elec       q    Type
REMARK                         _______ _______ _______ _____ _____    ______ ____
ROOT
ATOM      1  C   UNL     1       2.055  -1.434   3.442  0.00  0.00    +0.137 C 
ATOM      2  C   UNL     1       0.965  -1.029   4.433  0.00  0.00    +0.131 C 
ATOM      3  C   UNL     1       0.744  -2.244   5.330  0.00  0.00    -0.034 C 
ATOM      4  C   UNL     1      -0.518  -2.616   5.167  0.00  0.00    -0.001 A 
ATOM      5  C   UNL     1      -1.309  -3.695   5.781  0.00  0.00    +0.010 A 
ATOM      6  C   UNL     1      -2.602  -3.798   5.373  0.00  0.00    +0.001 A 
ATOM      7  C   UNL     1      -3.180  -2.946   4.427  0.00  0.00    +0.002 A 
ATOM      8  C   UNL     1      -2.527  -1.928   3.812  0.00  0.00    +0.026 A 
ATOM      9  C   UNL     1      -1.161  -1.718   4.160  0.00  0.00    +0.043 A 
ATOM     10  N   UNL     1      -0.308  -0.808   3.734  0.00  0.00    -0.375 N 
ATOM     11  C   UNL     1       1.861  -2.813   6.162  0.00  0.00    +0.065 C 
ATOM     12  C   UNL     1       3.140  -2.815   5.366  0.00  0.00    +0.167 C 
ATOM     13  N   UNL     1       3.161  -2.115   4.100  0.00  0.00    -0.279 N 
ATOM     14  C   UNL     1       4.360  -2.148   3.431  0.00  0.00    +0.234 C 
ATOM     15  O   UNL     1       4.525  -1.543   2.393  0.00  0.00    -0.274 OA
ATOM     16  C   UNL     1       5.467  -2.974   4.051  0.00  0.00    +0.204 C 
ATOM     17  N   UNL     1       4.896  -4.257   4.502  0.00  0.00    -0.287 N 
ATOM     18  C   UNL     1       3.724  -4.194   5.191  0.00  0.00    +0.237 C 
ATOM     19  O   UNL     1       3.185  -5.185   5.637  0.00  0.00    -0.274 OA
ATOM     20  H   UNL     1      -0.479  -0.115   3.076  0.00  0.00    +0.160 HD
ENDROOT
BRANCH   1  26
ATOM     21  C   UNL     1       0.802  -1.824   1.306  0.00  0.00    +0.125 A 
ATOM     22  C   UNL     1       0.260  -2.673   0.351  0.00  0.00    +0.046 A 
ATOM     23  C   UNL     1       0.372  -4.041   0.501  0.00  0.00    +0.004 A 
ATOM     24  C   UNL     1       1.024  -4.566   1.602  0.00  0.00    +0.001 A 
ATOM     25  C   UNL     1       1.565  -3.723   2.555  0.00  0.00    +0.009 A 
ATOM     26  C   UNL     1       1.460  -2.353   2.406  0.00  0.00    +0.017 A 
BRANCH  21  27
ATOM     27  O   UNL     1       0.693  -0.477   1.160  0.00  0.00    -0.492 OA
BRANCH  27  29
ATOM     28  C   UNL     1      -0.019   1.526   0.010  0.00  0.00    +0.048 C 
ATOM     29  C   UNL     1       0.002  -0.004   0.002  0.00  0.00    +0.225 C 
ENDBRANCH  27  29
ENDBRANCH  21  27
ENDBRANCH   1  26
BRANCH  17  30
ATOM     30  C   UNL     1       5.558  -5.534   4.223  0.00  0.00    +0.143 C 
BRANCH  30  31
ATOM     31  C   UNL     1       6.507  -5.864   5.345  0.00  0.00    -0.026 A 
ATOM     32  C   UNL     1       7.819  -5.430   5.290  0.00  0.00    +0.009 A 
ATOM     33  C   UNL     1       8.694  -5.731   6.317  0.00  0.00    +0.050 A 
ATOM     34  C   UNL     1       8.256  -6.468   7.406  0.00  0.00    +0.162 A 
ATOM     35  C   UNL     1       6.936  -6.905   7.462  0.00  0.00    +0.162 A 
ATOM     36  C   UNL     1       6.063  -6.596   6.431  0.00  0.00    +0.054 A 
BRANCH  35  37
ATOM     37  O   UNL     1       6.502  -7.629   8.528  0.00  0.00    -0.491 OA
ATOM     38  C   UNL     1       5.135  -8.043   8.518  0.00  0.00    +0.277 C 
ENDBRANCH  35  37
BRANCH  34  39
ATOM     39  O   UNL     1       9.116  -6.765   8.417  0.00  0.00    -0.491 OA
ATOM     40  C   UNL     1      10.456  -6.285   8.292  0.00  0.00    +0.277 C 
ENDBRANCH  34  39
ENDBRANCH  30  31
ENDBRANCH  17  30
TORSDOF 7
