REMARK  Name = ZINC08448851
REMARK  11 active torsions:
REMARK  status: ('A' for Active; 'I' for Inactive)
REMARK    1  A    between atoms: C_1  and  N_63
REMARK    2  A    between atoms: C_12  and  C_15
REMARK    3  A    between atoms: C_19  and  O_21
REMARK    4  A    between atoms: O_21  and  C_22
REMARK    5  A    between atoms: C_22  and  C_24
REMARK    6  A    between atoms: C_26  and  O_34
REMARK    7  A    between atoms: C_27  and  O_32
REMARK    8  A    between atoms: C_28  and  O_30
REMARK    9  A    between atoms: O_30  and  C_31
REMARK   10  A    between atoms: O_32  and  C_33
REMARK   11  A    between atoms: O_34  and  C_35
REMARK                            x       y       z     vdW  Elec       q    Type
REMARK                         _______ _______ _______ _____ _____    ______ ____
ROOT
ATOM      1  C   UNL     1      -5.740   2.891   4.019  0.00  0.00    -0.006 A 
ATOM      2  C   UNL     1      -6.658   3.142   3.016  0.00  0.00    +0.007 A 
ATOM      3  C   UNL     1      -7.022   4.443   2.719  0.00  0.00    +0.004 A 
ATOM      4  C   UNL     1      -6.460   5.495   3.416  0.00  0.00    +0.046 A 
ATOM      5  C   UNL     1      -5.535   5.245   4.419  0.00  0.00    +0.132 A 
ATOM      6  C   UNL     1      -5.176   3.939   4.719  0.00  0.00    +0.053 A 
ENDROOT
BRANCH   1  18
ATOM      7  C   UNL     1       0.348   0.947  -1.881  0.00  0.00    -0.096 C 
ATOM      8  C   UNL     1       0.075   0.712   0.514  0.00  0.00    -0.074 C 
ATOM      9  C   UNL     1      -0.687   1.280   1.714  0.00  0.00    +0.018 C 
ATOM     10  C   UNL     1      -2.165   0.962   1.537  0.00  0.00    -0.027 A 
ATOM     11  C   UNL     1      -2.639   0.613   0.318  0.00  0.00    -0.021 A 
ATOM     12  S   UNL     1      -4.369   0.326   0.566  0.00  0.00    -0.080 S 
ATOM     13  C   UNL     1      -4.459   0.662   2.242  0.00  0.00    +0.080 A 
ATOM     14  C   UNL     1      -3.147   1.002   2.606  0.00  0.00    +0.068 A 
ATOM     15  C   UNL     1      -2.899   1.350   4.024  0.00  0.00    +0.248 C 
ATOM     16  O   UNL     1      -1.771   1.535   4.444  0.00  0.00    -0.270 OA
ATOM     17  N   UNL     1      -3.975   1.454   4.832  0.00  0.00    -0.289 N 
ATOM     18  C   UNL     1      -5.350   1.472   4.344  0.00  0.00    +0.190 C 
ATOM     19  N   UNL     1      -5.499   0.641   3.135  0.00  0.00    -0.316 N 
ATOM     20  C   UNL     1      -1.846   0.502  -0.946  0.00  0.00    -0.036 C 
ATOM     21  H   UNL     1      -3.826   1.519   5.788  0.00  0.00    +0.151 HD
ATOM     22  H   UNL     1      -6.293   0.106   2.980  0.00  0.00    +0.149 HD
ATOM     23  N   UNL     1      -0.552   1.194  -0.734  0.00  0.00    +0.381 N 
ATOM     24  H   UNL     1      -0.722   2.203  -0.655  0.00  0.00    -0.082 HD
ENDBRANCH   1  18
BRANCH   5  25
ATOM     25  O   UNL     1      -4.981   6.279   5.107  0.00  0.00    -0.422 OA
BRANCH  25  26
ATOM     26  C   UNL     1      -3.672   6.521   4.898  0.00  0.00    +0.345 C 
ATOM     27  O   UNL     1      -3.067   5.899   4.047  0.00  0.00    -0.245 OA
BRANCH  26  28
ATOM     28  C   UNL     1      -2.974   7.542   5.702  0.00  0.00    +0.067 A 
ATOM     29  C   UNL     1      -3.670   8.262   6.676  0.00  0.00    +0.064 A 
ATOM     30  C   UNL     1      -3.012   9.214   7.432  0.00  0.00    +0.166 A 
ATOM     31  C   UNL     1      -1.659   9.463   7.215  0.00  0.00    +0.204 A 
ATOM     32  C   UNL     1      -0.964   8.751   6.241  0.00  0.00    +0.166 A 
ATOM     33  C   UNL     1      -1.616   7.794   5.486  0.00  0.00    +0.064 A 
BRANCH  32  34
ATOM     34  O   UNL     1       0.356   8.998   6.031  0.00  0.00    -0.491 OA
ATOM     35  C   UNL     1       1.006   8.231   5.015  0.00  0.00    +0.277 C 
ENDBRANCH  32  34
BRANCH  31  36
ATOM     36  O   UNL     1      -1.015  10.403   7.956  0.00  0.00    -0.488 OA
ATOM     37  C   UNL     1      -1.010  11.739   7.447  0.00  0.00    +0.277 C 
ENDBRANCH  31  36
BRANCH  30  38
ATOM     38  O   UNL     1      -3.687   9.911   8.385  0.00  0.00    -0.491 OA
ATOM     39  C   UNL     1      -5.072   9.603   8.554  0.00  0.00    +0.277 C 
ENDBRANCH  30  38
ENDBRANCH  26  28
ENDBRANCH  25  26
ENDBRANCH   5  25
TORSDOF 7
