REMARK  Name = ZINC66818491
REMARK  2 active torsions:
REMARK  status: ('A' for Active; 'I' for Inactive)
REMARK    1  A    between atoms: C_4  and  C_7
REMARK    2  A    between atoms: C_19  and  N_21
REMARK                            x       y       z     vdW  Elec       q    Type
REMARK                         _______ _______ _______ _____ _____    ______ ____
ROOT
ATOM      1  C   UNL     1       3.813  -0.621  -0.452  0.00  0.00    +0.021 C 
ATOM      2  C   UNL     1       3.654  -1.372   0.866  0.00  0.00    +0.010 C 
ATOM      3  C   UNL     1       5.016  -1.627   1.463  0.00  0.00    +0.019 C 
ATOM      4  C   UNL     1       5.547  -2.996   1.002  0.00  0.00    +0.106 C 
ATOM      5  N   UNL     1       5.254  -3.256  -0.421  0.00  0.00    -0.314 N 
ATOM      6  C   UNL     1       5.398  -2.247  -1.446  0.00  0.00    +0.107 C 
ATOM      7  C   UNL     1       4.058  -1.488  -1.615  0.00  0.00    +0.027 C 
ATOM      8  C   UNL     1       4.822  -4.525  -0.790  0.00  0.00    +0.142 A 
ATOM      9  C   UNL     1       4.889  -5.577   0.119  0.00  0.00    +0.154 A 
ATOM     10  N   UNL     1       4.478  -6.781  -0.233  0.00  0.00    -0.256 NA
ATOM     11  C   UNL     1       4.002  -6.992  -1.447  0.00  0.00    +0.159 A 
ATOM     12  C   UNL     1       3.932  -5.946  -2.359  0.00  0.00    +0.174 A 
ATOM     13  N   UNL     1       4.339  -4.733  -2.009  0.00  0.00    -0.210 NA
ENDROOT
BRANCH   1  17
ATOM     14  C   UNL     1       0.254   1.630  -1.171  0.00  0.00    +0.000 A 
ATOM     15  C   UNL     1       1.462   2.281  -1.009  0.00  0.00    +0.000 A 
ATOM     16  C   UNL     1       2.614   1.553  -0.777  0.00  0.00    +0.004 A 
ATOM     17  C   UNL     1       2.557   0.173  -0.705  0.00  0.00    -0.044 A 
ATOM     18  C   UNL     1       1.348  -0.477  -0.865  0.00  0.00    +0.004 A 
ATOM     19  C   UNL     1       0.197   0.251  -1.099  0.00  0.00    +0.000 A 
ENDBRANCH   1  17
BRANCH  12  20
ATOM     20  N   UNL     1       3.428  -6.171  -3.644  0.00  0.00    -0.220 N 
ATOM     21  C   UNL     1       3.309  -5.245  -4.630  0.00  0.00    +0.116 A 
ATOM     22  C   UNL     1       2.782  -5.864  -5.711  0.00  0.00    +0.041 A 
ATOM     23  C   UNL     1       2.570  -7.207  -5.380  0.00  0.00    +0.135 A 
ATOM     24  N   UNL     1       2.962  -7.393  -4.145  0.00  0.00    -0.173 NA
ENDBRANCH  12  20
TORSDOF 2
