REMARK  Name = ZINC40922483
REMARK  6 active torsions:
REMARK  status: ('A' for Active; 'I' for Inactive)
REMARK    1  A    between atoms: C_6  and  C_7
REMARK    2  A    between atoms: C_16  and  C_19
REMARK    3  A    between atoms: N_21  and  C_22
REMARK    4  A    between atoms: C_22  and  C_23
REMARK    5  A    between atoms: C_23  and  C_24
REMARK    6  A    between atoms: C_24  and  N_25
REMARK                            x       y       z     vdW  Elec       q    Type
REMARK                         _______ _______ _______ _____ _____    ______ ____
ROOT
ATOM      1  C   UNL     1      -1.270  -0.767   0.029  0.00  0.00    +0.093 A 
ATOM      2  C   UNL     1      -1.262  -2.147  -0.202  0.00  0.00    +0.033 A 
ATOM      3  C   UNL     1      -2.475  -2.811  -0.203  0.00  0.00    +0.047 A 
ATOM      4  C   UNL     1      -3.632  -2.064   0.026  0.00  0.00    +0.144 A 
ATOM      5  N   UNL     1      -3.544  -0.758   0.236  0.00  0.00    -0.134 NA
ATOM      6  N   UNL     1      -2.419  -0.141   0.243  0.00  0.00    -0.147 NA
ATOM      7  N   UNL     1      -4.874  -2.689   0.035  0.00  0.00    -0.314 N 
ATOM      8  C   UNL     1      -6.110  -1.895   0.038  0.00  0.00    +0.107 C 
ATOM      9  C   UNL     1      -6.984  -2.351   1.211  0.00  0.00    +0.031 C 
ATOM     10  C   UNL     1      -7.207  -3.862   1.120  0.00  0.00    +0.078 C 
ATOM     11  C   UNL     1      -5.861  -4.585   1.211  0.00  0.00    +0.031 C 
ATOM     12  C   UNL     1      -4.974  -4.154   0.033  0.00  0.00    +0.107 C 
ENDROOT
BRANCH   1  18
ATOM     13  C   UNL     1      -0.004   1.367   0.275  0.00  0.00    +0.013 A 
ATOM     14  C   UNL     1       1.184   2.069   0.285  0.00  0.00    +0.039 A 
ATOM     15  C   UNL     1       2.382   1.411   0.061  0.00  0.00    +0.123 A 
ATOM     16  C   UNL     1       2.394   0.046  -0.174  0.00  0.00    +0.039 A 
ATOM     17  C   UNL     1       1.212  -0.665  -0.185  0.00  0.00    +0.013 A 
ATOM     18  C   UNL     1       0.004  -0.007   0.040  0.00  0.00    +0.002 A 
ATOM     19  F   UNL     1       3.543   2.103   0.071  0.00  0.00    -0.205 F 
ENDBRANCH   1  18
BRANCH  10  20
ATOM     20  C   UNL     1      -8.095  -4.309   2.253  0.00  0.00    +0.216 C 
ATOM     21  O   UNL     1      -8.508  -3.498   3.055  0.00  0.00    -0.276 OA
ATOM     22  N   UNL     1      -8.429  -5.609   2.375  0.00  0.00    -0.315 N 
ATOM     23  H   UNL     1      -8.098  -6.257   1.734  0.00  0.00    +0.149 HD
BRANCH  22  24
ATOM     24  C   UNL     1      -9.291  -6.042   3.477  0.00  0.00    +0.105 C 
BRANCH  24  25
ATOM     25  C   UNL     1      -9.514  -7.553   3.386  0.00  0.00    +0.038 C 
BRANCH  25  26
ATOM     26  C   UNL     1     -10.415  -8.007   4.536  0.00  0.00    +0.109 C 
BRANCH  26  27
ATOM     27  N   UNL     1     -10.629  -9.453   4.449  0.00  0.00    -0.301 N 
ATOM     28  C   UNL     1     -11.723 -10.085   3.703  0.00  0.00    +0.108 C 
ATOM     29  C   UNL     1     -11.305 -11.562   3.529  0.00  0.00    +0.028 C 
ATOM     30  C   UNL     1     -10.354 -11.764   4.732  0.00  0.00    +0.097 C 
ATOM     31  C   UNL     1      -9.844 -10.373   5.037  0.00  0.00    +0.216 C 
ATOM     32  O   UNL     1      -8.870 -10.123   5.715  0.00  0.00    -0.276 OA
ENDBRANCH  26  27
ENDBRANCH  25  26
ENDBRANCH  24  25
ENDBRANCH  22  24
ENDBRANCH  10  20
TORSDOF 6
