REMARK  Name = ZINC39676508
REMARK  9 active torsions:
REMARK  status: ('A' for Active; 'I' for Inactive)
REMARK    1  A    between atoms: C_1  and  O_2
REMARK    2  A    between atoms: O_2  and  C_3
REMARK    3  A    between atoms: C_6  and  C_9
REMARK    4  A    between atoms: C_9  and  C_10
REMARK    5  A    between atoms: C_10  and  C_11
REMARK    6  A    between atoms: C_15  and  C_24
REMARK    7  A    between atoms: N_26  and  C_27
REMARK    8  A    between atoms: C_27  and  C_28
REMARK    9  A    between atoms: C_28  and  C_29
REMARK                            x       y       z     vdW  Elec       q    Type
REMARK                         _______ _______ _______ _____ _____    ______ ____
ROOT
ATOM      1  C   UNL     1       4.702  -3.430  -5.393  0.00  0.00    +0.216 C 
ATOM      2  O   UNL     1       4.072  -3.765  -6.374  0.00  0.00    -0.276 OA
ATOM      3  N   UNL     1       6.010  -3.741  -5.294  0.00  0.00    -0.300 N 
ATOM      4  C   UNL     1       6.936  -3.427  -4.180  0.00  0.00    +0.121 C 
ATOM      5  C   UNL     1       7.813  -4.691  -4.034  0.00  0.00    +0.100 C 
ATOM      6  C   UNL     1       7.752  -5.372  -5.412  0.00  0.00    -0.004 C 
ATOM      7  C   UNL     1       6.845  -4.479  -6.271  0.00  0.00    +0.115 C 
ATOM      8  C   UNL     1       9.148  -5.453  -6.024  0.00  0.00    -0.010 C 
ATOM      9  C   UNL     1       9.069  -6.186  -7.366  0.00  0.00    -0.082 C 
ATOM     10  N   UNL     1       8.525  -7.533  -7.159  0.00  0.00    +0.379 N 
ATOM     11  C   UNL     1       7.148  -7.445  -6.658  0.00  0.00    -0.082 C 
ATOM     12  C   UNL     1       7.145  -6.766  -5.286  0.00  0.00    -0.010 C 
ATOM     13  H   UNL     1       8.531  -8.035  -8.035  0.00  0.00    -0.086 HD
ATOM     14  H   UNL     1       9.095  -8.026  -6.488  0.00  0.00    -0.086 HD
ENDROOT
BRANCH   5  15
ATOM     15  C   UNL     1       9.232  -4.309  -3.698  0.00  0.00    +0.218 C 
ATOM     16  O   UNL     1       9.689  -3.259  -4.099  0.00  0.00    -0.275 OA
ATOM     17  N   UNL     1       9.992  -5.133  -2.950  0.00  0.00    -0.315 N 
ATOM     18  H   UNL     1       9.627  -5.972  -2.629  0.00  0.00    +0.149 HD
BRANCH  17  19
ATOM     19  C   UNL     1      11.371  -4.761  -2.623  0.00  0.00    +0.109 C 
BRANCH  19  20
ATOM     20  C   UNL     1      12.007  -5.862  -1.772  0.00  0.00    +0.056 C 
BRANCH  20  21
ATOM     21  C   UNL     1      13.426  -5.480  -1.435  0.00  0.00    -0.021 A 
ATOM     22  C   UNL     1      13.859  -4.635  -0.319  0.00  0.00    +0.004 A 
ATOM     23  C   UNL     1      13.190  -3.965   0.707  0.00  0.00    +0.030 A 
ATOM     24  C   UNL     1      13.910  -3.234   1.625  0.00  0.00    +0.042 A 
ATOM     25  C   UNL     1      15.294  -3.161   1.536  0.00  0.00    +0.022 A 
ATOM     26  C   UNL     1      15.968  -3.817   0.529  0.00  0.00    +0.027 A 
ATOM     27  C   UNL     1      15.261  -4.561  -0.409  0.00  0.00    +0.047 A 
ATOM     28  N   UNL     1      15.638  -5.310  -1.502  0.00  0.00    -0.360 N 
ATOM     29  C   UNL     1      14.532  -5.854  -2.097  0.00  0.00    +0.087 A 
ATOM     30 CL   UNL     1      13.082  -2.398   2.903  0.00  0.00    -0.084 Cl
ATOM     31  H   UNL     1      16.551  -5.436  -1.804  0.00  0.00    +0.165 HD
ENDBRANCH  20  21
ENDBRANCH  19  20
ENDBRANCH  17  19
ENDBRANCH   5  15
BRANCH   1  32
ATOM     32  C   UNL     1       4.023  -2.668  -4.285  0.00  0.00    +0.100 C 
BRANCH  32  33
ATOM     33  C   UNL     1       2.552  -2.447  -4.644  0.00  0.00    +0.044 C 
BRANCH  33  37
ATOM     34  C   UNL     1       0.625  -0.285  -1.502  0.00  0.00    +0.120 A 
ATOM     35  C   UNL     1       1.225   0.399  -2.550  0.00  0.00    +0.046 A 
ATOM     36  C   UNL     1       1.847  -0.302  -3.564  0.00  0.00    +0.007 A 
ATOM     37  C   UNL     1       1.873  -1.685  -3.536  0.00  0.00    -0.047 A 
ATOM     38  C   UNL     1       1.275  -2.368  -2.493  0.00  0.00    +0.007 A 
ATOM     39  C   UNL     1       0.657  -1.671  -1.474  0.00  0.00    +0.046 A 
BRANCH  34  41
ATOM     40  C   UNL     1       0.018   1.829  -0.599  0.00  0.00    +0.277 C 
ATOM     41  O   UNL     1       0.012   0.403  -0.503  0.00  0.00    -0.495 OA
ENDBRANCH  34  41
ENDBRANCH  33  37
ENDBRANCH  32  33
ENDBRANCH   1  32
TORSDOF 8
