REMARK  Name = ZINC50306728
REMARK  5 active torsions:
REMARK  status: ('A' for Active; 'I' for Inactive)
REMARK    1  A    between atoms: C_1  and  C_2
REMARK    2  A    between atoms: C_2  and  C_3
REMARK    3  A    between atoms: C_4  and  N_19
REMARK    4  A    between atoms: C_5  and  C_9
REMARK    5  A    between atoms: C_16  and  C_18
REMARK                            x       y       z     vdW  Elec       q    Type
REMARK                         _______ _______ _______ _____ _____    ______ ____
ROOT
ATOM      1  C   UNL     1       0.578  -1.761   0.951  0.00  0.00    +0.057 A 
ATOM      2  C   UNL     1       0.063  -1.743   2.209  0.00  0.00    +0.078 A 
ATOM      3  C   UNL     1       1.167  -1.961   3.072  0.00  0.00    +0.168 A 
ATOM      4  N   UNL     1       2.235  -2.092   2.309  0.00  0.00    -0.167 NA
ATOM      5  N   UNL     1       1.913  -1.984   1.070  0.00  0.00    -0.279 N 
ATOM      6  H   UNL     1       2.533  -2.049   0.327  0.00  0.00    +0.189 HD
ENDROOT
BRANCH   3   7
ATOM      7  C   UNL     1       1.129  -2.029   4.545  0.00  0.00    +0.269 C 
ATOM      8  O   UNL     1       0.094  -1.792   5.138  0.00  0.00    -0.268 OA
ATOM      9  N   UNL     1       2.241  -2.353   5.234  0.00  0.00    -0.293 N 
ATOM     10  C   UNL     1       3.526  -2.527   4.542  0.00  0.00    +0.108 C 
ATOM     11  C   UNL     1       4.101  -3.899   4.909  0.00  0.00    +0.019 C 
ATOM     12  C   UNL     1       4.185  -4.021   6.433  0.00  0.00    +0.003 C 
ATOM     13  C   UNL     1       2.782  -3.909   7.033  0.00  0.00    +0.022 C 
ATOM     14  C   UNL     1       2.193  -2.532   6.691  0.00  0.00    +0.073 C 
ATOM     15  C   UNL     1       0.742  -2.460   7.169  0.00  0.00    +0.028 C 
ENDBRANCH   3   7
BRANCH   2  16
ATOM     16  N   UNL     1      -1.277  -1.549   2.576  0.00  0.00    -0.355 N 
ATOM     17  H   UNL     1      -1.951  -1.407   1.893  0.00  0.00    +0.142 HD
ATOM     18  H   UNL     1      -1.529  -1.556   3.513  0.00  0.00    +0.142 HD
ENDBRANCH   2  16
BRANCH   1  20
ATOM     19  C   UNL     1      -0.324  -0.082  -0.635  0.00  0.00    +0.010 C 
ATOM     20  C   UNL     1      -0.189  -1.575  -0.333  0.00  0.00    +0.053 C 
ENDBRANCH   1  20
TORSDOF 3
