REMARK  Name = ZINC09637383
REMARK  9 active torsions:
REMARK  status: ('A' for Active; 'I' for Inactive)
REMARK    1  A    between atoms: C_1  and  C_2
REMARK    2  A    between atoms: C_4  and  C_18
REMARK    3  A    between atoms: C_5  and  C_17
REMARK    4  A    between atoms: N_6  and  C_7
REMARK    5  A    between atoms: C_10  and  S_13
REMARK    6  A    between atoms: S_13  and  N_16
REMARK    7  A    between atoms: C_18  and  C_20
REMARK    8  A    between atoms: C_20  and  N_55
REMARK    9  A    between atoms: C_24  and  C_26
REMARK                            x       y       z     vdW  Elec       q    Type
REMARK                         _______ _______ _______ _____ _____    ______ ____
ROOT
ATOM      1  C   UNL     1       3.509  -0.291   5.049  0.00  0.00    +0.064 C 
ATOM      2  C   UNL     1       3.628   1.183   4.761  0.00  0.00    +0.022 A 
ATOM      3  C   UNL     1       3.070   1.821   3.719  0.00  0.00    +0.034 A 
ATOM      4  C   UNL     1       3.454   3.234   3.842  0.00  0.00    +0.037 A 
ATOM      5  C   UNL     1       4.224   3.319   4.987  0.00  0.00    +0.031 A 
ATOM      6  N   UNL     1       4.317   2.087   5.522  0.00  0.00    -0.317 N 
ATOM      7  C   UNL     1       4.850   4.573   5.540  0.00  0.00    +0.064 C 
ENDROOT
BRANCH   6   8
ATOM      8  C   UNL     1       5.020   1.774   6.694  0.00  0.00    +0.047 A 
ATOM      9  C   UNL     1       6.401   1.913   6.734  0.00  0.00    +0.028 A 
ATOM     10  C   UNL     1       7.091   1.610   7.891  0.00  0.00    +0.030 A 
ATOM     11  C   UNL     1       6.409   1.157   9.006  0.00  0.00    +0.105 A 
ATOM     12  C   UNL     1       5.035   1.012   8.967  0.00  0.00    +0.030 A 
ATOM     13  C   UNL     1       4.338   1.320   7.815  0.00  0.00    +0.028 A 
BRANCH  11  14
ATOM     14  S   UNL     1       7.294   0.764  10.478  0.00  0.00    +0.056 S 
ATOM     15  O   UNL     1       8.507   1.503  10.433  0.00  0.00    -0.153 OA
ATOM     16  O   UNL     1       6.369   0.883  11.551  0.00  0.00    -0.153 OA
BRANCH  14  17
ATOM     17  N   UNL     1       7.710  -0.836  10.387  0.00  0.00    -0.204 NA
ATOM     18  H   UNL     1       8.518  -1.152  10.821  0.00  0.00    +0.144 HD
ATOM     19  H   UNL     1       7.146  -1.457   9.900  0.00  0.00    +0.144 HD
ENDBRANCH  14  17
ENDBRANCH  11  14
ENDBRANCH   6   8
BRANCH   4  20
ATOM     20  C   UNL     1       3.091   4.328   2.939  0.00  0.00    +0.149 C 
ATOM     21  O   UNL     1       3.477   5.456   3.167  0.00  0.00    -0.294 OA
BRANCH  20  22
ATOM     22  C   UNL     1       2.239   4.054   1.727  0.00  0.00    +0.003 C 
BRANCH  22  27
ATOM     23  C   UNL     1       3.230   5.702   0.243  0.00  0.00    -0.077 C 
ATOM     24  C   UNL     1       2.698   6.385  -1.041  0.00  0.00    -0.020 C 
ATOM     25  C   UNL     1       1.450   5.519  -1.362  0.00  0.00    -0.012 C 
ATOM     26  C   UNL     1       0.902   5.168   0.037  0.00  0.00    -0.030 C 
ATOM     27  N   UNL     1       2.014   5.324   0.989  0.00  0.00    +0.389 N 
ATOM     28  H   UNL     1       1.783   6.066   1.661  0.00  0.00    -0.080 HD
BRANCH  26  29
ATOM     29  C   UNL     1       0.392   3.749   0.046  0.00  0.00    -0.024 A 
ATOM     30  C   UNL     1      -0.858   3.294   0.302  0.00  0.00    +0.009 A 
ATOM     31  C   UNL     1      -1.100   1.934   0.247  0.00  0.00    +0.008 A 
ATOM     32  C   UNL     1      -0.077   1.095  -0.050  0.00  0.00    +0.045 A 
ATOM     33  S   UNL     1       1.279   2.234  -0.278  0.00  0.00    -0.103 S 
ENDBRANCH  26  29
ENDBRANCH  22  27
ENDBRANCH  20  22
ENDBRANCH   4  20
TORSDOF 7
