REMARK  Name = ZINC22680499
REMARK  11 active torsions:
REMARK  status: ('A' for Active; 'I' for Inactive)
REMARK    1  A    between atoms: C_1  and  C_2
REMARK    2  A    between atoms: C_2  and  C_3
REMARK    3  A    between atoms: C_3  and  N_4
REMARK    4  A    between atoms: N_11  and  C_14
REMARK    5  A    between atoms: C_14  and  C_15
REMARK    6  A    between atoms: N_17  and  C_18
REMARK    7  A    between atoms: C_18  and  C_19
REMARK    8  A    between atoms: C_19  and  C_21
REMARK    9  A    between atoms: C_19  and  N_29
REMARK   10  A    between atoms: C_26  and  O_27
REMARK   11  A    between atoms: O_27  and  C_28
REMARK                            x       y       z     vdW  Elec       q    Type
REMARK                         _______ _______ _______ _____ _____    ______ ____
ROOT
ATOM      1  C   UNL     1       3.137  -5.605  -1.488  0.00  0.00    +0.233 C 
ATOM      2  O   UNL     1       3.222  -4.874  -2.452  0.00  0.00    -0.274 OA
ATOM      3  N   UNL     1       3.974  -6.653  -1.361  0.00  0.00    -0.315 N 
ATOM      4  H   UNL     1       3.897  -7.316  -0.487  0.00  0.00    +0.149 HD
ENDROOT
BRANCH   1   5
ATOM      5  C   UNL     1       2.095  -5.340  -0.432  0.00  0.00    +0.222 C 
BRANCH   5  13
ATOM      6  N   UNL     1       0.680  -2.053  -0.964  0.00  0.00    -0.292 N 
ATOM      7  C   UNL     1      -0.252  -2.814  -1.667  0.00  0.00    +0.070 A 
ATOM      8  C   UNL     1      -1.397  -2.494  -2.380  0.00  0.00    +0.028 A 
ATOM      9  C   UNL     1      -2.132  -3.496  -2.984  0.00  0.00    +0.002 A 
ATOM     10  C   UNL     1      -1.731  -4.816  -2.880  0.00  0.00    +0.002 A 
ATOM     11  C   UNL     1      -0.591  -5.144  -2.172  0.00  0.00    +0.028 A 
ATOM     12  C   UNL     1       0.153  -4.146  -1.562  0.00  0.00    +0.070 A 
ATOM     13  N   UNL     1       1.318  -4.154  -0.798  0.00  0.00    -0.283 N 
ATOM     14  C   UNL     1       1.612  -2.884  -0.460  0.00  0.00    +0.331 A 
ATOM     15  O   UNL     1       2.572  -2.540   0.204  0.00  0.00    -0.246 OA
BRANCH   6  16
ATOM     16  C   UNL     1       0.653  -0.597  -0.805  0.00  0.00    +0.127 C 
BRANCH  16  18
ATOM     17  C   UNL     1      -0.171   1.286   0.615  0.00  0.00    +0.005 C 
ATOM     18  C   UNL     1      -0.143  -0.235   0.450  0.00  0.00    +0.018 C 
ENDBRANCH  16  18
ENDBRANCH   6  16
ENDBRANCH   5  13
ENDBRANCH   1   5
BRANCH   3  19
ATOM     19  C   UNL     1       4.987  -6.910  -2.388  0.00  0.00    +0.093 C 
BRANCH  19  20
ATOM     20  C   UNL     1       5.879  -8.072  -1.945  0.00  0.00    -0.017 C 
BRANCH  20  21
ATOM     21  C   UNL     1       6.989  -8.263  -2.947  0.00  0.00    -0.018 A 
ATOM     22  C   UNL     1       8.204  -7.631  -2.761  0.00  0.00    +0.005 A 
ATOM     23  C   UNL     1       9.222  -7.806  -3.679  0.00  0.00    +0.000 A 
ATOM     24  C   UNL     1       9.028  -8.614  -4.785  0.00  0.00    +0.004 A 
ATOM     25  C   UNL     1       7.816  -9.247  -4.975  0.00  0.00    +0.046 A 
ATOM     26  C   UNL     1       6.794  -9.078  -4.052  0.00  0.00    +0.122 A 
BRANCH  26  27
ATOM     27  O   UNL     1       5.602  -9.704  -4.234  0.00  0.00    -0.495 OA
ATOM     28  C   UNL     1       5.472 -10.528  -5.395  0.00  0.00    +0.277 C 
ENDBRANCH  26  27
ENDBRANCH  20  21
BRANCH  20  29
ATOM     29  N   UNL     1       6.455  -7.773  -0.627  0.00  0.00    +0.385 N 
ATOM     30  C   UNL     1       7.617  -8.652  -0.342  0.00  0.00    -0.078 C 
ATOM     31  C   UNL     1       8.383  -7.881   0.762  0.00  0.00    -0.020 C 
ATOM     32  C   UNL     1       8.217  -6.406   0.331  0.00  0.00    -0.020 C 
ATOM     33  C   UNL     1       6.974  -6.389  -0.578  0.00  0.00    -0.078 C 
ATOM     34  H   UNL     1       5.640  -7.924   0.096  0.00  0.00    -0.081 HD
ENDBRANCH  20  29
ENDBRANCH  19  20
ENDBRANCH   3  19
TORSDOF 9
