REMARK  Name = ZINC48403348
REMARK  5 active torsions:
REMARK  status: ('A' for Active; 'I' for Inactive)
REMARK    1  A    between atoms: C_1  and  C_2
REMARK    2  A    between atoms: C_2  and  C_3
REMARK    3  A    between atoms: C_3  and  N_13
REMARK    4  A    between atoms: N_13  and  C_14
REMARK    5  A    between atoms: C_20  and  C_22
REMARK                            x       y       z     vdW  Elec       q    Type
REMARK                         _______ _______ _______ _____ _____    ______ ____
ROOT
ATOM      1  C   UNL     1       0.707  -0.490  -1.238  0.00  0.00    +0.021 C 
ATOM      2  C   UNL     1       2.075  -0.689  -1.210  0.00  0.00    +0.116 C 
ATOM      3  C   UNL     1       2.826  -1.042  -2.429  0.00  0.00    +0.256 C 
ATOM      4  O   UNL     1       2.258  -1.168  -3.498  0.00  0.00    -0.270 OA
ATOM      5  N   UNL     1       4.159  -1.220  -2.327  0.00  0.00    -0.263 N 
ATOM      6  C   UNL     1       4.796  -1.085  -1.156  0.00  0.00    +0.143 C 
ATOM      7  S   UNL     1       6.490  -1.331  -1.122  0.00  0.00    -0.018 S 
ATOM      8  N   UNL     1       4.178  -0.766  -0.010  0.00  0.00    -0.263 N 
ATOM      9  C   UNL     1       2.847  -0.552   0.038  0.00  0.00    +0.256 C 
ATOM     10  O   UNL     1       2.299  -0.258   1.083  0.00  0.00    -0.270 OA
ATOM     11  H   UNL     1       4.668  -1.453  -3.119  0.00  0.00    +0.157 HD
ATOM     12  H   UNL     1       4.701  -0.684   0.803  0.00  0.00    +0.157 HD
ENDROOT
BRANCH   1  14
ATOM     13  C   UNL     1       0.052   1.496   0.095  0.00  0.00    +0.010 C 
ATOM     14  C   UNL     1      -0.012  -0.030   0.004  0.00  0.00    +0.048 C 
ENDBRANCH   1  14
BRANCH   1  15
ATOM     15  N   UNL     1       0.017  -0.708  -2.376  0.00  0.00    -0.343 N 
ATOM     16  H   UNL     1       0.466  -1.079  -3.151  0.00  0.00    +0.146 HD
BRANCH  15  17
ATOM     17  C   UNL     1      -1.410  -0.382  -2.440  0.00  0.00    +0.073 C 
ATOM     18  C   UNL     1      -2.225  -1.556  -1.894  0.00  0.00    +0.022 C 
ATOM     19  C   UNL     1      -3.716  -1.216  -1.962  0.00  0.00    +0.002 C 
ATOM     20  C   UNL     1      -4.113  -0.951  -3.415  0.00  0.00    +0.000 C 
ATOM     21  C   UNL     1      -3.297   0.222  -3.961  0.00  0.00    +0.005 C 
ATOM     22  C   UNL     1      -1.807  -0.117  -3.894  0.00  0.00    +0.006 C 
ATOM     23  C   UNL     1      -0.991   1.056  -4.440  0.00  0.00    +0.009 C 
ENDBRANCH  15  17
ENDBRANCH   1  15
TORSDOF 3
