REMARK  Name = ZINC11838965
REMARK  9 active torsions:
REMARK  status: ('A' for Active; 'I' for Inactive)
REMARK    1  A    between atoms: C_1  and  C_2
REMARK    2  A    between atoms: C_4  and  C_7
REMARK    3  A    between atoms: C_7  and  N_8
REMARK    4  A    between atoms: C_9  and  C_11
REMARK    5  A    between atoms: C_11  and  C_12
REMARK    6  A    between atoms: N_19  and  C_20
REMARK    7  A    between atoms: C_20  and  C_21
REMARK    8  A    between atoms: C_21  and  C_22
REMARK    9  A    between atoms: C_21  and  C_28
REMARK                            x       y       z     vdW  Elec       q    Type
REMARK                         _______ _______ _______ _____ _____    ______ ____
ROOT
ATOM      1  C   UNL     1       2.794  -6.590  -4.786  0.00  0.00    +0.028 C 
ATOM      2  C   UNL     1       4.205  -6.834  -5.240  0.00  0.00    +0.200 C 
ATOM      3  O   UNL     1       4.833  -5.909  -5.711  0.00  0.00    -0.278 OA
ATOM      4  N   UNL     1       4.797  -8.029  -5.146  0.00  0.00    -0.318 N 
ATOM      5  C   UNL     1       4.132  -9.194  -4.568  0.00  0.00    +0.085 C 
ATOM      6  C   UNL     1       2.621  -8.960  -4.520  0.00  0.00    -0.059 C 
ATOM      7  N   UNL     1       2.365  -7.662  -3.879  0.00  0.00    +0.389 N 
ATOM      8  H   UNL     1       5.705  -8.127  -5.474  0.00  0.00    +0.149 HD
ATOM      9  H   UNL     1       2.884  -7.601  -3.016  0.00  0.00    -0.081 HD
ENDROOT
BRANCH   1  10
ATOM     10  C   UNL     1       2.721  -5.247  -4.056  0.00  0.00    +0.089 C 
BRANCH  10  12
ATOM     11  N   UNL     1       3.852  -4.137  -2.157  0.00  0.00    -0.308 N 
ATOM     12  C   UNL     1       3.712  -5.239  -2.921  0.00  0.00    +0.212 C 
ATOM     13  O   UNL     1       4.385  -6.223  -2.695  0.00  0.00    -0.276 OA
ATOM     14  H   UNL     1       3.315  -3.350  -2.338  0.00  0.00    +0.149 HD
BRANCH  11  15
ATOM     15  C   UNL     1       4.816  -4.128  -1.054  0.00  0.00    +0.181 C 
BRANCH  15  19
ATOM     16  C   UNL     1       3.598  -0.343   2.130  0.00  0.00    +0.069 C 
ATOM     17  C   UNL     1       4.258  -1.121   1.021  0.00  0.00    +0.081 A 
ATOM     18  C   UNL     1       3.987  -2.457   0.675  0.00  0.00    +0.072 A 
ATOM     19  C   UNL     1       4.777  -2.789  -0.363  0.00  0.00    +0.154 A 
ATOM     20  O   UNL     1       5.525  -1.719  -0.675  0.00  0.00    -0.358 OA
ATOM     21  N   UNL     1       5.175  -0.672   0.211  0.00  0.00    -0.083 NA
ENDBRANCH  15  19
ENDBRANCH  11  15
ENDBRANCH  10  12
ENDBRANCH   1  10
BRANCH   7  22
ATOM     22  C   UNL     1       0.929  -7.527  -3.602  0.00  0.00    -0.065 C 
BRANCH  22  23
ATOM     23  C   UNL     1       0.548  -8.434  -2.430  0.00  0.00    +0.032 C 
BRANCH  23  24
ATOM     24  C   UNL     1      -0.840  -8.086  -1.956  0.00  0.00    -0.042 A 
ATOM     25  C   UNL     1      -1.881  -8.009  -2.863  0.00  0.00    +0.004 A 
ATOM     26  C   UNL     1      -3.153  -7.690  -2.428  0.00  0.00    +0.000 A 
ATOM     27  C   UNL     1      -3.385  -7.449  -1.087  0.00  0.00    +0.000 A 
ATOM     28  C   UNL     1      -2.345  -7.527  -0.180  0.00  0.00    +0.000 A 
ATOM     29  C   UNL     1      -1.073  -7.850  -0.614  0.00  0.00    +0.004 A 
ENDBRANCH  23  24
BRANCH  23  30
ATOM     30  C   UNL     1       0.580  -9.873  -2.878  0.00  0.00    -0.042 A 
ATOM     31  C   UNL     1       1.282 -10.809  -2.142  0.00  0.00    +0.004 A 
ATOM     32  C   UNL     1       1.311 -12.129  -2.552  0.00  0.00    +0.000 A 
ATOM     33  C   UNL     1       0.639 -12.512  -3.698  0.00  0.00    +0.000 A 
ATOM     34  C   UNL     1      -0.064 -11.576  -4.433  0.00  0.00    +0.000 A 
ATOM     35  C   UNL     1      -0.097 -10.257  -4.020  0.00  0.00    +0.004 A 
ENDBRANCH  23  30
ENDBRANCH  22  23
ENDBRANCH   7  22
TORSDOF 8
