REMARK  Name = ZINC08683467
REMARK  5 active torsions:
REMARK  status: ('A' for Active; 'I' for Inactive)
REMARK    1  A    between atoms: C_1  and  C_2
REMARK    2  A    between atoms: N_5  and  C_8
REMARK    3  A    between atoms: C_9  and  N_20
REMARK    4  A    between atoms: N_20  and  S_21
REMARK    5  A    between atoms: S_21  and  C_24
REMARK                            x       y       z     vdW  Elec       q    Type
REMARK                         _______ _______ _______ _____ _____    ______ ____
ROOT
ATOM      1  C   UNL     1       0.680  -3.069   0.839  0.00  0.00    +0.104 C 
ATOM      2  C   UNL     1       0.678  -3.569   2.103  0.00  0.00    +0.120 C 
ATOM      3  C   UNL     1      -0.366  -4.511   2.538  0.00  0.00    +0.211 C 
ATOM      4  O   UNL     1      -0.357  -4.951   3.671  0.00  0.00    -0.285 OA
ATOM      5  C   UNL     1      -1.429  -4.920   1.591  0.00  0.00    +0.034 A 
ATOM      6  C   UNL     1      -2.424  -5.807   1.981  0.00  0.00    +0.012 A 
ATOM      7  C   UNL     1      -3.410  -6.176   1.078  0.00  0.00    +0.001 A 
ATOM      8  C   UNL     1      -3.408  -5.669  -0.206  0.00  0.00    +0.001 A 
ATOM      9  C   UNL     1      -2.421  -4.782  -0.609  0.00  0.00    +0.012 A 
ATOM     10  C   UNL     1      -1.427  -4.403   0.284  0.00  0.00    +0.034 A 
ATOM     11  C   UNL     1      -0.366  -3.453  -0.123  0.00  0.00    +0.210 C 
ATOM     12  O   UNL     1      -0.357  -2.996  -1.249  0.00  0.00    -0.285 OA
ENDROOT
BRANCH   1  17
ATOM     13  C   UNL     1       3.905  -0.363  -2.685  0.00  0.00    +0.007 C 
ATOM     14  C   UNL     1       3.372  -0.752  -1.304  0.00  0.00    -0.011 C 
ATOM     15  C   UNL     1       3.571  -2.253  -1.085  0.00  0.00    +0.022 C 
ATOM     16  C   UNL     1       3.068  -2.632   0.312  0.00  0.00    +0.105 C 
ATOM     17  N   UNL     1       1.677  -2.181   0.452  0.00  0.00    -0.325 N 
ATOM     18  C   UNL     1       1.360  -0.773   0.175  0.00  0.00    +0.105 C 
ATOM     19  C   UNL     1       1.882  -0.415  -1.220  0.00  0.00    +0.022 C 
ENDBRANCH   1  17
BRANCH   2  20
ATOM     20  N   UNL     1       1.674  -3.187   2.995  0.00  0.00    -0.211 N 
ATOM     21  H   UNL     1       2.325  -2.516   2.736  0.00  0.00    +0.174 HD
BRANCH  20  22
ATOM     22  S   UNL     1       1.749  -3.878   4.498  0.00  0.00    +0.073 S 
ATOM     23  O   UNL     1       2.967  -3.441   5.085  0.00  0.00    -0.150 OA
ATOM     24  O   UNL     1       0.486  -3.657   5.110  0.00  0.00    -0.150 OA
BRANCH  22  25
ATOM     25  C   UNL     1       1.898  -5.618   4.265  0.00  0.00    +0.109 A 
ATOM     26  C   UNL     1       0.917  -6.466   4.744  0.00  0.00    +0.030 A 
ATOM     27  C   UNL     1       1.033  -7.831   4.561  0.00  0.00    +0.022 A 
ATOM     28  C   UNL     1       2.132  -8.349   3.899  0.00  0.00    +0.041 A 
ATOM     29  C   UNL     1       3.113  -7.500   3.419  0.00  0.00    +0.022 A 
ATOM     30  C   UNL     1       2.993  -6.134   3.598  0.00  0.00    +0.030 A 
ATOM     31 CL   UNL     1       2.279 -10.063   3.670  0.00  0.00    -0.084 Cl
ENDBRANCH  22  25
ENDBRANCH  20  22
ENDBRANCH   2  20
TORSDOF 4
