REMARK  Name = ZINC43265206
REMARK  5 active torsions:
REMARK  status: ('A' for Active; 'I' for Inactive)
REMARK    1  A    between atoms: C_6  and  O_7
REMARK    2  A    between atoms: O_7  and  C_8
REMARK    3  A    between atoms: C_8  and  C_10
REMARK    4  A    between atoms: C_8  and  C_12
REMARK    5  A    between atoms: C_10  and  N_11
REMARK                            x       y       z     vdW  Elec       q    Type
REMARK                         _______ _______ _______ _____ _____    ______ ____
ROOT
ATOM      1  C   UNL     1      -1.073  -2.122  -0.110  0.00  0.00    +0.193 C 
ENDROOT
BRANCH   1   2
ATOM      2  C   UNL     1      -2.291  -2.757   0.509  0.00  0.00    +0.029 A 
ATOM      3  C   UNL     1      -2.376  -3.874   1.272  0.00  0.00    +0.016 A 
ATOM      4  C   UNL     1      -3.615  -4.276   1.737  0.00  0.00    +0.023 A 
ATOM      5  C   UNL     1      -4.708  -3.540   1.416  0.00  0.00    +0.055 A 
ATOM      6  S   UNL     1      -3.995  -2.230   0.434  0.00  0.00    -0.083 S 
ATOM      7 BR   UNL     1      -6.516  -3.824   1.891  0.00  0.00    -0.043 Br
ENDBRANCH   1   2
BRANCH   1   8
ATOM      8  O   UNL     1      -1.165  -0.701   0.010  0.00  0.00    -0.486 OA
BRANCH   8  14
ATOM      9  C   UNL     1      -0.008   1.371   0.177  0.00  0.00    +0.046 A 
ATOM     10  C   UNL     1       1.180   2.066   0.307  0.00  0.00    +0.018 A 
ATOM     11  C   UNL     1       2.377   1.379   0.397  0.00  0.00    +0.014 A 
ATOM     12  C   UNL     1       2.389  -0.003   0.357  0.00  0.00    +0.018 A 
ATOM     13  C   UNL     1       1.204  -0.702   0.227  0.00  0.00    +0.046 A 
ATOM     14  C   UNL     1       0.002  -0.015   0.137  0.00  0.00    +0.121 A 
ATOM     15  I   UNL     1       4.176   2.435   0.594  0.00  0.00    -0.044 I 
ENDBRANCH   8  14
ENDBRANCH   1   8
BRANCH   1  16
ATOM     16  C   UNL     1      -0.994  -2.505  -1.589  0.00  0.00    -0.036 C 
BRANCH  16  17
ATOM     17  N   UNL     1       0.255  -1.985  -2.163  0.00  0.00    +0.381 N 
ATOM     18  H   UNL     1       1.042  -2.380  -1.670  0.00  0.00    -0.090 HD
ATOM     19  H   UNL     1       0.307  -2.238  -3.138  0.00  0.00    -0.090 HD
ATOM     20  H   UNL     1       0.273  -0.980  -2.074  0.00  0.00    -0.090 HD
ENDBRANCH  16  17
ENDBRANCH   1  16
TORSDOF 5
