REMARK  Name = ZINC39909989
REMARK  4 active torsions:
REMARK  status: ('A' for Active; 'I' for Inactive)
REMARK    1  A    between atoms: C_1  and  C_2
REMARK    2  A    between atoms: C_6  and  N_9
REMARK    3  A    between atoms: C_7  and  C_8
REMARK    4  A    between atoms: C_13  and  C_14
REMARK                            x       y       z     vdW  Elec       q    Type
REMARK                         _______ _______ _______ _____ _____    ______ ____
ROOT
ATOM      1  N   UNL     1       0.002  -3.367   2.093  0.00  0.00    -0.223 N 
ATOM      2  C   UNL     1      -1.134  -3.555   2.745  0.00  0.00    +0.262 C 
ATOM      3  O   UNL     1      -2.212  -3.310   2.239  0.00  0.00    -0.269 OA
ATOM      4  C   UNL     1      -1.021  -4.083   4.128  0.00  0.00    +0.075 C 
ATOM      5  C   UNL     1      -1.983  -4.369   5.013  0.00  0.00    +0.024 C 
ATOM      6  S   UNL     1       0.753  -4.232   4.285  0.00  0.00    -0.061 S 
ATOM      7  C   UNL     1       1.194  -3.646   2.657  0.00  0.00    +0.125 C 
ATOM      8  S   UNL     1       2.756  -3.476   1.976  0.00  0.00    -0.027 S 
ENDROOT
BRANCH   1  14
ATOM      9  C   UNL     1       0.017   0.471  -0.982  0.00  0.00    +0.044 C 
ATOM     10  C   UNL     1      -0.031  -1.014  -0.735  0.00  0.00    -0.046 A 
ATOM     11  C   UNL     1      -0.112  -1.890  -1.803  0.00  0.00    +0.004 A 
ATOM     12  C   UNL     1      -0.155  -3.254  -1.580  0.00  0.00    +0.002 A 
ATOM     13  C   UNL     1      -0.117  -3.746  -0.290  0.00  0.00    +0.024 A 
ATOM     14  C   UNL     1      -0.036  -2.870   0.783  0.00  0.00    +0.046 A 
ATOM     15  C   UNL     1       0.012  -1.501   0.557  0.00  0.00    -0.026 A 
ATOM     16  C   UNL     1       0.106  -0.547   1.720  0.00  0.00    +0.046 C 
ENDBRANCH   1  14
BRANCH   5  17
ATOM     17  C   UNL     1      -3.423  -4.068   4.685  0.00  0.00    +0.152 C 
ATOM     18  C   UNL     1      -4.067  -3.295   5.815  0.00  0.00    +0.005 C 
ATOM     19  C   UNL     1      -5.068  -4.056   6.254  0.00  0.00    +0.017 C 
ATOM     20  C   UNL     1      -5.120  -5.292   5.473  0.00  0.00    +0.105 C 
ATOM     21  N   UNL     1      -4.190  -5.315   4.574  0.00  0.00    -0.280 NA
ENDBRANCH   5  17
TORSDOF 2
