REMARK  Name = ZINC08752299
REMARK  9 active torsions:
REMARK  status: ('A' for Active; 'I' for Inactive)
REMARK    1  A    between atoms: C_1  and  C_2
REMARK    2  A    between atoms: C_5  and  O_26
REMARK    3  A    between atoms: C_6  and  N_8
REMARK    4  A    between atoms: C_9  and  C_11
REMARK    5  A    between atoms: C_11  and  C_13
REMARK    6  A    between atoms: C_11  and  O_14
REMARK    7  A    between atoms: O_14  and  C_15
REMARK    8  A    between atoms: C_15  and  C_17
REMARK    9  A    between atoms: O_26  and  C_27
REMARK                            x       y       z     vdW  Elec       q    Type
REMARK                         _______ _______ _______ _____ _____    ______ ____
ROOT
ATOM      1  C   UNL     1      -4.885   0.010  -0.143  0.00  0.00    +0.259 C 
ATOM      2  C   UNL     1      -4.937   0.799  -1.452  0.00  0.00    +0.062 C 
ENDROOT
BRANCH   1   4
ATOM      3  N   UNL     1      -2.418  -0.038   0.037  0.00  0.00    -0.280 N 
ATOM      4  C   UNL     1      -3.573  -0.727  -0.052  0.00  0.00    +0.258 C 
ATOM      5  O   UNL     1      -3.557  -1.940  -0.059  0.00  0.00    -0.271 OA
ATOM      6  H   UNL     1      -2.435   0.928   0.123  0.00  0.00    +0.155 HD
BRANCH   3  12
ATOM      7  C   UNL     1       0.203  -3.978  -1.300  0.00  0.00    +0.044 C 
ATOM      8  C   UNL     1       0.106  -2.628  -0.636  0.00  0.00    -0.048 A 
ATOM      9  C   UNL     1       1.227  -2.064  -0.055  0.00  0.00    +0.007 A 
ATOM     10  C   UNL     1       1.145  -0.826   0.555  0.00  0.00    +0.048 A 
ATOM     11  C   UNL     1      -0.063  -0.147   0.585  0.00  0.00    +0.141 A 
ATOM     12  C   UNL     1      -1.193  -0.718   0.004  0.00  0.00    +0.076 A 
ATOM     13  C   UNL     1      -1.102  -1.958  -0.611  0.00  0.00    +0.030 A 
BRANCH  11  14
ATOM     14  O   UNL     1      -0.145   1.070   1.185  0.00  0.00    -0.493 OA
ATOM     15  C   UNL     1       1.052   1.590   1.765  0.00  0.00    +0.277 C 
ENDBRANCH  11  14
ENDBRANCH   3  12
ENDBRANCH   1   4
BRANCH   1  16
ATOM     16  O   UNL     1      -5.979  -0.944  -0.110  0.00  0.00    -0.449 OA
BRANCH  16  17
ATOM     17  C   UNL     1      -7.141  -0.524   0.428  0.00  0.00    +0.340 C 
ATOM     18  O   UNL     1      -7.237   0.609   0.857  0.00  0.00    -0.245 OA
BRANCH  17  19
ATOM     19  C   UNL     1      -8.296  -1.438   0.496  0.00  0.00    +0.063 A 
ATOM     20  C   UNL     1      -8.189  -2.740  -0.002  0.00  0.00    +0.019 A 
ATOM     21  C   UNL     1      -9.267  -3.594   0.068  0.00  0.00    +0.050 A 
ATOM     22  C   UNL     1     -10.466  -3.164   0.621  0.00  0.00    +0.166 A 
ATOM     23  C   UNL     1     -10.581  -1.864   1.115  0.00  0.00    +0.167 A 
ATOM     24  C   UNL     1      -9.502  -1.004   1.053  0.00  0.00    +0.064 A 
ATOM     25  O   UNL     1     -11.846  -1.692   1.599  0.00  0.00    -0.453 OA
ATOM     26  C   UNL     1     -12.624  -2.761   1.027  0.00  0.00    +0.466 C 
ATOM     27  O   UNL     1     -11.657  -3.803   0.797  0.00  0.00    -0.453 OA
ENDBRANCH  17  19
ENDBRANCH  16  17
ENDBRANCH   1  16
TORSDOF 6
