REMARK  Name = ZINC20595026
REMARK  16 active torsions:
REMARK  status: ('A' for Active; 'I' for Inactive)
REMARK    1  A    between atoms: C_1  and  C_2
REMARK    2  A    between atoms: C_2  and  C_3
REMARK    3  A    between atoms: C_3  and  N_4
REMARK    4  A    between atoms: N_4  and  C_5
REMARK    5  A    between atoms: N_4  and  C_8
REMARK    6  A    between atoms: C_5  and  C_6
REMARK    7  A    between atoms: C_6  and  C_7
REMARK    8  A    between atoms: C_8  and  N_9
REMARK    9  A    between atoms: N_17  and  N_18
REMARK   10  A    between atoms: C_19  and  C_21
REMARK   11  A    between atoms: C_21  and  O_22
REMARK   12  A    between atoms: O_22  and  C_23
REMARK   13  A    between atoms: C_25  and  C_32
REMARK   14  A    between atoms: C_28  and  C_29
REMARK   15  A    between atoms: C_29  and  C_30
REMARK   16  A    between atoms: C_29  and  C_31
REMARK                            x       y       z     vdW  Elec       q    Type
REMARK                         _______ _______ _______ _____ _____    ______ ____
ROOT
ATOM      1  N   UNL     1       0.984  -2.641   1.079  0.00  0.00    -0.252 N 
ATOM      2  C   UNL     1       0.859  -1.664   2.061  0.00  0.00    +0.047 A 
ATOM      3  C   UNL     1       1.364  -0.371   2.147  0.00  0.00    +0.024 A 
ATOM      4  C   UNL     1       1.088   0.408   3.253  0.00  0.00    +0.002 A 
ATOM      5  C   UNL     1       0.309  -0.085   4.287  0.00  0.00    +0.001 A 
ATOM      6  C   UNL     1      -0.200  -1.366   4.219  0.00  0.00    +0.012 A 
ATOM      7  C   UNL     1       0.072  -2.159   3.109  0.00  0.00    +0.028 A 
ATOM      8  C   UNL     1      -0.308  -3.540   2.731  0.00  0.00    +0.153 C 
ATOM      9  N   UNL     1      -1.044  -4.381   3.416  0.00  0.00    -0.174 NA
ATOM     10  C   UNL     1       0.317  -3.760   1.411  0.00  0.00    +0.272 C 
ATOM     11  O   UNL     1       0.244  -4.775   0.744  0.00  0.00    -0.268 OA
ENDROOT
BRANCH   9  12
ATOM     12  N   UNL     1      -1.307  -5.658   2.905  0.00  0.00    -0.203 N 
ATOM     13  C   UNL     1      -2.064  -6.523   3.609  0.00  0.00    +0.270 C 
ATOM     14  O   UNL     1      -2.517  -6.196   4.685  0.00  0.00    -0.270 OA
ATOM     15  H   UNL     1      -0.945  -5.920   2.044  0.00  0.00    +0.177 HD
BRANCH  13  16
ATOM     16  C   UNL     1      -2.347  -7.897   3.059  0.00  0.00    +0.326 C 
BRANCH  16  17
ATOM     17  O   UNL     1      -3.164  -8.621   3.982  0.00  0.00    -0.482 OA
BRANCH  17  18
ATOM     18  C   UNL     1      -3.513  -9.888   3.635  0.00  0.00    +0.125 A 
ATOM     19  C   UNL     1      -3.073 -10.426   2.434  0.00  0.00    +0.049 A 
ATOM     20  C   UNL     1      -3.429 -11.714   2.084  0.00  0.00    -0.047 A 
ATOM     21  C   UNL     1      -4.223 -12.467   2.930  0.00  0.00    +0.004 A 
ATOM     22  C   UNL     1      -4.662 -11.933   4.127  0.00  0.00    +0.008 A 
ATOM     23  C   UNL     1      -4.305 -10.647   4.484  0.00  0.00    -0.003 A 
ATOM     24  C   UNL     1      -2.952 -12.298   0.780  0.00  0.00    +0.044 C 
BRANCH  23  25
ATOM     25  C   UNL     1      -4.779 -10.068   5.792  0.00  0.00    +0.016 C 
ATOM     26  C   UNL     1      -6.309 -10.052   5.817  0.00  0.00    +0.012 C 
ATOM     27  C   UNL     1      -4.259 -10.925   6.948  0.00  0.00    +0.012 C 
ENDBRANCH  23  25
ENDBRANCH  17  18
ENDBRANCH  16  17
ENDBRANCH  13  16
ENDBRANCH   9  12
BRANCH   1  28
ATOM     28  C   UNL     1       1.740  -2.469  -0.164  0.00  0.00    +0.201 C 
BRANCH  28  29
ATOM     29  N   UNL     1       0.898  -1.795  -1.161  0.00  0.00    -0.287 NA
BRANCH  29  30
ATOM     30  C   UNL     1       1.720  -1.113  -2.169  0.00  0.00    +0.085 C 
BRANCH  30  32
ATOM     31  C   UNL     1       3.267   0.806  -2.581  0.00  0.00    +0.005 C 
ATOM     32  C   UNL     1       2.387   0.112  -1.539  0.00  0.00    +0.012 C 
ENDBRANCH  30  32
ENDBRANCH  29  30
BRANCH  29  33
ATOM     33  C   UNL     1      -0.031  -2.742  -1.792  0.00  0.00    +0.085 C 
BRANCH  33  34
ATOM     34  C   UNL     1      -1.051  -1.972  -2.633  0.00  0.00    +0.012 C 
ATOM     35  C   UNL     1      -2.018  -2.959  -3.291  0.00  0.00    +0.005 C 
ENDBRANCH  33  34
ENDBRANCH  29  33
ENDBRANCH  28  29
ENDBRANCH   1  28
TORSDOF 11
