REMARK  Name = ZINC59489317
REMARK  7 active torsions:
REMARK  status: ('A' for Active; 'I' for Inactive)
REMARK    1  A    between atoms: C_1  and  C_2
REMARK    2  A    between atoms: C_5  and  C_8
REMARK    3  A    between atoms: C_8  and  C_29
REMARK    4  A    between atoms: N_9  and  N_10
REMARK    5  A    between atoms: C_11  and  S_13
REMARK    6  A    between atoms: S_13  and  C_14
REMARK    7  A    between atoms: N_19  and  C_22
REMARK                            x       y       z     vdW  Elec       q    Type
REMARK                         _______ _______ _______ _____ _____    ______ ____
ROOT
ATOM      1  N   UNL     1      -0.247  -6.959  -0.526  0.00  0.00    -0.217 N 
ATOM      2  C   UNL     1      -0.188  -7.399  -1.830  0.00  0.00    +0.146 C 
ATOM      3  N   UNL     1      -0.277  -6.545  -2.811  0.00  0.00    -0.380 N 
ATOM      4  H   UNL     1      -0.181  -7.594   0.204  0.00  0.00    +0.176 HD
ATOM      5  H   UNL     1      -0.235  -6.855  -3.729  0.00  0.00    +0.158 HD
ATOM      6  H   UNL     1      -0.384  -5.599  -2.623  0.00  0.00    +0.158 HD
ENDROOT
BRANCH   1   8
ATOM      7  C   UNL     1      -0.458  -5.178   0.974  0.00  0.00    +0.063 C 
ATOM      8  N   UNL     1      -0.402  -5.593  -0.255  0.00  0.00    -0.185 NA
ATOM      9  C   UNL     1      -0.355  -6.165   2.108  0.00  0.00    +0.068 C 
BRANCH   7  14
ATOM     10  C   UNL     1      -1.096   0.428   2.089  0.00  0.00    +0.044 C 
ATOM     11  C   UNL     1      -0.928  -1.041   1.796  0.00  0.00    -0.050 A 
ATOM     12  C   UNL     1      -0.869  -1.480   0.486  0.00  0.00    +0.004 A 
ATOM     13  C   UNL     1      -0.716  -2.823   0.211  0.00  0.00    +0.010 A 
ATOM     14  C   UNL     1      -0.621  -3.740   1.260  0.00  0.00    -0.003 A 
ATOM     15  C   UNL     1      -0.681  -3.290   2.580  0.00  0.00    +0.010 A 
ATOM     16  C   UNL     1      -0.830  -1.944   2.841  0.00  0.00    +0.004 A 
ENDBRANCH   7  14
ENDBRANCH   1   8
BRANCH   2  17
ATOM     17  S   UNL     1       0.007  -9.117  -2.171  0.00  0.00    -0.078 S 
BRANCH  17  18
ATOM     18  C   UNL     1       0.030  -9.204  -3.983  0.00  0.00    +0.149 C 
ATOM     19  C   UNL     1       0.268 -10.653  -4.454  0.00  0.00    +0.120 C 
ATOM     20  C   UNL     1      -0.984 -10.982  -5.237  0.00  0.00    +0.228 C 
ATOM     21  O   UNL     1      -1.211 -12.038  -5.787  0.00  0.00    -0.275 OA
ATOM     22  N   UNL     1      -1.802  -9.922  -5.226  0.00  0.00    -0.209 N 
ATOM     23  C   UNL     1      -1.331  -8.862  -4.550  0.00  0.00    +0.240 C 
ATOM     24  O   UNL     1      -1.902  -7.802  -4.413  0.00  0.00    -0.274 OA
BRANCH  22  25
ATOM     25  C   UNL     1      -3.048  -9.918  -5.870  0.00  0.00    +0.044 A 
ATOM     26  C   UNL     1      -3.256  -9.104  -6.975  0.00  0.00    +0.027 A 
ATOM     27  C   UNL     1      -4.484  -9.101  -7.607  0.00  0.00    +0.040 A 
ATOM     28  C   UNL     1      -5.507  -9.909  -7.140  0.00  0.00    +0.124 A 
ATOM     29  C   UNL     1      -5.301 -10.721  -6.037  0.00  0.00    +0.040 A 
ATOM     30  C   UNL     1      -4.073 -10.731  -5.405  0.00  0.00    +0.027 A 
ATOM     31  F   UNL     1      -6.707  -9.905  -7.759  0.00  0.00    -0.205 F 
ENDBRANCH  22  25
ENDBRANCH  17  18
ENDBRANCH   2  17
TORSDOF 5
