REMARK  Name = ZINC02635984
REMARK  9 active torsions:
REMARK  status: ('A' for Active; 'I' for Inactive)
REMARK    1  A    between atoms: C_1  and  C_2
REMARK    2  A    between atoms: C_2  and  O_3
REMARK    3  A    between atoms: O_3  and  C_4
REMARK    4  A    between atoms: C_7  and  O_10
REMARK    5  A    between atoms: O_10  and  C_11
REMARK    6  A    between atoms: C_11  and  C_12
REMARK    7  A    between atoms: C_12  and  S_13
REMARK    8  A    between atoms: S_13  and  C_14
REMARK    9  A    between atoms: N_16  and  C_20
REMARK                            x       y       z     vdW  Elec       q    Type
REMARK                         _______ _______ _______ _____ _____    ______ ____
ROOT
ATOM      1  S   UNL     1       3.801   6.470  -0.001  0.00  0.00    -0.094 S 
ENDROOT
BRANCH   1   2
ATOM      2  C   UNL     1       3.263   8.148   0.013  0.00  0.00    +0.158 A 
ATOM      3  N   UNL     1       3.980   9.243   0.017  0.00  0.00    -0.151 NA
ATOM      4  N   UNL     1       3.370  10.476   0.024  0.00  0.00    -0.217 N 
ATOM      5  C   UNL     1       2.015  10.532   0.037  0.00  0.00    +0.150 A 
ATOM      6  S   UNL     1       0.982  11.897   0.055  0.00  0.00    -0.023 S 
ATOM      7  S   UNL     1       1.599   8.794   0.032  0.00  0.00    -0.034 S 
BRANCH   4   8
ATOM      8  C   UNL     1       4.133  11.650   0.023  0.00  0.00    +0.067 A 
ATOM      9  C   UNL     1       3.682  12.771  -0.662  0.00  0.00    +0.029 A 
ATOM     10  C   UNL     1       4.434  13.930  -0.657  0.00  0.00    +0.022 A 
ATOM     11  C   UNL     1       5.640  13.970   0.019  0.00  0.00    +0.041 A 
ATOM     12  C   UNL     1       6.094  12.853   0.698  0.00  0.00    +0.022 A 
ATOM     13  C   UNL     1       5.344  11.693   0.701  0.00  0.00    +0.029 A 
ATOM     14 CL   UNL     1       6.587  15.426   0.016  0.00  0.00    -0.084 Cl
ENDBRANCH   4   8
ENDBRANCH   1   2
BRANCH   1  15
ATOM     15  C   UNL     1       2.200   5.627   0.010  0.00  0.00    +0.117 C 
BRANCH  15  16
ATOM     16  C   UNL     1       2.421   4.113   0.001  0.00  0.00    +0.240 C 
BRANCH  16  17
ATOM     17  O   UNL     1       1.157   3.446   0.009  0.00  0.00    -0.491 OA
BRANCH  17  21
ATOM     18  C   UNL     1       1.212  -0.681  -0.013  0.00  0.00    +0.121 A 
ATOM     19  C   UNL     1       0.002  -0.004   0.002  0.00  0.00    +0.049 A 
ATOM     20  C   UNL     1      -0.017   1.377   0.010  0.00  0.00    +0.049 A 
ATOM     21  C   UNL     1       1.175   2.087   0.002  0.00  0.00    +0.121 A 
ATOM     22  C   UNL     1       2.385   1.410  -0.013  0.00  0.00    +0.049 A 
ATOM     23  C   UNL     1       2.404   0.029  -0.020  0.00  0.00    +0.049 A 
BRANCH  18  24
ATOM     24  O   UNL     1       1.231  -2.041  -0.021  0.00  0.00    -0.492 OA
BRANCH  24  26
ATOM     25  C   UNL     1       2.333  -4.191  -0.043  0.00  0.00    +0.048 C 
ATOM     26  C   UNL     1       2.513  -2.672  -0.036  0.00  0.00    +0.225 C 
ENDBRANCH  24  26
ENDBRANCH  18  24
ENDBRANCH  17  21
ENDBRANCH  16  17
ENDBRANCH  15  16
ENDBRANCH   1  15
TORSDOF 8
