REMARK  Name = ZINC09712633
REMARK  8 active torsions:
REMARK  status: ('A' for Active; 'I' for Inactive)
REMARK    1  A    between atoms: C_1  and  S_2
REMARK    2  A    between atoms: S_2  and  C_3
REMARK    3  A    between atoms: C_8  and  C_9
REMARK    4  A    between atoms: C_9  and  N_11
REMARK    5  A    between atoms: N_13  and  C_25
REMARK    6  A    between atoms: C_17  and  S_21
REMARK    7  A    between atoms: S_21  and  N_24
REMARK    8  A    between atoms: C_25  and  C_26
REMARK                            x       y       z     vdW  Elec       q    Type
REMARK                         _______ _______ _______ _____ _____    ______ ____
ROOT
ATOM      1  N   UNL     1      -1.907   4.527   0.043  0.00  0.00    -0.152 NA
ATOM      2  C   UNL     1      -0.972   3.583   0.030  0.00  0.00    +0.167 A 
ATOM      3  N   UNL     1      -1.125   2.229   0.019  0.00  0.00    -0.317 N 
ATOM      4  C   UNL     1      -0.017   1.401   0.010  0.00  0.00    +0.058 A 
ATOM      5  C   UNL     1       0.002  -0.004   0.002  0.00  0.00    +0.029 A 
ATOM      6  C   UNL     1       1.190  -0.693  -0.013  0.00  0.00    +0.030 A 
ATOM      7  C   UNL     1       2.406  -0.030  -0.021  0.00  0.00    +0.106 A 
ATOM      8  C   UNL     1       2.419   1.353  -0.014  0.00  0.00    +0.045 A 
ATOM      9  C   UNL     1       1.230   2.044   0.001  0.00  0.00    +0.041 A 
ATOM     10  S   UNL     1       0.804   3.768   0.014  0.00  0.00    -0.052 S 
ENDROOT
BRANCH   7  11
ATOM     11  S   UNL     1       3.917  -0.936  -0.040  0.00  0.00    +0.056 S 
ATOM     12  O   UNL     1       4.911  -0.080   0.506  0.00  0.00    -0.153 OA
ATOM     13  O   UNL     1       3.630  -2.216   0.508  0.00  0.00    -0.153 OA
BRANCH  11  14
ATOM     14  N   UNL     1       4.322  -1.181  -1.627  0.00  0.00    -0.204 NA
ATOM     15  H   UNL     1       3.750  -0.838  -2.332  0.00  0.00    +0.144 HD
ATOM     16  H   UNL     1       5.131  -1.666  -1.852  0.00  0.00    +0.144 HD
ENDBRANCH  11  14
ENDBRANCH   7  11
BRANCH   1  17
ATOM     17  C   UNL     1      -1.554   5.818   0.047  0.00  0.00    +0.271 C 
ATOM     18  O   UNL     1      -0.376   6.128   0.038  0.00  0.00    -0.268 OA
BRANCH  17  24
ATOM     19  C   UNL     1      -2.230   8.222   0.072  0.00  0.00    +0.020 A 
ATOM     20  C   UNL     1      -3.218   9.200   0.082  0.00  0.00    +0.015 A 
ATOM     21  C   UNL     1      -4.549   8.837   0.092  0.00  0.00    +0.001 A 
ATOM     22  C   UNL     1      -4.911   7.499   0.087  0.00  0.00    +0.001 A 
ATOM     23  C   UNL     1      -3.946   6.516   0.072  0.00  0.00    +0.014 A 
ATOM     24  C   UNL     1      -2.595   6.867   0.062  0.00  0.00    +0.052 A 
BRANCH  19  26
ATOM     25  C   UNL     1      -0.564  10.495   0.082  0.00  0.00    +0.090 C 
ATOM     26  S   UNL     1      -0.529   8.681   0.066  0.00  0.00    -0.128 S 
ENDBRANCH  19  26
ENDBRANCH  17  24
ENDBRANCH   1  17
BRANCH   3  27
ATOM     27  C   UNL     1      -2.470   1.648   0.023  0.00  0.00    +0.151 C 
BRANCH  27  28
ATOM     28  C   UNL     1      -3.416   2.574   0.742  0.00  0.00    -0.013 C 
ATOM     29  C   UNL     1      -4.504   2.991   0.145  0.00  0.00    +0.005 C 
ENDBRANCH  27  28
ENDBRANCH   3  27
TORSDOF 7
