REMARK  Name = ZINC09310104
REMARK  5 active torsions:
REMARK  status: ('A' for Active; 'I' for Inactive)
REMARK    1  A    between atoms: C_4  and  C_7
REMARK    2  A    between atoms: C_7  and  N_60
REMARK    3  A    between atoms: C_10  and  N_13
REMARK    4  A    between atoms: C_14  and  C_15
REMARK    5  A    between atoms: N_21  and  C_24
REMARK                            x       y       z     vdW  Elec       q    Type
REMARK                         _______ _______ _______ _____ _____    ______ ____
ROOT
ATOM      1  C   UNL     1      -3.002   3.351  -1.126  0.00  0.00    +0.202 C 
ATOM      2  C   UNL     1      -3.427   3.934   0.160  0.00  0.00    +0.238 C 
ATOM      3  O   UNL     1      -4.450   4.587   0.242  0.00  0.00    -0.274 OA
ATOM      4  N   UNL     1      -2.650   3.724   1.242  0.00  0.00    -0.238 N 
ATOM      5  C   UNL     1      -1.523   3.002   1.167  0.00  0.00    +0.319 C 
ATOM      6  O   UNL     1      -0.871   2.846   2.180  0.00  0.00    -0.251 OA
ATOM      7  N   UNL     1      -1.075   2.448   0.032  0.00  0.00    -0.192 N 
ATOM      8  C   UNL     1      -1.750   2.575  -1.129  0.00  0.00    +0.245 C 
ATOM      9  O   UNL     1      -1.335   2.063  -2.152  0.00  0.00    -0.274 OA
ATOM     10  H   UNL     1      -2.915   4.101   2.096  0.00  0.00    +0.159 HD
ENDROOT
BRANCH   7  11
ATOM     11  C   UNL     1       0.117   1.716   0.053  0.00  0.00    +0.053 A 
ATOM     12  C   UNL     1       1.320   2.340  -0.189  0.00  0.00    +0.024 A 
ATOM     13  C   UNL     1       2.511   1.620  -0.177  0.00  0.00    +0.002 A 
ATOM     14  C   UNL     1       2.521   0.282   0.075  0.00  0.00    +0.008 A 
ATOM     15  C   UNL     1       1.314  -0.393   0.328  0.00  0.00    -0.016 A 
ATOM     16  C   UNL     1       0.096   0.330   0.317  0.00  0.00    +0.004 A 
ATOM     17  C   UNL     1      -1.109  -0.346   0.569  0.00  0.00    +0.010 A 
ATOM     18  C   UNL     1      -1.092  -1.684   0.819  0.00  0.00    +0.001 A 
ATOM     19  C   UNL     1       0.106  -2.396   0.830  0.00  0.00    +0.001 A 
ATOM     20  C   UNL     1       1.293  -1.774   0.591  0.00  0.00    +0.008 A 
ENDBRANCH   7  11
BRANCH   1  22
ATOM     21  N   UNL     1      -4.966   4.097  -2.213  0.00  0.00    -0.291 NA
ATOM     22  C   UNL     1      -3.747   3.524  -2.278  0.00  0.00    +0.100 C 
BRANCH  21  25
ATOM     23  C   UNL     1      -7.965   4.799  -4.420  0.00  0.00    -0.076 C 
ATOM     24  C   UNL     1      -7.204   4.431  -3.144  0.00  0.00    +0.008 C 
ATOM     25  C   UNL     1      -5.703   4.391  -3.444  0.00  0.00    +0.101 C 
ATOM     26  C   UNL     1      -5.263   5.752  -3.990  0.00  0.00    +0.008 C 
ATOM     27  C   UNL     1      -6.080   6.082  -5.242  0.00  0.00    -0.076 C 
ATOM     28  N   UNL     1      -7.513   6.130  -4.881  0.00  0.00    +0.382 N 
ATOM     29  H   UNL     1      -7.642   6.807  -4.121  0.00  0.00    -0.081 HD
BRANCH  28  30
ATOM     30  C   UNL     1      -8.313   6.558  -6.047  0.00  0.00    -0.043 C 
BRANCH  30  34
ATOM     31  C   UNL     1      -7.385  10.633  -6.930  0.00  0.00    +0.000 A 
ATOM     32  C   UNL     1      -6.672   9.615  -7.535  0.00  0.00    +0.000 A 
ATOM     33  C   UNL     1      -6.972   8.296  -7.249  0.00  0.00    +0.002 A 
ATOM     34  C   UNL     1      -7.986   7.995  -6.358  0.00  0.00    -0.064 A 
ATOM     35  C   UNL     1      -8.703   9.013  -5.758  0.00  0.00    +0.002 A 
ATOM     36  C   UNL     1      -8.399  10.332  -6.040  0.00  0.00    +0.000 A 
ENDBRANCH  30  34
ENDBRANCH  28  30
ENDBRANCH  21  25
ENDBRANCH   1  22
TORSDOF 5
