REMARK  Name = ZINC11854584
REMARK  6 active torsions:
REMARK  status: ('A' for Active; 'I' for Inactive)
REMARK    1  A    between atoms: C_1  and  C_2
REMARK    2  A    between atoms: C_2  and  C_3
REMARK    3  A    between atoms: C_12  and  N_21
REMARK    4  A    between atoms: C_14  and  C_16
REMARK    5  A    between atoms: C_22  and  C_24
REMARK    6  A    between atoms: C_29  and  C_30
REMARK                            x       y       z     vdW  Elec       q    Type
REMARK                         _______ _______ _______ _____ _____    ______ ____
ROOT
ATOM      1  C   UNL     1       3.095   5.318  -0.018  0.00  0.00    +0.050 A 
ATOM      2  C   UNL     1       4.371   5.800  -0.033  0.00  0.00    +0.093 A 
ATOM      3  C   UNL     1       5.442   4.887  -0.047  0.00  0.00    +0.253 A 
ATOM      4  O   UNL     1       6.596   5.282  -0.060  0.00  0.00    -0.268 OA
ATOM      5  N   UNL     1       5.166   3.565  -0.040  0.00  0.00    -0.291 N 
ATOM      6  H   UNL     1       5.888   2.917  -0.045  0.00  0.00    +0.172 HD
ATOM      7  C   UNL     1       3.873   3.145  -0.030  0.00  0.00    +0.234 A 
ATOM      8  N   UNL     1       2.877   4.004  -0.017  0.00  0.00    -0.217 NA
ATOM      9  N   UNL     1       3.600   1.791  -0.028  0.00  0.00    -0.185 N 
ATOM     10  C   UNL     1       2.358   1.222  -0.014  0.00  0.00    +0.132 A 
ATOM     11  C   UNL     1       2.522  -0.126  -0.023  0.00  0.00    +0.074 A 
ATOM     12  C   UNL     1       3.908  -0.392  -0.038  0.00  0.00    +0.102 A 
ATOM     13  N   UNL     1       4.548   0.760  -0.037  0.00  0.00    -0.162 NA
ENDROOT
BRANCH  12  14
ATOM     14  C   UNL     1       4.533  -1.731  -0.052  0.00  0.00    +0.039 A 
ATOM     15  C   UNL     1       5.861  -2.063  -0.066  0.00  0.00    +0.018 A 
ATOM     16  C   UNL     1       6.211  -3.396  -0.077  0.00  0.00    +0.008 A 
ATOM     17  C   UNL     1       5.232  -4.337  -0.073  0.00  0.00    +0.046 A 
ATOM     18  S   UNL     1       3.753  -3.337  -0.046  0.00  0.00    -0.095 S 
ENDBRANCH  12  14
BRANCH  10  19
ATOM     19  N   UNL     1       1.143   1.901   0.001  0.00  0.00    -0.266 N 
ATOM     20  C   UNL     1      -0.014   1.212   0.009  0.00  0.00    +0.250 C 
ATOM     21  O   UNL     1       0.002  -0.004   0.002  0.00  0.00    -0.270 OA
ATOM     22  H   UNL     1       1.130   2.871   0.007  0.00  0.00    +0.157 HD
BRANCH  20  23
ATOM     23  C   UNL     1      -1.304   1.933   0.019  0.00  0.00    +0.049 A 
ATOM     24  C   UNL     1      -1.327   3.329   0.032  0.00  0.00    +0.013 A 
ATOM     25  C   UNL     1      -2.534   3.996   0.038  0.00  0.00    +0.001 A 
ATOM     26  C   UNL     1      -3.721   3.285   0.039  0.00  0.00    +0.001 A 
ATOM     27  C   UNL     1      -3.706   1.902   0.030  0.00  0.00    +0.013 A 
ATOM     28  C   UNL     1      -2.505   1.222   0.021  0.00  0.00    +0.067 A 
BRANCH  28  29
ATOM     29  C   UNL     1      -2.491  -0.285   0.012  0.00  0.00    +0.418 C 
ATOM     30  F   UNL     1      -3.805  -0.764   0.016  0.00  0.00    -0.166 F 
ATOM     31  F   UNL     1      -1.832  -0.739  -1.136  0.00  0.00    -0.166 F 
ATOM     32  F   UNL     1      -1.821  -0.751   1.149  0.00  0.00    -0.166 F 
ENDBRANCH  28  29
ENDBRANCH  20  23
ENDBRANCH  10  19
BRANCH   1  34
ATOM     33  C   UNL     1       1.438   6.501  -1.434  0.00  0.00    +0.010 C 
ATOM     34  C   UNL     1       1.930   6.274  -0.003  0.00  0.00    +0.052 C 
ENDBRANCH   1  34
TORSDOF 5
