REMARK  Name = ZINC35420592
REMARK  10 active torsions:
REMARK  status: ('A' for Active; 'I' for Inactive)
REMARK    1  A    between atoms: C_1  and  C_2
REMARK    2  A    between atoms: C_2  and  O_3
REMARK    3  A    between atoms: O_3  and  C_4
REMARK    4  A    between atoms: C_4  and  C_6
REMARK    5  A    between atoms: C_7  and  C_38
REMARK    6  A    between atoms: C_12  and  C_29
REMARK    7  A    between atoms: C_14  and  C_19
REMARK    8  A    between atoms: C_19  and  C_21
REMARK    9  A    between atoms: C_22  and  C_23
REMARK   10  A    between atoms: C_33  and  N_35
REMARK                            x       y       z     vdW  Elec       q    Type
REMARK                         _______ _______ _______ _____ _____    ______ ____
ROOT
ATOM      1  C   UNL     1      -2.840  -2.416   0.016  0.00  0.00    +0.120 A 
ATOM      2  C   UNL     1      -3.233  -3.748   0.018  0.00  0.00    +0.062 A 
ATOM      3  N   UNL     1      -4.522  -3.973   0.028  0.00  0.00    -0.229 NA
ATOM      4  C   UNL     1      -5.396  -2.982   0.035  0.00  0.00    +0.169 A 
ATOM      5  S   UNL     1      -4.430  -1.604   0.036  0.00  0.00    -0.045 S 
ATOM      6  N   UNL     1      -6.776  -3.059   0.044  0.00  0.00    -0.232 N 
ATOM      7  C   UNL     1      -7.705  -1.922   0.046  0.00  0.00    +0.152 C 
ATOM      8  C   UNL     1      -9.094  -2.515   0.058  0.00  0.00    +0.076 C 
ATOM      9  C   UNL     1      -8.944  -3.860   0.062  0.00  0.00    +0.250 C 
ATOM     10  C   UNL     1      -7.506  -4.189   0.048  0.00  0.00    +0.293 C 
ATOM     11  O   UNL     1      -7.048  -5.315   0.043  0.00  0.00    -0.266 OA
ATOM     12  O   UNL     1      -9.955  -4.762   0.073  0.00  0.00    -0.282 OA
ATOM     13  C   UNL     1      -2.231  -4.873   0.010  0.00  0.00    +0.067 C 
ENDROOT
BRANCH   7  14
ATOM     14  C   UNL     1      -7.489  -1.079   1.276  0.00  0.00    -0.020 A 
ATOM     15  C   UNL     1      -7.236  -1.683   2.493  0.00  0.00    +0.006 A 
ATOM     16  C   UNL     1      -7.038  -0.909   3.622  0.00  0.00    +0.003 A 
ATOM     17  C   UNL     1      -7.093   0.469   3.533  0.00  0.00    +0.033 A 
ATOM     18  C   UNL     1      -7.345   1.073   2.315  0.00  0.00    +0.127 A 
ATOM     19  C   UNL     1      -7.539   0.300   1.186  0.00  0.00    +0.038 A 
BRANCH  18  20
ATOM     20  N   UNL     1      -7.405   2.549   2.220  0.00  0.00    +0.056 N 
ATOM     21  O   UNL     1      -7.233   3.226   3.207  0.00  0.00    -0.126 OA
ATOM     22  O   UNL     1      -7.625   3.078   1.155  0.00  0.00    -0.126 OA
ENDBRANCH  18  20
ENDBRANCH   7  14
BRANCH   1  23
ATOM     23  C   UNL     1      -1.497  -1.839   0.006  0.00  0.00    +0.348 C 
ATOM     24  O   UNL     1      -0.522  -2.567  -0.007  0.00  0.00    -0.244 OA
BRANCH  23  25
ATOM     25  O   UNL     1      -1.339  -0.499   0.012  0.00  0.00    -0.461 OA
BRANCH  25  27
ATOM     26  C   UNL     1      -0.019   1.526   0.010  0.00  0.00    +0.048 C 
ATOM     27  C   UNL     1       0.002  -0.004   0.002  0.00  0.00    +0.229 C 
ENDBRANCH  25  27
ENDBRANCH  23  25
ENDBRANCH   1  23
BRANCH   8  28
ATOM     28  C   UNL     1     -10.362  -1.775   0.064  0.00  0.00    +0.188 C 
ATOM     29  O   UNL     1     -11.420  -2.380   0.073  0.00  0.00    -0.287 OA
BRANCH  28  30
ATOM     30  C   UNL     1     -10.355  -0.312   0.058  0.00  0.00    +0.052 C 
ATOM     31  C   UNL     1     -11.521   0.369   0.064  0.00  0.00    +0.011 C 
BRANCH  31  32
ATOM     32  C   UNL     1     -11.514   1.840   0.058  0.00  0.00    -0.025 A 
ATOM     33  C   UNL     1     -10.302   2.538   0.042  0.00  0.00    +0.008 A 
ATOM     34  C   UNL     1     -10.303   3.916   0.036  0.00  0.00    +0.001 A 
ATOM     35  C   UNL     1     -11.501   4.610   0.048  0.00  0.00    +0.000 A 
ATOM     36  C   UNL     1     -12.705   3.928   0.065  0.00  0.00    +0.001 A 
ATOM     37  C   UNL     1     -12.720   2.549   0.064  0.00  0.00    +0.008 A 
ENDBRANCH  31  32
ENDBRANCH  28  30
ENDBRANCH   8  28
TORSDOF 8
