REMARK  Name = ZINC48355734
REMARK  8 active torsions:
REMARK  status: ('A' for Active; 'I' for Inactive)
REMARK    1  A    between atoms: C_1  and  C_2
REMARK    2  A    between atoms: C_7  and  S_28
REMARK    3  A    between atoms: N_11  and  C_12
REMARK    4  A    between atoms: C_12  and  C_13
REMARK    5  A    between atoms: N_15  and  C_16
REMARK    6  A    between atoms: C_16  and  C_17
REMARK    7  A    between atoms: C_17  and  C_18
REMARK    8  A    between atoms: S_28  and  N_31
REMARK                            x       y       z     vdW  Elec       q    Type
REMARK                         _______ _______ _______ _____ _____    ______ ____
ROOT
ATOM      1  C   UNL     1       0.363  -0.268   2.562  0.00  0.00    +0.201 C 
ENDROOT
BRANCH   1  11
ATOM      2  C   UNL     1      -0.019   1.526   0.010  0.00  0.00    +0.028 C 
ATOM      3  C   UNL     1       0.002  -0.004   0.002  0.00  0.00    +0.075 C 
ATOM      4  C   UNL     1       0.778  -0.520  -1.221  0.00  0.00    +0.059 C 
ATOM      5  C   UNL     1       1.931  -1.304  -0.635  0.00  0.00    -0.023 A 
ATOM      6  C   UNL     1       2.960  -1.995  -1.246  0.00  0.00    +0.034 A 
ATOM      7  C   UNL     1       3.911  -2.644  -0.481  0.00  0.00    +0.105 A 
ATOM      8  C   UNL     1       3.831  -2.599   0.899  0.00  0.00    +0.030 A 
ATOM      9  C   UNL     1       2.807  -1.911   1.513  0.00  0.00    +0.025 A 
ATOM     10  C   UNL     1       1.842  -1.253   0.747  0.00  0.00    +0.034 A 
ATOM     11  N   UNL     1       0.735  -0.509   1.166  0.00  0.00    -0.318 N 
BRANCH   7  12
ATOM     12  S   UNL     1       5.222  -3.525  -1.262  0.00  0.00    +0.056 S 
ATOM     13  O   UNL     1       5.670  -4.498  -0.329  0.00  0.00    -0.153 OA
ATOM     14  O   UNL     1       4.763  -3.869  -2.561  0.00  0.00    -0.153 OA
BRANCH  12  15
ATOM     15  N   UNL     1       6.473  -2.459  -1.469  0.00  0.00    -0.204 NA
ATOM     16  H   UNL     1       7.388  -2.778  -1.463  0.00  0.00    +0.144 HD
ATOM     17  H   UNL     1       6.289  -1.515  -1.597  0.00  0.00    +0.144 HD
ENDBRANCH  12  15
ENDBRANCH   7  12
ENDBRANCH   1  11
BRANCH   1  18
ATOM     18  C   UNL     1      -0.561  -1.363   3.031  0.00  0.00    +0.230 C 
ATOM     19  O   UNL     1      -0.876  -2.256   2.274  0.00  0.00    -0.274 OA
ATOM     20  N   UNL     1      -1.036  -1.349   4.293  0.00  0.00    -0.314 N 
ATOM     21  H   UNL     1      -0.783  -0.634   4.898  0.00  0.00    +0.149 HD
BRANCH  20  22
ATOM     22  C   UNL     1      -1.933  -2.413   4.749  0.00  0.00    +0.109 C 
BRANCH  22  23
ATOM     23  C   UNL     1      -2.323  -2.162   6.207  0.00  0.00    +0.056 C 
BRANCH  23  24
ATOM     24  C   UNL     1      -3.246  -3.256   6.676  0.00  0.00    -0.021 A 
ATOM     25  C   UNL     1      -4.588  -3.222   6.679  0.00  0.00    +0.087 A 
ATOM     26  N   UNL     1      -5.083  -4.397   7.176  0.00  0.00    -0.360 N 
ATOM     27  H   UNL     1      -6.025  -4.606   7.276  0.00  0.00    +0.165 HD
ATOM     28  C   UNL     1      -4.046  -5.236   7.515  0.00  0.00    +0.047 A 
ATOM     29  C   UNL     1      -2.849  -4.561   7.211  0.00  0.00    +0.003 A 
ATOM     30  C   UNL     1      -1.621  -5.180   7.447  0.00  0.00    +0.010 A 
ATOM     31  C   UNL     1      -1.587  -6.442   7.970  0.00  0.00    +0.001 A 
ATOM     32  C   UNL     1      -2.764  -7.114   8.268  0.00  0.00    +0.002 A 
ATOM     33  C   UNL     1      -3.987  -6.518   8.051  0.00  0.00    +0.026 A 
ENDBRANCH  23  24
ENDBRANCH  22  23
ENDBRANCH  20  22
ENDBRANCH   1  18
TORSDOF 7
