REMARK  Name = ZINC03209521
REMARK  3 active torsions:
REMARK  status: ('A' for Active; 'I' for Inactive)
REMARK    1  A    between atoms: C_1  and  C_2
REMARK    2  A    between atoms: C_4  and  N_22
REMARK    3  A    between atoms: C_17  and  C_21
REMARK                            x       y       z     vdW  Elec       q    Type
REMARK                         _______ _______ _______ _____ _____    ______ ____
ROOT
ATOM      1  C   UNL     1       6.043   4.389  -1.273  0.00  0.00    +0.067 C 
ATOM      2  C   UNL     1       5.237   3.318  -0.585  0.00  0.00    +0.062 A 
ATOM      3  C   UNL     1       5.675   2.524   0.480  0.00  0.00    +0.068 A 
ATOM      4  C   UNL     1       4.658   1.685   0.821  0.00  0.00    +0.122 A 
ATOM      5  N   UNL     1       3.616   1.946  -0.017  0.00  0.00    -0.200 N 
ATOM      6  N   UNL     1       4.010   2.975  -0.882  0.00  0.00    -0.169 NA
ATOM      7  C   UNL     1       2.378   1.308  -0.011  0.00  0.00    +0.168 A 
ATOM      8  C   UNL     1       1.183   2.058   0.156  0.00  0.00    +0.055 A 
ATOM      9  C   UNL     1       1.023   3.502   0.334  0.00  0.00    -0.024 A 
ATOM     10  C   UNL     1      -0.236   3.965   0.474  0.00  0.00    -0.004 A 
ATOM     11  S   UNL     1      -1.272   2.529   0.384  0.00  0.00    -0.073 S 
ATOM     12  C   UNL     1      -0.011   1.305   0.147  0.00  0.00    +0.114 A 
ATOM     13  N   UNL     1       0.002  -0.004  -0.008  0.00  0.00    -0.228 NA
ATOM     14  C   UNL     1       1.145  -0.644  -0.160  0.00  0.00    +0.224 A 
ATOM     15  N   UNL     1       2.300  -0.003  -0.160  0.00  0.00    -0.216 NA
ATOM     16  C   UNL     1      -0.662   5.389   0.669  0.00  0.00    +0.046 C 
ATOM     17  C   UNL     1       0.520   6.302   0.314  0.00  0.00    -0.009 C 
ATOM     18  C   UNL     1       1.776   5.771   1.011  0.00  0.00    +0.008 C 
ATOM     19  C   UNL     1       2.213   4.457   0.363  0.00  0.00    +0.037 C 
ATOM     20  C   UNL     1       0.230   7.726   0.792  0.00  0.00    +0.008 C 
ENDROOT
BRANCH   4  21
ATOM     21  N   UNL     1       4.680   0.735   1.836  0.00  0.00    -0.343 N 
ATOM     22  H   UNL     1       3.900   0.182   2.000  0.00  0.00    +0.144 HD
ATOM     23  H   UNL     1       5.475   0.626   2.381  0.00  0.00    +0.144 HD
ENDBRANCH   4  21
TORSDOF 1
