REMARK  Name = ZINC08596442
REMARK  11 active torsions:
REMARK  status: ('A' for Active; 'I' for Inactive)
REMARK    1  A    between atoms: C_1  and  C_2
REMARK    2  A    between atoms: C_2  and  C_3
REMARK    3  A    between atoms: C_7  and  C_34
REMARK    4  A    between atoms: C_8  and  N_9
REMARK    5  A    between atoms: C_10  and  C_12
REMARK    6  A    between atoms: C_12  and  C_14
REMARK    7  A    between atoms: C_12  and  N_21
REMARK    8  A    between atoms: C_14  and  C_15
REMARK    9  A    between atoms: N_21  and  S_22
REMARK   10  A    between atoms: S_22  and  C_25
REMARK   11  A    between atoms: C_34  and  C_35
REMARK                            x       y       z     vdW  Elec       q    Type
REMARK                         _______ _______ _______ _____ _____    ______ ____
ROOT
ATOM      1  C   UNL     1       2.011   3.905  -1.783  0.00  0.00    +0.167 C 
ENDROOT
BRANCH   1   3
ATOM      2  N   UNL     1       0.244   2.237  -2.246  0.00  0.00    -0.284 N 
ATOM      3  C   UNL     1       1.475   2.496  -1.763  0.00  0.00    +0.236 C 
ATOM      4  O   UNL     1       2.152   1.597  -1.311  0.00  0.00    -0.274 OA
ATOM      5  H   UNL     1      -0.265   2.940  -2.678  0.00  0.00    +0.155 HD
BRANCH   2  11
ATOM      6  C   UNL     1      -1.321   0.712  -1.217  0.00  0.00    -0.026 A 
ATOM      7  C   UNL     1      -1.858  -0.555  -1.104  0.00  0.00    +0.005 A 
ATOM      8  C   UNL     1      -1.375  -1.585  -1.890  0.00  0.00    +0.001 A 
ATOM      9  C   UNL     1      -0.353  -1.350  -2.791  0.00  0.00    +0.005 A 
ATOM     10  C   UNL     1       0.189  -0.085  -2.909  0.00  0.00    -0.026 A 
ATOM     11  C   UNL     1      -0.298   0.953  -2.125  0.00  0.00    +0.040 A 
BRANCH   6  13
ATOM     12  C   UNL     1      -2.916   2.608  -1.134  0.00  0.00    +0.009 C 
ATOM     13  C   UNL     1      -1.848   1.834  -0.360  0.00  0.00    +0.033 C 
ENDBRANCH   6  13
BRANCH  10  14
ATOM     14  C   UNL     1       1.303   0.170  -3.891  0.00  0.00    +0.033 C 
ATOM     15  C   UNL     1       1.790  -1.162  -4.467  0.00  0.00    +0.009 C 
ENDBRANCH  10  14
ENDBRANCH   2  11
ENDBRANCH   1   3
BRANCH   1  16
ATOM     16  N   UNL     1       3.358   3.924  -1.207  0.00  0.00    -0.178 NA
ATOM     17  H   UNL     1       3.473   3.976  -0.245  0.00  0.00    +0.149 HD
BRANCH  16  18
ATOM     18  S   UNL     1       4.683   3.855  -2.197  0.00  0.00    +0.061 S 
ATOM     19  O   UNL     1       5.825   3.887  -1.351  0.00  0.00    -0.153 OA
ATOM     20  O   UNL     1       4.448   2.800  -3.119  0.00  0.00    -0.153 OA
BRANCH  18  21
ATOM     21  C   UNL     1       4.710   5.346  -3.135  0.00  0.00    +0.133 A 
ATOM     22  C   UNL     1       5.662   6.278  -2.896  0.00  0.00    +0.031 A 
ATOM     23  C   UNL     1       5.714   7.470  -3.619  0.00  0.00    +0.004 A 
ATOM     24  C   UNL     1       4.815   7.746  -4.592  0.00  0.00    +0.031 A 
ATOM     25  C   UNL     1       3.787   6.814  -4.899  0.00  0.00    +0.102 A 
ATOM     26  C   UNL     1       3.736   5.566  -4.146  0.00  0.00    +0.126 A 
ATOM     27  N   UNL     1       2.736   4.768  -4.522  0.00  0.00    -0.189 NA
ATOM     28  S   UNL     1       1.976   5.550  -5.705  0.00  0.00    +0.117 S 
ATOM     29  N   UNL     1       2.823   6.914  -5.815  0.00  0.00    -0.191 NA
ENDBRANCH  18  21
ENDBRANCH  16  18
ENDBRANCH   1  16
BRANCH   1  30
ATOM     30  C   UNL     1       1.093   4.812  -0.962  0.00  0.00    +0.065 C 
BRANCH  30  31
ATOM     31  C   UNL     1       1.580   6.235  -1.054  0.00  0.00    -0.045 A 
ATOM     32  C   UNL     1       2.572   6.682  -0.201  0.00  0.00    +0.004 A 
ATOM     33  C   UNL     1       3.019   7.988  -0.285  0.00  0.00    +0.000 A 
ATOM     34  C   UNL     1       2.474   8.846  -1.222  0.00  0.00    +0.000 A 
ATOM     35  C   UNL     1       1.482   8.399  -2.075  0.00  0.00    +0.000 A 
ATOM     36  C   UNL     1       1.038   7.092  -1.994  0.00  0.00    +0.004 A 
ENDBRANCH  30  31
ENDBRANCH   1  30
TORSDOF 9
