REMARK  Name = ZINC12833551
REMARK  16 active torsions:
REMARK  status: ('A' for Active; 'I' for Inactive)
REMARK    1  A    between atoms: C_1  and  C_2
REMARK    2  A    between atoms: C_2  and  O_3
REMARK    3  A    between atoms: O_3  and  C_4
REMARK    4  A    between atoms: C_11  and  C_16
REMARK    5  A    between atoms: C_16  and  N_67
REMARK    6  A    between atoms: C_17  and  C_18
REMARK    7  A    between atoms: C_17  and  N_67
REMARK    8  A    between atoms: C_21  and  O_24
REMARK    9  A    between atoms: O_24  and  C_25
REMARK   10  A    between atoms: C_26  and  C_27
REMARK   11  A    between atoms: C_26  and  N_67
REMARK   12  A    between atoms: N_31  and  C_32
REMARK   13  A    between atoms: C_32  and  C_33
REMARK   14  A    between atoms: C_33  and  O_35
REMARK   15  A    between atoms: O_35  and  C_36
REMARK   16  A    between atoms: C_36  and  C_37
REMARK                            x       y       z     vdW  Elec       q    Type
REMARK                         _______ _______ _______ _____ _____    ______ ____
ROOT
ATOM      1  N   UNL     1      -1.555  -1.548   2.277  0.00  0.00    +0.390 N 
ATOM      2  H   UNL     1      -0.540  -1.573   2.436  0.00  0.00    -0.080 HD
ENDROOT
BRANCH   1   3
ATOM      3  C   UNL     1      -1.940  -2.713   1.454  0.00  0.00    -0.036 C 
BRANCH   3  11
ATOM      4  C   UNL     1      -0.810  -7.997   4.492  0.00  0.00    +0.121 A 
ATOM      5  C   UNL     1       0.500  -8.149   4.046  0.00  0.00    +0.047 A 
ATOM      6  C   UNL     1       1.064  -7.224   3.195  0.00  0.00    +0.030 A 
ATOM      7  C   UNL     1       0.323  -6.124   2.775  0.00  0.00    +0.049 A 
ATOM      8  C   UNL     1      -1.002  -5.967   3.224  0.00  0.00    +0.002 A 
ATOM      9  C   UNL     1      -1.563  -6.914   4.087  0.00  0.00    +0.055 A 
ATOM     10  C   UNL     1      -1.771  -4.805   2.773  0.00  0.00    +0.017 A 
ATOM     11  C   UNL     1      -1.176  -3.920   1.936  0.00  0.00    +0.001 A 
ATOM     12  C   UNL     1       0.153  -4.126   1.510  0.00  0.00    +0.251 A 
ATOM     13  O   UNL     1       0.667  -3.320   0.753  0.00  0.00    -0.268 OA
ATOM     14  N   UNL     1       0.870  -5.186   1.923  0.00  0.00    -0.322 N 
ATOM     15  H   UNL     1       1.783  -5.295   1.615  0.00  0.00    +0.169 HD
BRANCH   4  16
ATOM     16  O   UNL     1      -1.351  -8.921   5.331  0.00  0.00    -0.492 OA
BRANCH  16  18
ATOM     17  C   UNL     1      -1.286 -10.943   6.652  0.00  0.00    +0.048 C 
ATOM     18  C   UNL     1      -0.485  -9.957   5.799  0.00  0.00    +0.225 C 
ENDBRANCH  16  18
ENDBRANCH   4  16
ENDBRANCH   3  11
ENDBRANCH   1   3
BRANCH   1  19
ATOM     19  C   UNL     1      -2.246  -1.602   3.583  0.00  0.00    -0.042 C 
BRANCH  19  20
ATOM     20  C   UNL     1      -3.739  -1.523   3.394  0.00  0.00    -0.064 A 
ATOM     21  C   UNL     1      -4.355  -0.291   3.274  0.00  0.00    +0.005 A 
ATOM     22  C   UNL     1      -5.722  -0.215   3.095  0.00  0.00    +0.046 A 
ATOM     23  C   UNL     1      -6.479  -1.377   3.048  0.00  0.00    +0.120 A 
ATOM     24  C   UNL     1      -5.860  -2.612   3.175  0.00  0.00    +0.046 A 
ATOM     25  C   UNL     1      -4.491  -2.682   3.348  0.00  0.00    +0.005 A 
BRANCH  23  26
ATOM     26  O   UNL     1      -7.826  -1.306   2.877  0.00  0.00    -0.495 OA
ATOM     27  C   UNL     1      -8.410  -0.002   2.868  0.00  0.00    +0.277 C 
ENDBRANCH  23  26
ENDBRANCH  19  20
ENDBRANCH   1  19
BRANCH   1  28
ATOM     28  C   UNL     1      -1.901  -0.295   1.574  0.00  0.00    +0.001 C 
BRANCH  28  29
ATOM     29  C   UNL     1      -1.303   0.866   2.326  0.00  0.00    +0.136 A 
ATOM     30  N   UNL     1      -1.876   1.558   3.280  0.00  0.00    -0.115 NA
ATOM     31  N   UNL     1      -1.046   2.463   3.669  0.00  0.00    -0.023 NA
ATOM     32  N   UNL     1       0.045   2.362   2.991  0.00  0.00    -0.043 NA
ATOM     33  N   UNL     1      -0.077   1.392   2.149  0.00  0.00    -0.220 N 
BRANCH  33  34
ATOM     34  C   UNL     1       0.932   0.945   1.186  0.00  0.00    +0.267 C 
BRANCH  34  35
ATOM     35  C   UNL     1       0.752   1.689  -0.112  0.00  0.00    +0.329 C 
ATOM     36  O   UNL     1      -0.128   2.510  -0.221  0.00  0.00    -0.249 OA
BRANCH  35  37
ATOM     37  O   UNL     1       1.570   1.441  -1.147  0.00  0.00    -0.464 OA
BRANCH  37  38
ATOM     38  C   UNL     1       1.339   2.195  -2.366  0.00  0.00    +0.229 C 
ATOM     39  C   UNL     1       2.362   1.779  -3.425  0.00  0.00    +0.048 C 
ENDBRANCH  37  38
ENDBRANCH  35  37
ENDBRANCH  34  35
ENDBRANCH  33  34
ENDBRANCH  28  29
ENDBRANCH   1  28
TORSDOF 13
