REMARK  Name = ZINC39689125
REMARK  5 active torsions:
REMARK  status: ('A' for Active; 'I' for Inactive)
REMARK    1  A    between atoms: C_2  and  C_9
REMARK    2  A    between atoms: C_13  and  C_22
REMARK    3  A    between atoms: N_24  and  C_25
REMARK    4  A    between atoms: C_25  and  C_26
REMARK    5  A    between atoms: N_29  and  C_32
REMARK                            x       y       z     vdW  Elec       q    Type
REMARK                         _______ _______ _______ _____ _____    ______ ____
ROOT
ATOM      1  C   UNL     1       1.164   3.581   0.004  0.00  0.00    +0.247 C 
ATOM      2  O   UNL     1       1.170   2.367   0.064  0.00  0.00    -0.270 OA
ATOM      3  N   UNL     1       2.325   4.257  -0.103  0.00  0.00    -0.296 N 
ATOM      4  C   UNL     1       3.691   3.699  -0.242  0.00  0.00    +0.121 C 
ATOM      5  C   UNL     1       4.393   4.633  -1.254  0.00  0.00    +0.100 C 
ATOM      6  C   UNL     1       3.624   5.962  -1.160  0.00  0.00    -0.004 C 
ATOM      7  C   UNL     1       2.524   5.726  -0.116  0.00  0.00    +0.115 C 
ATOM      8  C   UNL     1       2.998   6.306  -2.508  0.00  0.00    -0.010 C 
ATOM      9  C   UNL     1       2.287   7.658  -2.405  0.00  0.00    -0.082 C 
ATOM     10  N   UNL     1       3.253   8.692  -2.014  0.00  0.00    +0.379 N 
ATOM     11  C   UNL     1       3.782   8.402  -0.675  0.00  0.00    -0.082 C 
ATOM     12  C   UNL     1       4.555   7.081  -0.705  0.00  0.00    -0.010 C 
ATOM     13  H   UNL     1       4.013   8.709  -2.678  0.00  0.00    -0.086 HD
ATOM     14  H   UNL     1       2.796   9.591  -2.006  0.00  0.00    -0.086 HD
ENDROOT
BRANCH   1  16
ATOM     15  C   UNL     1      -0.189   5.564   0.670  0.00  0.00    +0.033 A 
ATOM     16  C   UNL     1      -0.118   4.317   0.049  0.00  0.00    +0.040 A 
ATOM     17  C   UNL     1      -1.262   3.766  -0.530  0.00  0.00    +0.033 A 
ATOM     18  C   UNL     1      -2.457   4.458  -0.485  0.00  0.00    +0.043 A 
ATOM     19  C   UNL     1      -2.520   5.695   0.132  0.00  0.00    +0.040 A 
ATOM     20  C   UNL     1      -1.389   6.247   0.709  0.00  0.00    +0.043 A 
ATOM     21 CL   UNL     1      -1.478   7.799   1.481  0.00  0.00    -0.083 Cl
ATOM     22 CL   UNL     1      -3.881   3.775  -1.206  0.00  0.00    -0.083 Cl
ENDBRANCH   1  16
BRANCH   5  23
ATOM     23  C   UNL     1       4.296   4.065  -2.646  0.00  0.00    +0.218 C 
ATOM     24  O   UNL     1       3.305   3.454  -2.985  0.00  0.00    -0.275 OA
ATOM     25  N   UNL     1       5.312   4.236  -3.515  0.00  0.00    -0.315 N 
ATOM     26  H   UNL     1       6.105   4.725  -3.245  0.00  0.00    +0.149 HD
BRANCH  25  27
ATOM     27  C   UNL     1       5.218   3.684  -4.869  0.00  0.00    +0.107 C 
BRANCH  27  28
ATOM     28  C   UNL     1       6.494   4.018  -5.645  0.00  0.00    +0.003 C 
ATOM     29  C   UNL     1       7.685   3.298  -5.006  0.00  0.00    -0.014 C 
ATOM     30  C   UNL     1       8.943   3.572  -5.833  0.00  0.00    -0.078 C 
ATOM     31  N   UNL     1       8.750   3.079  -7.202  0.00  0.00    +0.382 N 
ATOM     32  C   UNL     1       7.655   3.815  -7.846  0.00  0.00    -0.078 C 
ATOM     33  C   UNL     1       6.347   3.551  -7.096  0.00  0.00    -0.014 C 
ATOM     34  H   UNL     1       8.523   2.096  -7.176  0.00  0.00    -0.081 HD
BRANCH  31  35
ATOM     35  C   UNL     1       9.987   3.273  -7.970  0.00  0.00    -0.069 C 
ATOM     36  C   UNL     1      11.126   2.396  -7.394  0.00  0.00    -0.015 C 
ATOM     37  C   UNL     1      12.085   2.245  -8.601  0.00  0.00    -0.002 C 
ATOM     38  C   UNL     1      11.145   2.110  -9.817  0.00  0.00    -0.002 C 
ATOM     39  C   UNL     1       9.810   2.763  -9.416  0.00  0.00    -0.015 C 
ENDBRANCH  31  35
ENDBRANCH  27  28
ENDBRANCH  25  27
ENDBRANCH   5  23
TORSDOF 5
