REMARK  Name = ZINC39895197
REMARK  6 active torsions:
REMARK  status: ('A' for Active; 'I' for Inactive)
REMARK    1  A    between atoms: C_6  and  N_7
REMARK    2  A    between atoms: C_8  and  S_12
REMARK    3  A    between atoms: S_12  and  C_13
REMARK    4  A    between atoms: C_13  and  C_14
REMARK    5  A    between atoms: C_20  and  C_22
REMARK    6  A    between atoms: C_22  and  C_23
REMARK                            x       y       z     vdW  Elec       q    Type
REMARK                         _______ _______ _______ _____ _____    ______ ____
ROOT
ATOM      1  C   UNL     1      -0.453  -5.184  -2.961  0.00  0.00    +0.229 C 
ATOM      2  O   UNL     1       0.697  -4.880  -3.199  0.00  0.00    -0.275 OA
ATOM      3  N   UNL     1      -0.966  -6.325  -3.461  0.00  0.00    -0.264 N 
ATOM      4  C   UNL     1      -0.178  -7.154  -4.252  0.00  0.00    +0.165 A 
ATOM      5  N   UNL     1       1.078  -6.991  -4.607  0.00  0.00    -0.233 NA
ATOM      6  C   UNL     1       1.691  -7.877  -5.370  0.00  0.00    +0.124 A 
ATOM      7  C   UNL     1       0.970  -8.955  -5.764  0.00  0.00    +0.015 A 
ATOM      8  S   UNL     1      -0.597  -8.612  -4.979  0.00  0.00    -0.057 S 
ATOM      9  H   UNL     1      -1.886  -6.568  -3.271  0.00  0.00    +0.157 HD
ENDROOT
BRANCH   1  10
ATOM     10  C   UNL     1      -1.308  -4.286  -2.104  0.00  0.00    +0.173 C 
BRANCH  10  11
ATOM     11  S   UNL     1      -0.339  -2.842  -1.587  0.00  0.00    -0.075 S 
BRANCH  11  13
ATOM     12  N   UNL     1      -1.202  -0.723   0.010  0.00  0.00    -0.187 N 
ATOM     13  C   UNL     1      -1.462  -1.903  -0.607  0.00  0.00    +0.214 A 
ATOM     14  N   UNL     1      -2.711  -2.213  -0.336  0.00  0.00    -0.101 NA
ATOM     15  N   UNL     1      -3.248  -1.312   0.406  0.00  0.00    -0.022 NA
ATOM     16  N   UNL     1      -2.398  -0.379   0.665  0.00  0.00    -0.038 NA
BRANCH  12  22
ATOM     17  C   UNL     1      -0.017   1.384   0.010  0.00  0.00    +0.029 A 
ATOM     18  C   UNL     1       1.170   2.090   0.002  0.00  0.00    +0.022 A 
ATOM     19  C   UNL     1       2.378   1.414  -0.013  0.00  0.00    +0.041 A 
ATOM     20  C   UNL     1       2.399   0.030  -0.021  0.00  0.00    +0.022 A 
ATOM     21  C   UNL     1       1.215  -0.679  -0.014  0.00  0.00    +0.029 A 
ATOM     22  C   UNL     1       0.002  -0.004   0.002  0.00  0.00    +0.070 A 
ATOM     23 CL   UNL     1       3.869   2.304  -0.023  0.00  0.00    -0.084 Cl
ENDBRANCH  12  22
ENDBRANCH  11  13
ENDBRANCH  10  11
ENDBRANCH   1  10
BRANCH   7  24
ATOM     24  C   UNL     1       1.379 -10.123  -6.625  0.00  0.00    +0.080 C 
BRANCH  24  25
ATOM     25  C   UNL     1       1.936 -11.218  -5.753  0.00  0.00    -0.023 A 
ATOM     26  C   UNL     1       3.299 -11.311  -5.545  0.00  0.00    +0.025 A 
ATOM     27  C   UNL     1       3.811 -12.316  -4.745  0.00  0.00    +0.041 A 
ATOM     28  C   UNL     1       2.957 -13.230  -4.152  0.00  0.00    +0.021 A 
ATOM     29  C   UNL     1       1.594 -13.137  -4.359  0.00  0.00    +0.022 A 
ATOM     30  C   UNL     1       1.082 -12.128  -5.155  0.00  0.00    +0.045 A 
ATOM     31 CL   UNL     1      -0.631 -12.008  -5.410  0.00  0.00    -0.083 Cl
ATOM     32 CL   UNL     1       5.523 -12.433  -4.485  0.00  0.00    -0.084 Cl
ENDBRANCH  24  25
ENDBRANCH   7  24
TORSDOF 6
