REMARK  Name = ZINC12135638
REMARK  8 active torsions:
REMARK  status: ('A' for Active; 'I' for Inactive)
REMARK    1  A    between atoms: C_1  and  C_2
REMARK    2  A    between atoms: C_8  and  N_10
REMARK    3  A    between atoms: C_14  and  C_16
REMARK    4  A    between atoms: C_16  and  S_17
REMARK    5  A    between atoms: S_17  and  C_18
REMARK    6  A    between atoms: C_21  and  C_29
REMARK    7  A    between atoms: N_22  and  C_23
REMARK    8  A    between atoms: C_29  and  N_67
REMARK                            x       y       z     vdW  Elec       q    Type
REMARK                         _______ _______ _______ _____ _____    ______ ____
ROOT
ATOM      1  C   UNL     1      -8.485   1.706   4.858  0.00  0.00    +0.197 A 
ATOM      2  N   UNL     1      -7.734   2.006   5.892  0.00  0.00    -0.122 NA
ATOM      3  N   UNL     1      -8.471   2.402   6.868  0.00  0.00    -0.135 NA
ATOM      4  C   UNL     1      -9.727   2.380   6.519  0.00  0.00    +0.122 A 
ATOM      5  N   UNL     1      -9.782   1.941   5.223  0.00  0.00    -0.276 N 
ENDROOT
BRANCH   5   6
ATOM      6  C   UNL     1     -10.929   1.766   4.436  0.00  0.00    +0.050 A 
ATOM      7  C   UNL     1     -11.704   2.862   4.082  0.00  0.00    +0.026 A 
ATOM      8  C   UNL     1     -12.830   2.688   3.301  0.00  0.00    +0.002 A 
ATOM      9  C   UNL     1     -13.193   1.421   2.882  0.00  0.00    +0.000 A 
ATOM     10  C   UNL     1     -12.426   0.326   3.238  0.00  0.00    +0.002 A 
ATOM     11  C   UNL     1     -11.296   0.495   4.013  0.00  0.00    +0.026 A 
ENDBRANCH   5   6
BRANCH   1  12
ATOM     12  S   UNL     1      -7.927   1.119   3.293  0.00  0.00    -0.076 S 
BRANCH  12  13
ATOM     13  C   UNL     1      -6.142   1.080   3.590  0.00  0.00    +0.173 C 
BRANCH  13  18
ATOM     14  N   UNL     1      -2.119  -0.061   1.218  0.00  0.00    -0.296 N 
ATOM     15  C   UNL     1      -3.462   0.049   1.230  0.00  0.00    +0.306 C 
ATOM     16  O   UNL     1      -4.105  -0.243   0.240  0.00  0.00    -0.252 OA
ATOM     17  N   UNL     1      -4.093   0.484   2.339  0.00  0.00    -0.239 N 
ATOM     18  C   UNL     1      -5.436   0.594   2.350  0.00  0.00    +0.231 C 
ATOM     19  O   UNL     1      -6.077   0.303   1.363  0.00  0.00    -0.274 OA
ATOM     20  H   UNL     1      -1.606   0.172   2.008  0.00  0.00    +0.151 HD
ATOM     21  H   UNL     1      -3.580   0.717   3.128  0.00  0.00    +0.159 HD
BRANCH  14  28
ATOM     22  C   UNL     1      -0.019   1.526   0.010  0.00  0.00    +0.009 C 
ATOM     23  C   UNL     1       0.002  -0.004   0.002  0.00  0.00    +0.006 C 
ATOM     24  C   UNL     1       0.742  -0.511   1.242  0.00  0.00    +0.005 C 
ATOM     25  C   UNL     1       0.763  -2.041   1.233  0.00  0.00    +0.000 C 
ATOM     26  C   UNL     1      -0.673  -2.570   1.244  0.00  0.00    +0.002 C 
ATOM     27  C   UNL     1      -1.413  -2.063   0.004  0.00  0.00    +0.022 C 
ATOM     28  C   UNL     1      -1.433  -0.534   0.013  0.00  0.00    +0.077 C 
ENDBRANCH  14  28
ENDBRANCH  13  18
ENDBRANCH  12  13
ENDBRANCH   1  12
BRANCH   4  29
ATOM     29  C   UNL     1     -10.900   2.772   7.380  0.00  0.00    -0.001 C 
BRANCH  29  35
ATOM     30  C   UNL     1     -10.071   5.021   7.722  0.00  0.00    -0.078 C 
ATOM     31  C   UNL     1     -10.327   6.494   7.396  0.00  0.00    -0.019 C 
ATOM     32  C   UNL     1     -11.649   6.931   8.034  0.00  0.00    -0.004 C 
ATOM     33  C   UNL     1     -12.777   6.033   7.518  0.00  0.00    -0.019 C 
ATOM     34  C   UNL     1     -12.450   4.574   7.841  0.00  0.00    -0.078 C 
ATOM     35  N   UNL     1     -11.180   4.208   7.178  0.00  0.00    +0.384 N 
ATOM     36  H   UNL     1     -11.264   4.393   6.171  0.00  0.00    -0.081 HD
ENDBRANCH  29  35
ENDBRANCH   4  29
TORSDOF 7
