REMARK  Name = ZINC46814611
REMARK  10 active torsions:
REMARK  status: ('A' for Active; 'I' for Inactive)
REMARK    1  A    between atoms: C_1  and  C_2
REMARK    2  A    between atoms: C_7  and  N_8
REMARK    3  A    between atoms: C_9  and  C_31
REMARK    4  A    between atoms: C_10  and  C_13
REMARK    5  A    between atoms: N_15  and  C_16
REMARK    6  A    between atoms: C_16  and  C_17
REMARK    7  A    between atoms: C_17  and  C_18
REMARK    8  A    between atoms: C_18  and  C_19
REMARK    9  A    between atoms: N_21  and  C_25
REMARK   10  A    between atoms: C_23  and  C_24
REMARK                            x       y       z     vdW  Elec       q    Type
REMARK                         _______ _______ _______ _____ _____    ______ ____
ROOT
ATOM      1  C   UNL     1       0.311   0.633   5.923  0.00  0.00    +0.247 C 
ATOM      2  O   UNL     1       0.370  -0.445   6.483  0.00  0.00    -0.270 OA
ATOM      3  N   UNL     1       0.289   1.769   6.649  0.00  0.00    -0.311 N 
ATOM      4  H   UNL     1       0.242   2.628   6.202  0.00  0.00    +0.149 HD
ENDROOT
BRANCH   1   7
ATOM      5  N   UNL     1       0.159   0.119   2.335  0.00  0.00    -0.235 N 
ATOM      6  C   UNL     1       0.176  -0.375   3.586  0.00  0.00    +0.060 A 
ATOM      7  C   UNL     1       0.264   0.698   4.451  0.00  0.00    +0.078 A 
ATOM      8  C   UNL     1       0.301   1.869   3.662  0.00  0.00    +0.148 A 
ATOM      9  N   UNL     1       0.244   1.514   2.408  0.00  0.00    -0.174 NA
BRANCH   5  16
ATOM     10  C   UNL     1      -1.766   0.876   0.381  0.00  0.00    +0.046 C 
ATOM     11  C   UNL     1      -0.848  -0.301   0.179  0.00  0.00    -0.025 A 
ATOM     12  C   UNL     1      -0.923  -1.045  -0.983  0.00  0.00    +0.005 A 
ATOM     13  C   UNL     1      -0.081  -2.125  -1.170  0.00  0.00    +0.000 A 
ATOM     14  C   UNL     1       0.838  -2.466  -0.194  0.00  0.00    +0.002 A 
ATOM     15  C   UNL     1       0.917  -1.727   0.970  0.00  0.00    +0.028 A 
ATOM     16  C   UNL     1       0.077  -0.637   1.157  0.00  0.00    +0.069 A 
ENDBRANCH   5  16
BRANCH   6  17
ATOM     17  C   UNL     1       0.109  -1.830   3.973  0.00  0.00    +0.039 C 
ATOM     18  C   UNL     1      -0.962  -2.691   3.300  0.00  0.00    +0.010 C 
ATOM     19  C   UNL     1      -1.112  -2.294   4.770  0.00  0.00    +0.010 C 
ENDBRANCH   6  17
ENDBRANCH   1   7
BRANCH   3  20
ATOM     20  C   UNL     1       0.335   1.704   8.112  0.00  0.00    +0.105 C 
BRANCH  20  21
ATOM     21  C   UNL     1       0.297   3.122   8.686  0.00  0.00    +0.023 C 
BRANCH  21  22
ATOM     22  C   UNL     1       0.346   3.055  10.214  0.00  0.00    +0.040 C 
BRANCH  22  23
ATOM     23  C   UNL     1       0.309   4.451  10.779  0.00  0.00    -0.007 A 
ATOM     24  C   UNL     1       1.382   5.198  11.128  0.00  0.00    +0.118 A 
ATOM     25  N   UNL     1       0.926   6.384  11.590  0.00  0.00    -0.239 N 
ATOM     26  N   UNL     1      -0.473   6.362  11.523  0.00  0.00    -0.171 NA
ATOM     27  C   UNL     1      -0.842   5.207  11.031  0.00  0.00    +0.064 A 
ATOM     28  C   UNL     1      -2.261   4.764  10.783  0.00  0.00    +0.068 C 
BRANCH  25  29
ATOM     29  C   UNL     1       1.713   7.446  12.056  0.00  0.00    +0.065 A 
ATOM     30  C   UNL     1       3.097   7.335  12.064  0.00  0.00    +0.028 A 
ATOM     31  C   UNL     1       3.870   8.383  12.524  0.00  0.00    +0.002 A 
ATOM     32  C   UNL     1       3.267   9.542  12.976  0.00  0.00    +0.000 A 
ATOM     33  C   UNL     1       1.889   9.656  12.969  0.00  0.00    +0.002 A 
ATOM     34  C   UNL     1       1.111   8.614  12.505  0.00  0.00    +0.028 A 
ENDBRANCH  25  29
ENDBRANCH  22  23
ENDBRANCH  21  22
ENDBRANCH  20  21
ENDBRANCH   3  20
TORSDOF 8
