REMARK  Name = ZINC25034723
REMARK  7 active torsions:
REMARK  status: ('A' for Active; 'I' for Inactive)
REMARK    1  A    between atoms: C_1  and  C_2
REMARK    2  A    between atoms: C_2  and  C_4
REMARK    3  A    between atoms: C_2  and  S_14
REMARK    4  A    between atoms: N_10  and  C_11
REMARK    5  A    between atoms: N_10  and  C_12
REMARK    6  A    between atoms: S_14  and  C_15
REMARK    7  A    between atoms: N_19  and  C_20
REMARK                            x       y       z     vdW  Elec       q    Type
REMARK                         _______ _______ _______ _____ _____    ______ ____
ROOT
ATOM      1  C   UNL     1      -0.753   1.593  -1.232  0.00  0.00    +0.028 C 
ATOM      2  C   UNL     1      -0.013   1.086   0.008  0.00  0.00    +0.119 C 
ENDROOT
BRANCH   2   3
ATOM      3  C   UNL     1      -0.718   1.572   1.248  0.00  0.00    +0.149 A 
ATOM      4  N   UNL     1      -0.597   2.833   1.623  0.00  0.00    -0.198 NA
ATOM      5  C   UNL     1      -1.222   3.267   2.715  0.00  0.00    +0.217 A 
ATOM      6  N   UNL     1      -1.961   2.428   3.434  0.00  0.00    -0.181 NA
ATOM      7  C   UNL     1      -2.076   1.160   3.056  0.00  0.00    +0.222 A 
ATOM      8  N   UNL     1      -1.452   0.735   1.960  0.00  0.00    -0.198 NA
ATOM      9  N   UNL     1      -2.842   0.285   3.798  0.00  0.00    -0.306 N 
ATOM     10  C   UNL     1      -2.969  -1.113   3.380  0.00  0.00    +0.132 C 
ATOM     11  C   UNL     1      -3.529   0.754   5.004  0.00  0.00    +0.132 C 
ATOM     12  N   UNL     1      -1.099   4.586   3.104  0.00  0.00    -0.327 N 
ATOM     13  H   UNL     1      -1.616   4.944   4.006  0.00  0.00    +0.145 HD
ATOM     14  H   UNL     1      -0.484   5.279   2.511  0.00  0.00    +0.145 HD
ENDBRANCH   2   3
BRANCH   2  15
ATOM     15  S   UNL     1       1.685   1.712  -0.005  0.00  0.00    -0.076 S 
BRANCH  15  16
ATOM     16  C   UNL     1       2.303   0.892  -1.437  0.00  0.00    +0.174 A 
ATOM     17  N   UNL     1       1.626   0.069  -2.203  0.00  0.00    -0.230 NA
ATOM     18  C   UNL     1       2.416  -0.362  -3.201  0.00  0.00    +0.131 A 
ATOM     19  C   UNL     1       3.628   0.199  -3.055  0.00  0.00    +0.113 A 
ATOM     20  N   UNL     1       3.568   1.000  -1.935  0.00  0.00    -0.295 N 
BRANCH  20  21
ATOM     21  C   UNL     1       4.609   1.778  -1.408  0.00  0.00    +0.049 A 
ATOM     22  C   UNL     1       4.394   3.116  -1.107  0.00  0.00    +0.027 A 
ATOM     23  C   UNL     1       5.420   3.878  -0.585  0.00  0.00    +0.017 A 
ATOM     24  C   UNL     1       6.664   3.312  -0.369  0.00  0.00    +0.018 A 
ATOM     25  C   UNL     1       6.883   1.980  -0.672  0.00  0.00    +0.017 A 
ATOM     26  C   UNL     1       5.859   1.212  -1.191  0.00  0.00    +0.027 A 
ATOM     27 BR   UNL     1       8.069   4.361   0.340  0.00  0.00    -0.050 Br
ENDBRANCH  20  21
ENDBRANCH  15  16
ENDBRANCH   2  15
TORSDOF 4
