REMARK  Name = ZINC41992597
REMARK  3 active torsions:
REMARK  status: ('A' for Active; 'I' for Inactive)
REMARK    1  A    between atoms: C_4  and  C_7
REMARK    2  A    between atoms: C_4  and  S_10
REMARK    3  A    between atoms: S_10  and  C_11
REMARK                            x       y       z     vdW  Elec       q    Type
REMARK                         _______ _______ _______ _____ _____    ______ ____
ROOT
ATOM      1  S   UNL     1       3.003  -0.553  -2.760  0.00  0.00    -0.066 S 
ENDROOT
BRANCH   1   2
ATOM      2  C   UNL     1       2.944  -2.309  -2.623  0.00  0.00    +0.211 A 
ATOM      3  N   UNL     1       3.457  -3.175  -3.505  0.00  0.00    -0.188 NA
ATOM      4  C   UNL     1       3.237  -4.406  -3.095  0.00  0.00    +0.209 A 
ATOM      5  N   UNL     1       2.568  -4.342  -1.925  0.00  0.00    -0.246 N 
ATOM      6  H   UNL     1       2.269  -5.091  -1.385  0.00  0.00    +0.192 HD
ATOM      7  N   UNL     1       2.395  -2.978  -1.639  0.00  0.00    -0.144 NA
ATOM      8  N   UNL     1       3.623  -5.562  -3.749  0.00  0.00    -0.328 N 
ATOM      9  H   UNL     1       4.102  -5.506  -4.590  0.00  0.00    +0.145 HD
ATOM     10  H   UNL     1       3.413  -6.428  -3.366  0.00  0.00    +0.145 HD
ENDBRANCH   1   2
BRANCH   1  14
ATOM     11  C   UNL     1      -0.019   1.526   0.010  0.00  0.00    +0.000 C 
ATOM     12  C   UNL     1       1.417   2.055  -0.000  0.00  0.00    +0.002 C 
ATOM     13  C   UNL     1       2.133   1.562  -1.259  0.00  0.00    +0.029 C 
ATOM     14  C   UNL     1       2.154   0.032  -1.268  0.00  0.00    +0.125 C 
ATOM     15  C   UNL     1       0.718  -0.497  -1.257  0.00  0.00    +0.029 C 
ATOM     16  C   UNL     1       0.002  -0.004   0.002  0.00  0.00    +0.002 C 
BRANCH  14  17
ATOM     17  C   UNL     1       2.882  -0.467  -0.047  0.00  0.00    +0.372 C 
ATOM     18  O   UNL     1       2.473  -0.184   1.066  0.00  0.00    -0.245 OA
ATOM     19  O   UNL     1       3.882  -1.154  -0.172  0.00  0.00    -0.245 OA
ENDBRANCH  14  17
ENDBRANCH   1  14
TORSDOF 3
