REMARK  Name = ZINC12762711
REMARK  5 active torsions:
REMARK  status: ('A' for Active; 'I' for Inactive)
REMARK    1  A    between atoms: C_6  and  C_7
REMARK    2  A    between atoms: C_12  and  C_13
REMARK    3  A    between atoms: C_12  and  N_61
REMARK    4  A    between atoms: N_15  and  C_16
REMARK    5  A    between atoms: C_17  and  C_25
REMARK                            x       y       z     vdW  Elec       q    Type
REMARK                         _______ _______ _______ _____ _____    ______ ____
ROOT
ATOM      1  C   UNL     1      -2.285   3.509  -1.538  0.00  0.00    +0.020 C 
ENDROOT
BRANCH   1   6
ATOM      2  C   UNL     1      -1.565   2.817   0.682  0.00  0.00    -0.037 C 
ATOM      3  C   UNL     1      -0.778   1.605   1.246  0.00  0.00    -0.013 C 
ATOM      4  C   UNL     1      -0.013   1.086   0.008  0.00  0.00    -0.020 C 
ATOM      5  C   UNL     1      -0.799   1.616  -1.205  0.00  0.00    -0.077 C 
ATOM      6  N   UNL     1      -1.943   2.349  -0.661  0.00  0.00    +0.390 N 
ATOM      7  H   UNL     1      -2.755   1.725  -0.596  0.00  0.00    -0.080 HD
BRANCH   2  13
ATOM      8  C   UNL     1      -3.882   2.263   1.447  0.00  0.00    +0.006 A 
ATOM      9  C   UNL     1      -5.004   2.515   2.216  0.00  0.00    +0.049 A 
ATOM     10  C   UNL     1      -5.023   3.610   3.064  0.00  0.00    +0.162 A 
ATOM     11  C   UNL     1      -3.920   4.449   3.140  0.00  0.00    +0.162 A 
ATOM     12  C   UNL     1      -2.797   4.190   2.374  0.00  0.00    +0.051 A 
ATOM     13  C   UNL     1      -2.784   3.099   1.523  0.00  0.00    -0.057 A 
ATOM     14  O   UNL     1      -3.949   5.526   3.978  0.00  0.00    -0.488 OA
ATOM     15  C   UNL     1      -3.952   5.229   5.376  0.00  0.00    +0.232 C 
ATOM     16  C   UNL     1      -5.365   4.952   5.865  0.00  0.00    +0.082 C 
ATOM     17  C   UNL     1      -5.960   3.701   5.237  0.00  0.00    +0.232 C 
ATOM     18  O   UNL     1      -6.124   3.871   3.827  0.00  0.00    -0.488 OA
ENDBRANCH   2  13
ENDBRANCH   1   6
BRANCH   1  19
ATOM     19  C   UNL     1      -2.849   3.010  -2.844  0.00  0.00    +0.201 C 
ATOM     20  O   UNL     1      -2.968   1.819  -3.037  0.00  0.00    -0.278 OA
ATOM     21  N   UNL     1      -3.221   3.888  -3.796  0.00  0.00    -0.281 N 
ATOM     22  H   UNL     1      -3.126   4.841  -3.642  0.00  0.00    +0.155 HD
BRANCH  21  23
ATOM     23  C   UNL     1      -3.740   3.429  -4.997  0.00  0.00    +0.084 A 
ATOM     24  C   UNL     1      -4.175   4.169  -6.088  0.00  0.00    +0.068 A 
ATOM     25  C   UNL     1      -4.680   3.438  -7.237  0.00  0.00    -0.023 A 
ATOM     26  C   UNL     1      -4.671   2.093  -7.113  0.00  0.00    -0.004 A 
ATOM     27  S   UNL     1      -3.996   1.792  -5.504  0.00  0.00    -0.077 S 
ATOM     28  C   UNL     1      -5.129   1.090  -8.126  0.00  0.00    +0.043 C 
ATOM     29  C   UNL     1      -5.963   1.821  -9.188  0.00  0.00    +0.005 C 
ATOM     30  C   UNL     1      -5.202   3.072  -9.636  0.00  0.00    +0.005 C 
ATOM     31  C   UNL     1      -5.192   4.106  -8.508  0.00  0.00    +0.037 C 
BRANCH  24  32
ATOM     32  C   UNL     1      -4.125   5.635  -6.081  0.00  0.00    +0.244 C 
ATOM     33  O   UNL     1      -3.132   6.212  -6.485  0.00  0.00    -0.270 OA
ATOM     34  N   UNL     1      -5.178   6.343  -5.626  0.00  0.00    -0.325 N 
ATOM     35  H   UNL     1      -5.968   5.883  -5.304  0.00  0.00    +0.145 HD
ATOM     36  H   UNL     1      -5.145   7.312  -5.621  0.00  0.00    +0.145 HD
ENDBRANCH  24  32
ENDBRANCH  21  23
ENDBRANCH   1  19
TORSDOF 5
