REMARK  Name = ZINC13150992
REMARK  16 active torsions:
REMARK  status: ('A' for Active; 'I' for Inactive)
REMARK    1  A    between atoms: C_1  and  C_2
REMARK    2  A    between atoms: C_2  and  C_3
REMARK    3  A    between atoms: C_3  and  C_4
REMARK    4  A    between atoms: C_4  and  C_6
REMARK    5  A    between atoms: C_4  and  N_14
REMARK    6  A    between atoms: N_8  and  C_9
REMARK    7  A    between atoms: C_9  and  C_10
REMARK    8  A    between atoms: C_9  and  C_11
REMARK    9  A    between atoms: C_9  and  C_12
REMARK   10  A    between atoms: C_12  and  C_13
REMARK   11  A    between atoms: N_14  and  C_15
REMARK   12  A    between atoms: C_15  and  C_16
REMARK   13  A    between atoms: C_22  and  C_24
REMARK   14  A    between atoms: C_24  and  N_25
REMARK   15  A    between atoms: N_25  and  S_26
REMARK   16  A    between atoms: S_26  and  C_29
REMARK                            x       y       z     vdW  Elec       q    Type
REMARK                         _______ _______ _______ _____ _____    ______ ____
ROOT
ATOM      1  N   UNL     1      -0.405  -2.210  -1.545  0.00  0.00    -0.286 N 
ATOM      2  C   UNL     1      -1.184  -2.412  -0.464  0.00  0.00    +0.232 C 
ATOM      3  O   UNL     1      -0.679  -2.668   0.608  0.00  0.00    -0.274 OA
ENDROOT
BRANCH   1   4
ATOM      4  C   UNL     1       1.052  -2.300  -1.425  0.00  0.00    +0.162 C 
BRANCH   4   5
ATOM      5  C   UNL     1       1.549  -1.210  -0.510  0.00  0.00    +0.234 C 
ATOM      6  O   UNL     1       0.763  -0.580   0.166  0.00  0.00    -0.274 OA
ATOM      7  N   UNL     1       2.867  -0.935  -0.443  0.00  0.00    -0.309 N 
ATOM      8  H   UNL     1       3.495  -1.438  -0.984  0.00  0.00    +0.149 HD
BRANCH   7   9
ATOM      9  C   UNL     1       3.349   0.125   0.446  0.00  0.00    +0.029 C 
ATOM     10  C   UNL     1       2.714   1.457   0.044  0.00  0.00    +0.031 C 
ATOM     11  C   UNL     1       2.967  -0.208   1.890  0.00  0.00    +0.031 C 
BRANCH   9  12
ATOM     12  C   UNL     1       4.872   0.231   0.333  0.00  0.00    +0.022 C 
ATOM     13  C   UNL     1       5.376   1.337   1.262  0.00  0.00    +0.006 C 
ENDBRANCH   9  12
ENDBRANCH   7   9
ENDBRANCH   4   5
BRANCH   4  14
ATOM     14  C   UNL     1       1.433  -3.664  -0.847  0.00  0.00    +0.032 C 
BRANCH  14  16
ATOM     15  C   UNL     1       1.421  -6.129  -1.256  0.00  0.00    +0.004 C 
ATOM     16  C   UNL     1       1.040  -4.764  -1.834  0.00  0.00    -0.001 C 
ENDBRANCH  14  16
ENDBRANCH   4  14
ENDBRANCH   1   4
BRANCH   1  17
ATOM     17  C   UNL     1      -1.015  -1.901  -2.840  0.00  0.00    +0.140 C 
BRANCH  17  18
ATOM     18  C   UNL     1      -1.151  -3.185  -3.660  0.00  0.00    +0.136 C 
ATOM     19  C   UNL     1      -1.738  -2.860  -5.050  0.00  0.00    +0.035 C 
ATOM     20  C   UNL     1      -2.698  -4.058  -5.291  0.00  0.00    +0.031 C 
ATOM     21  C   UNL     1      -3.193  -4.332  -3.848  0.00  0.00    +0.160 C 
ATOM     22  O   UNL     1      -2.053  -4.086  -3.007  0.00  0.00    -0.375 OA
ENDBRANCH  17  18
ENDBRANCH   1  17
BRANCH   2  23
ATOM     23  C   UNL     1      -2.683  -2.319  -0.588  0.00  0.00    +0.201 C 
BRANCH  23  24
ATOM     24  N   UNL     1      -3.298  -2.577   0.717  0.00  0.00    -0.181 NA
ATOM     25  H   UNL     1      -2.774  -2.978   1.429  0.00  0.00    +0.149 HD
BRANCH  24  26
ATOM     26  S   UNL     1      -4.885  -2.184   0.977  0.00  0.00    +0.059 S 
ATOM     27  O   UNL     1      -5.188  -2.576   2.309  0.00  0.00    -0.153 OA
ATOM     28  O   UNL     1      -5.054  -0.850   0.518  0.00  0.00    -0.153 OA
BRANCH  26  29
ATOM     29  C   UNL     1      -5.855  -3.207  -0.081  0.00  0.00    +0.105 A 
ATOM     30  C   UNL     1      -6.165  -2.780  -1.359  0.00  0.00    +0.031 A 
ATOM     31  C   UNL     1      -6.925  -3.582  -2.190  0.00  0.00    +0.040 A 
ATOM     32  C   UNL     1      -7.375  -4.812  -1.742  0.00  0.00    +0.124 A 
ATOM     33  C   UNL     1      -7.064  -5.238  -0.462  0.00  0.00    +0.040 A 
ATOM     34  C   UNL     1      -6.299  -4.438   0.365  0.00  0.00    +0.031 A 
ATOM     35  F   UNL     1      -8.119  -5.596  -2.553  0.00  0.00    -0.205 F 
ENDBRANCH  26  29
ENDBRANCH  24  26
ENDBRANCH  23  24
ENDBRANCH   2  23
TORSDOF 12
