REMARK  Name = ZINC63366308
REMARK  8 active torsions:
REMARK  status: ('A' for Active; 'I' for Inactive)
REMARK    1  A    between atoms: C_1  and  C_2
REMARK    2  A    between atoms: C_4  and  N_24
REMARK    3  A    between atoms: C_6  and  C_23
REMARK    4  A    between atoms: C_7  and  S_8
REMARK    5  A    between atoms: S_8  and  N_11
REMARK    6  A    between atoms: N_11  and  C_12
REMARK    7  A    between atoms: C_12  and  C_13
REMARK    8  A    between atoms: C_13  and  C_14
REMARK                            x       y       z     vdW  Elec       q    Type
REMARK                         _______ _______ _______ _____ _____    ______ ____
ROOT
ATOM      1  S   UNL     1       0.026   0.176   2.724  0.00  0.00    +0.059 S 
ATOM      2  O   UNL     1       0.761  -0.617   3.646  0.00  0.00    -0.153 OA
ATOM      3  O   UNL     1       0.381   1.518   2.422  0.00  0.00    -0.153 OA
ENDROOT
BRANCH   1  10
ATOM      4  C   UNL     1      -0.359   1.478   0.024  0.00  0.00    +0.046 C 
ATOM      5  C   UNL     1      -0.161  -0.016   0.008  0.00  0.00    -0.022 A 
ATOM      6  C   UNL     1      -0.158  -0.699  -1.192  0.00  0.00    +0.030 A 
ATOM      7  C   UNL     1       0.025  -2.076  -1.205  0.00  0.00    +0.051 A 
ATOM      8  C   UNL     1       0.203  -2.761  -0.010  0.00  0.00    +0.030 A 
ATOM      9  C   UNL     1       0.199  -2.072   1.187  0.00  0.00    -0.022 A 
ATOM     10  C   UNL     1       0.023  -0.701   1.196  0.00  0.00    +0.111 A 
ATOM     11  C   UNL     1       0.393  -2.815   2.484  0.00  0.00    +0.046 C 
BRANCH   7  12
ATOM     12  N   UNL     1       0.028  -2.770  -2.417  0.00  0.00    -0.207 N 
ATOM     13  C   UNL     1      -0.928  -3.859  -2.670  0.00  0.00    +0.131 C 
ATOM     14  C   UNL     1      -0.165  -5.138  -3.008  0.00  0.00    +0.022 C 
ATOM     15  C   UNL     1       0.609  -4.976  -4.314  0.00  0.00    +0.026 C 
ATOM     16  C   UNL     1       1.783  -4.013  -4.105  0.00  0.00    +0.189 C 
ATOM     17  S   UNL     1       1.109  -2.387  -3.623  0.00  0.00    +0.045 S 
ATOM     18  O   UNL     1       0.316  -1.846  -4.671  0.00  0.00    -0.155 OA
ATOM     19  O   UNL     1       2.110  -1.604  -2.986  0.00  0.00    -0.155 OA
ENDBRANCH   7  12
ENDBRANCH   1  10
BRANCH   1  20
ATOM     20  N   UNL     1      -1.537   0.212   3.271  0.00  0.00    -0.190 NA
ATOM     21  H   UNL     1      -2.006   1.058   3.344  0.00  0.00    +0.148 HD
BRANCH  20  22
ATOM     22  C   UNL     1      -2.210  -1.034   3.646  0.00  0.00    +0.110 C 
BRANCH  22  23
ATOM     23  C   UNL     1      -3.470  -0.710   4.453  0.00  0.00    +0.050 C 
BRANCH  23  24
ATOM     24  C   UNL     1      -4.162  -1.992   4.838  0.00  0.00    -0.040 C 
ATOM     25  C   UNL     1      -4.034  -2.667   6.003  0.00  0.00    -0.001 A 
ATOM     26  C   UNL     1      -3.240  -2.420   7.213  0.00  0.00    +0.010 A 
ATOM     27  C   UNL     1      -3.321  -3.296   8.240  0.00  0.00    +0.001 A 
ATOM     28  C   UNL     1      -4.141  -4.431   8.179  0.00  0.00    +0.002 A 
ATOM     29  C   UNL     1      -4.900  -4.724   7.101  0.00  0.00    +0.026 A 
ATOM     30  C   UNL     1      -4.893  -3.872   5.963  0.00  0.00    +0.043 A 
ATOM     31  N   UNL     1      -5.528  -3.939   4.819  0.00  0.00    -0.380 N 
ATOM     32  C   UNL     1      -5.148  -2.779   4.004  0.00  0.00    +0.144 C 
ATOM     33  H   UNL     1      -6.148  -4.636   4.555  0.00  0.00    +0.160 HD
ENDBRANCH  23  24
ENDBRANCH  22  23
ENDBRANCH  20  22
ENDBRANCH   1  20
TORSDOF 6
