REMARK  Name = ZINC42944088
REMARK  9 active torsions:
REMARK  status: ('A' for Active; 'I' for Inactive)
REMARK    1  A    between atoms: C_1  and  C_2
REMARK    2  A    between atoms: C_2  and  C_3
REMARK    3  A    between atoms: C_2  and  C_4
REMARK    4  A    between atoms: C_4  and  C_6
REMARK    5  A    between atoms: C_4  and  S_17
REMARK    6  A    between atoms: N_8  and  C_9
REMARK    7  A    between atoms: S_17  and  C_18
REMARK    8  A    between atoms: C_21  and  C_24
REMARK    9  A    between atoms: N_22  and  N_23
REMARK                            x       y       z     vdW  Elec       q    Type
REMARK                         _______ _______ _______ _____ _____    ______ ____
ROOT
ATOM      1  C   UNL     1      -1.414  -0.481  -0.022  0.00  0.00    +0.143 C 
ENDROOT
BRANCH   1   2
ATOM      2  C   UNL     1      -1.873  -0.134  -1.415  0.00  0.00    +0.227 C 
ATOM      3  O   UNL     1      -1.830  -0.969  -2.293  0.00  0.00    -0.275 OA
ATOM      4  N   UNL     1      -2.333   1.104  -1.684  0.00  0.00    -0.312 N 
ATOM      5  H   UNL     1      -2.368   1.772  -0.982  0.00  0.00    +0.149 HD
BRANCH   4   6
ATOM      6  C   UNL     1      -2.779   1.441  -3.038  0.00  0.00    +0.073 C 
ATOM      7  C   UNL     1      -1.575   1.864  -3.882  0.00  0.00    +0.022 C 
ATOM      8  C   UNL     1      -1.954   1.831  -5.364  0.00  0.00    +0.002 C 
ATOM      9  C   UNL     1      -2.740   0.553  -5.662  0.00  0.00    +0.000 C 
ATOM     10  C   UNL     1      -4.183   0.915  -6.024  0.00  0.00    +0.000 C 
ATOM     11  C   UNL     1      -4.950   1.282  -4.752  0.00  0.00    +0.000 C 
ATOM     12  C   UNL     1      -4.542   2.685  -4.298  0.00  0.00    +0.002 C 
ATOM     13  C   UNL     1      -3.784   2.593  -2.972  0.00  0.00    +0.022 C 
ENDBRANCH   4   6
ENDBRANCH   1   2
BRANCH   1  15
ATOM     14  C   UNL     1       0.012   1.570   0.014  0.00  0.00    +0.009 C 
ATOM     15  C   UNL     1       0.004   0.051   0.195  0.00  0.00    +0.005 C 
ATOM     16  C   UNL     1       0.468  -0.297   1.610  0.00  0.00    +0.009 C 
ENDBRANCH   1  15
BRANCH   1  17
ATOM     17  S   UNL     1      -1.423  -2.283   0.186  0.00  0.00    -0.071 S 
BRANCH  17  18
ATOM     18  C   UNL     1      -3.132  -2.710   0.139  0.00  0.00    +0.209 A 
ATOM     19  N   UNL     1      -4.143  -1.875   0.074  0.00  0.00    -0.121 NA
ATOM     20  N   UNL     1      -5.249  -2.530   0.057  0.00  0.00    -0.123 NA
ATOM     21  C   UNL     1      -5.011  -3.810   0.109  0.00  0.00    +0.255 A 
ATOM     22  N   UNL     1      -3.654  -3.971   0.157  0.00  0.00    -0.220 N 
BRANCH  21  23
ATOM     23  C   UNL     1      -6.042  -4.910   0.109  0.00  0.00    +0.454 C 
ATOM     24  F   UNL     1      -7.277  -4.392  -0.295  0.00  0.00    -0.163 F 
ATOM     25  F   UNL     1      -5.647  -5.919  -0.776  0.00  0.00    -0.163 F 
ATOM     26  F   UNL     1      -6.158  -5.439   1.399  0.00  0.00    -0.163 F 
ENDBRANCH  21  23
BRANCH  22  27
ATOM     27  N   UNL     1      -2.965  -5.149   0.215  0.00  0.00    -0.295 N 
ATOM     28  H   UNL     1      -2.815  -5.433   1.171  0.00  0.00    +0.163 HD
ATOM     29  H   UNL     1      -3.438  -5.871  -0.307  0.00  0.00    +0.163 HD
ENDBRANCH  22  27
ENDBRANCH  17  18
ENDBRANCH   1  17
TORSDOF 7
