REMARK  Name = ZINC36275096
REMARK  12 active torsions:
REMARK  status: ('A' for Active; 'I' for Inactive)
REMARK    1  A    between atoms: C_1  and  C_2
REMARK    2  A    between atoms: C_6  and  N_9
REMARK    3  A    between atoms: C_7  and  C_8
REMARK    4  A    between atoms: N_9  and  S_10
REMARK    5  A    between atoms: S_10  and  C_13
REMARK    6  A    between atoms: C_16  and  C_19
REMARK    7  A    between atoms: C_19  and  O_21
REMARK    8  A    between atoms: O_21  and  C_22
REMARK    9  A    between atoms: C_22  and  C_24
REMARK   10  A    between atoms: C_22  and  C_25
REMARK   11  A    between atoms: N_27  and  C_28
REMARK   12  A    between atoms: C_32  and  N_34
REMARK                            x       y       z     vdW  Elec       q    Type
REMARK                         _______ _______ _______ _____ _____    ______ ____
ROOT
ATOM      1  C   UNL     1       2.404  -3.201   2.845  0.00  0.00    +0.109 A 
ATOM      2  C   UNL     1       2.922  -3.350   1.571  0.00  0.00    +0.029 A 
ATOM      3  C   UNL     1       4.285  -3.296   1.367  0.00  0.00    +0.017 A 
ATOM      4  C   UNL     1       5.142  -3.092   2.450  0.00  0.00    +0.059 A 
ATOM      5  C   UNL     1       4.612  -2.943   3.733  0.00  0.00    +0.017 A 
ATOM      6  C   UNL     1       3.247  -2.992   3.922  0.00  0.00    +0.029 A 
ENDROOT
BRANCH   1   7
ATOM      7  S   UNL     1       0.661  -3.271   3.097  0.00  0.00    +0.072 S 
ATOM      8  O   UNL     1       0.461  -3.642   4.454  0.00  0.00    -0.150 OA
ATOM      9  O   UNL     1       0.124  -4.019   2.015  0.00  0.00    -0.150 OA
BRANCH   7  10
ATOM     10  N   UNL     1       0.082  -1.727   2.938  0.00  0.00    -0.216 N 
ATOM     11  H   UNL     1      -0.373  -1.301   3.682  0.00  0.00    +0.174 HD
BRANCH  10  17
ATOM     12  C   UNL     1       0.890   2.494   0.555  0.00  0.00    +0.044 C 
ATOM     13  C   UNL     1       0.640   1.008   0.548  0.00  0.00    -0.046 A 
ATOM     14  C   UNL     1       0.574   0.323  -0.652  0.00  0.00    +0.004 A 
ATOM     15  C   UNL     1       0.345  -1.040  -0.662  0.00  0.00    +0.002 A 
ATOM     16  C   UNL     1       0.181  -1.724   0.527  0.00  0.00    +0.025 A 
ATOM     17  C   UNL     1       0.247  -1.040   1.734  0.00  0.00    +0.051 A 
ATOM     18  C   UNL     1       0.483   0.330   1.741  0.00  0.00    -0.025 A 
ATOM     19  C   UNL     1       0.561   1.075   3.048  0.00  0.00    +0.046 C 
ENDBRANCH  10  17
ENDBRANCH   7  10
ENDBRANCH   1   7
BRANCH   4  20
ATOM     20  C   UNL     1       6.604  -3.034   2.240  0.00  0.00    +0.340 C 
ATOM     21  O   UNL     1       7.062  -3.165   1.122  0.00  0.00    -0.245 OA
BRANCH  20  22
ATOM     22  O   UNL     1       7.428  -2.837   3.287  0.00  0.00    -0.449 OA
BRANCH  22  23
ATOM     23  C   UNL     1       8.829  -2.792   3.010  0.00  0.00    +0.259 C 
ATOM     24  C   UNL     1       9.243  -1.350   2.710  0.00  0.00    +0.062 C 
BRANCH  23  25
ATOM     25  C   UNL     1       9.594  -3.295   4.207  0.00  0.00    +0.258 C 
ATOM     26  O   UNL     1       8.998  -3.657   5.199  0.00  0.00    -0.271 OA
ATOM     27  N   UNL     1      10.940  -3.344   4.175  0.00  0.00    -0.282 N 
ATOM     28  H   UNL     1      11.420  -2.984   3.412  0.00  0.00    +0.155 HD
BRANCH  27  29
ATOM     29  C   UNL     1      11.646  -3.912   5.241  0.00  0.00    +0.036 A 
ATOM     30  C   UNL     1      12.890  -3.410   5.599  0.00  0.00    +0.023 A 
ATOM     31  C   UNL     1      13.584  -3.973   6.652  0.00  0.00    +0.004 A 
ATOM     32  C   UNL     1      13.040  -5.037   7.349  0.00  0.00    +0.033 A 
ATOM     33  C   UNL     1      11.802  -5.539   6.995  0.00  0.00    +0.128 A 
ATOM     34  C   UNL     1      11.101  -4.976   5.947  0.00  0.00    +0.056 A 
BRANCH  33  35
ATOM     35  N   UNL     1      11.225  -6.678   7.744  0.00  0.00    +0.056 N 
ATOM     36  O   UNL     1      11.836  -7.168   8.665  0.00  0.00    -0.126 OA
ATOM     37  O   UNL     1      10.142  -7.119   7.435  0.00  0.00    -0.126 OA
ENDBRANCH  33  35
ENDBRANCH  27  29
ENDBRANCH  23  25
ENDBRANCH  22  23
ENDBRANCH  20  22
ENDBRANCH   4  20
TORSDOF 9
