REMARK  Name = ZINC09090705
REMARK  5 active torsions:
REMARK  status: ('A' for Active; 'I' for Inactive)
REMARK    1  A    between atoms: C_1  and  C_2
REMARK    2  A    between atoms: C_2  and  C_4
REMARK    3  A    between atoms: C_2  and  N_20
REMARK    4  A    between atoms: N_6  and  N_7
REMARK    5  A    between atoms: C_21  and  C_23
REMARK                            x       y       z     vdW  Elec       q    Type
REMARK                         _______ _______ _______ _____ _____    ______ ____
ROOT
ATOM      1  C   UNL     1      -1.371  -0.625  -0.068  0.00  0.00    +0.252 C 
ATOM      2  O   UNL     1      -1.671  -1.526   0.686  0.00  0.00    -0.272 OA
ATOM      3  N   UNL     1      -2.279  -0.147  -0.942  0.00  0.00    -0.205 N 
ATOM      4  H   UNL     1      -2.039   0.574  -1.545  0.00  0.00    +0.177 HD
ENDROOT
BRANCH   3   5
ATOM      5  N   UNL     1      -3.570  -0.691  -0.978  0.00  0.00    -0.174 NA
ATOM      6  C   UNL     1      -4.419  -0.302  -1.898  0.00  0.00    +0.153 C 
ATOM      7  C   UNL     1      -4.143   0.551  -3.078  0.00  0.00    +0.031 A 
ATOM      8  C   UNL     1      -2.993   1.168  -3.558  0.00  0.00    +0.032 A 
ATOM      9  C   UNL     1      -3.051   1.920  -4.715  0.00  0.00    +0.043 A 
ATOM     10  C   UNL     1      -4.252   2.059  -5.394  0.00  0.00    +0.042 A 
ATOM     11  C   UNL     1      -5.399   1.449  -4.924  0.00  0.00    +0.064 A 
ATOM     12  C   UNL     1      -5.358   0.688  -3.760  0.00  0.00    +0.062 A 
ATOM     13  N   UNL     1      -6.348  -0.018  -3.083  0.00  0.00    -0.278 N 
ATOM     14  C   UNL     1      -5.858  -0.624  -1.988  0.00  0.00    +0.269 C 
ATOM     15  O   UNL     1      -6.488  -1.312  -1.207  0.00  0.00    -0.268 OA
ATOM     16 CL   UNL     1      -6.894   1.635  -5.787  0.00  0.00    -0.082 Cl
ATOM     17 CL   UNL     1      -1.619   2.693  -5.320  0.00  0.00    -0.083 Cl
ATOM     18  H   UNL     1      -7.274  -0.069  -3.367  0.00  0.00    +0.155 HD
ENDBRANCH   3   5
BRANCH   1  20
ATOM     19  C   UNL     1      -0.067   1.450   0.305  0.00  0.00    +0.038 C 
ATOM     20  C   UNL     1       0.017  -0.040  -0.028  0.00  0.00    +0.157 C 
BRANCH  20  21
ATOM     21  N   UNL     1       0.807  -0.726   0.997  0.00  0.00    -0.304 N 
ATOM     22  C   UNL     1       2.151  -0.761   0.902  0.00  0.00    +0.220 C 
ATOM     23  O   UNL     1       2.706  -0.224  -0.034  0.00  0.00    -0.275 OA
ATOM     24  H   UNL     1       0.363  -1.155   1.745  0.00  0.00    +0.149 HD
BRANCH  22  25
ATOM     25  C   UNL     1       2.963  -1.467   1.956  0.00  0.00    +0.048 C 
ATOM     26  C   UNL     1       2.558  -2.941   2.011  0.00  0.00    +0.019 C 
ATOM     27  C   UNL     1       3.383  -3.658   3.082  0.00  0.00    -0.009 C 
ATOM     28  C   UNL     1       4.870  -3.550   2.737  0.00  0.00    +0.007 C 
ATOM     29  C   UNL     1       5.275  -2.075   2.683  0.00  0.00    -0.009 C 
ATOM     30  C   UNL     1       4.450  -1.359   1.612  0.00  0.00    +0.019 C 
ATOM     31  C   UNL     1       5.018  -1.425   4.044  0.00  0.00    +0.007 C 
ATOM     32  C   UNL     1       3.531  -1.534   4.389  0.00  0.00    -0.009 C 
ATOM     33  C   UNL     1       3.126  -3.008   4.443  0.00  0.00    +0.007 C 
ATOM     34  C   UNL     1       2.706  -0.817   3.318  0.00  0.00    +0.019 C 
ENDBRANCH  22  25
ENDBRANCH  20  21
ENDBRANCH   1  20
TORSDOF 4
