REMARK  Name = ZINC15865028
REMARK  13 active torsions:
REMARK  status: ('A' for Active; 'I' for Inactive)
REMARK    1  A    between atoms: C_1  and  C_2
REMARK    2  A    between atoms: C_2  and  N_77
REMARK    3  A    between atoms: C_6  and  C_8
REMARK    4  A    between atoms: C_8  and  N_9
REMARK    5  A    between atoms: C_10  and  C_12
REMARK    6  A    between atoms: N_15  and  S_18
REMARK    7  A    between atoms: S_18  and  C_21
REMARK    8  A    between atoms: C_22  and  C_37
REMARK    9  A    between atoms: C_25  and  C_26
REMARK   10  A    between atoms: C_27  and  C_28
REMARK   11  A    between atoms: C_29  and  C_36
REMARK   12  A    between atoms: C_31  and  C_35
REMARK   13  A    between atoms: C_33  and  C_34
REMARK                            x       y       z     vdW  Elec       q    Type
REMARK                         _______ _______ _______ _____ _____    ______ ____
ROOT
ATOM      1  S   UNL     1       0.120   2.572   3.840  0.00  0.00    +0.066 S 
ATOM      2  O   UNL     1       0.130   2.544   5.260  0.00  0.00    -0.153 OA
ATOM      3  O   UNL     1       0.523   1.460   3.053  0.00  0.00    -0.153 OA
ENDROOT
BRANCH   1   7
ATOM      4  C   UNL     1       1.732   6.359   2.267  0.00  0.00    +0.077 C 
ATOM      5  C   UNL     1       0.950   6.274   3.580  0.00  0.00    +0.030 C 
ATOM      6  C   UNL     1       1.310   4.971   4.300  0.00  0.00    +0.110 C 
ATOM      7  N   UNL     1       1.077   3.845   3.385  0.00  0.00    -0.176 NA
ATOM      8  C   UNL     1       1.714   3.868   2.062  0.00  0.00    +0.110 C 
ATOM      9  C   UNL     1       1.346   5.186   1.364  0.00  0.00    +0.030 C 
BRANCH   4  11
ATOM     10  N   UNL     1       1.984   7.950   0.390  0.00  0.00    -0.317 N 
ATOM     11  C   UNL     1       1.407   7.657   1.572  0.00  0.00    +0.216 C 
ATOM     12  O   UNL     1       0.627   8.436   2.077  0.00  0.00    -0.276 OA
ATOM     13  H   UNL     1       2.608   7.327  -0.014  0.00  0.00    +0.149 HD
BRANCH  10  14
ATOM     14  C   UNL     1       1.667   9.211  -0.286  0.00  0.00    +0.089 C 
BRANCH  14  18
ATOM     15  C   UNL     1       3.445  10.894  -3.053  0.00  0.00    -0.078 C 
ATOM     16  C   UNL     1       4.623  10.493  -2.139  0.00  0.00    -0.020 C 
ATOM     17  C   UNL     1       4.028   9.480  -1.140  0.00  0.00    -0.016 C 
ATOM     18  C   UNL     1       2.540   9.354  -1.534  0.00  0.00    -0.051 C 
ATOM     19  N   UNL     1       2.264  10.610  -2.239  0.00  0.00    +0.382 N 
ATOM     20  H   UNL     1       2.115  11.368  -1.562  0.00  0.00    -0.081 HD
BRANCH  19  22
ATOM     21  C   UNL     1       0.528  11.853  -3.502  0.00  0.00    -0.017 C 
ATOM     22  C   UNL     1       1.045  10.471  -3.098  0.00  0.00    -0.082 C 
ENDBRANCH  19  22
ENDBRANCH  14  18
ENDBRANCH  10  14
ENDBRANCH   4  11
ENDBRANCH   1   7
BRANCH   1  23
ATOM     23  C   UNL     1      -1.529   2.961   3.355  0.00  0.00    +0.174 A 
ATOM     24  C   UNL     1      -2.167   2.670   2.134  0.00  0.00    +0.107 A 
ATOM     25  N   UNL     1      -3.376   3.149   2.220  0.00  0.00    -0.081 NA
ATOM     26  O   UNL     1      -3.581   3.674   3.289  0.00  0.00    -0.353 OA
ATOM     27  C   UNL     1      -2.493   3.619   4.080  0.00  0.00    +0.187 A 
ATOM     28  C   UNL     1      -1.566   1.949   0.954  0.00  0.00    +0.071 C 
BRANCH  27  29
ATOM     29  C   UNL     1      -2.362   4.153   5.439  0.00  0.00    +0.051 C 
ATOM     30  C   UNL     1      -3.404   4.777   6.020  0.00  0.00    +0.012 C 
BRANCH  30  31
ATOM     31  C   UNL     1      -3.274   5.314   7.385  0.00  0.00    -0.019 A 
ATOM     32  C   UNL     1      -2.774   4.507   8.412  0.00  0.00    -0.043 A 
ATOM     33  C   UNL     1      -2.650   5.018   9.687  0.00  0.00    +0.007 A 
ATOM     34  C   UNL     1      -3.028   6.322   9.953  0.00  0.00    -0.050 A 
ATOM     35  C   UNL     1      -3.529   7.125   8.943  0.00  0.00    +0.007 A 
ATOM     36  C   UNL     1      -3.654   6.630   7.662  0.00  0.00    -0.043 A 
ATOM     37  C   UNL     1      -4.199   7.506   6.564  0.00  0.00    +0.044 C 
ATOM     38  C   UNL     1      -2.896   6.871  11.351  0.00  0.00    +0.044 C 
ATOM     39  C   UNL     1      -2.367   3.085   8.126  0.00  0.00    +0.044 C 
ENDBRANCH  30  31
ENDBRANCH  27  29
ENDBRANCH   1  23
TORSDOF 8
