REMARK  Name = ZINC25003067
REMARK  8 active torsions:
REMARK  status: ('A' for Active; 'I' for Inactive)
REMARK    1  A    between atoms: C_4  and  N_7
REMARK    2  A    between atoms: C_8  and  C_29
REMARK    3  A    between atoms: C_11  and  S_12
REMARK    4  A    between atoms: S_12  and  C_13
REMARK    5  A    between atoms: C_13  and  C_14
REMARK    6  A    between atoms: N_24  and  C_25
REMARK    7  A    between atoms: C_25  and  C_26
REMARK    8  A    between atoms: C_29  and  N_30
REMARK                            x       y       z     vdW  Elec       q    Type
REMARK                         _______ _______ _______ _____ _____    ______ ____
ROOT
ATOM      1  N   UNL     1      -2.490   0.862   6.551  0.00  0.00    -0.276 N 
ATOM      2  C   UNL     1      -1.576   1.659   7.188  0.00  0.00    +0.122 A 
ATOM      3  N   UNL     1      -0.889   2.272   6.266  0.00  0.00    -0.135 NA
ATOM      4  N   UNL     1      -1.296   1.917   5.100  0.00  0.00    -0.122 NA
ATOM      5  C   UNL     1      -2.282   1.057   5.213  0.00  0.00    +0.196 A 
ENDROOT
BRANCH   1   9
ATOM      6  C   UNL     1      -5.315  -1.641   8.323  0.00  0.00    +0.000 A 
ATOM      7  C   UNL     1      -4.295  -2.182   7.563  0.00  0.00    +0.002 A 
ATOM      8  C   UNL     1      -3.357  -1.355   6.974  0.00  0.00    +0.026 A 
ATOM      9  C   UNL     1      -3.441   0.020   7.147  0.00  0.00    +0.050 A 
ATOM     10  C   UNL     1      -4.464   0.559   7.915  0.00  0.00    +0.026 A 
ATOM     11  C   UNL     1      -5.401  -0.272   8.496  0.00  0.00    +0.002 A 
ENDBRANCH   1   9
BRANCH   5  12
ATOM     12  S   UNL     1      -3.165   0.294   3.893  0.00  0.00    -0.078 S 
BRANCH  12  13
ATOM     13  C   UNL     1      -2.324   1.046   2.477  0.00  0.00    +0.151 C 
BRANCH  13  14
ATOM     14  C   UNL     1      -2.930   0.527   1.199  0.00  0.00    +0.124 A 
ATOM     15  N   UNL     1      -3.903  -0.329   1.282  0.00  0.00    -0.233 NA
ATOM     16  C   UNL     1      -4.497  -0.840   0.175  0.00  0.00    +0.078 A 
ATOM     17  C   UNL     1      -5.544  -1.760   0.263  0.00  0.00    +0.028 A 
ATOM     18  C   UNL     1      -6.118  -2.252  -0.887  0.00  0.00    +0.002 A 
ATOM     19  C   UNL     1      -5.669  -1.846  -2.137  0.00  0.00    +0.001 A 
ATOM     20  C   UNL     1      -4.638  -0.939  -2.250  0.00  0.00    +0.015 A 
ATOM     21  C   UNL     1      -4.043  -0.429  -1.098  0.00  0.00    +0.065 A 
ATOM     22  C   UNL     1      -2.943   0.545  -1.157  0.00  0.00    +0.262 A 
ATOM     23  O   UNL     1      -2.508   0.945  -2.221  0.00  0.00    -0.267 OA
ATOM     24  N   UNL     1      -2.430   0.977   0.019  0.00  0.00    -0.287 N 
BRANCH  24  25
ATOM     25  C   UNL     1      -1.330   1.944   0.019  0.00  0.00    +0.222 C 
BRANCH  25  26
ATOM     26  C   UNL     1      -0.014   1.209   0.009  0.00  0.00    +0.230 C 
ATOM     27  O   UNL     1       0.002  -0.004   0.002  0.00  0.00    -0.274 OA
ATOM     28  N   UNL     1       1.143   1.898   0.001  0.00  0.00    -0.328 N 
ATOM     29  H   UNL     1       2.103   1.361  -0.006  0.00  0.00    +0.145 HD
ATOM     30  H   UNL     1       1.129   2.998   0.003  0.00  0.00    +0.145 HD
ENDBRANCH  25  26
ENDBRANCH  24  25
ENDBRANCH  13  14
ENDBRANCH  12  13
ENDBRANCH   5  12
BRANCH   2  31
ATOM     31  C   UNL     1      -1.398   1.800   8.677  0.00  0.00    -0.001 C 
BRANCH  31  32
ATOM     32  N   UNL     1      -0.425   0.806   9.151  0.00  0.00    +0.384 N 
ATOM     33  C   UNL     1      -0.943  -0.558   8.983  0.00  0.00    -0.078 C 
ATOM     34  C   UNL     1       0.147  -1.568   9.349  0.00  0.00    -0.019 C 
ATOM     35  C   UNL     1       0.580  -1.341  10.800  0.00  0.00    -0.004 C 
ATOM     36  C   UNL     1       1.070   0.101  10.958  0.00  0.00    -0.019 C 
ATOM     37  C   UNL     1      -0.047   1.062  10.546  0.00  0.00    -0.078 C 
ATOM     38  H   UNL     1       0.481   0.898   8.535  0.00  0.00    -0.081 HD
ENDBRANCH  31  32
ENDBRANCH   2  31
TORSDOF 8
