REMARK  Name = ZINC13146607
REMARK  8 active torsions:
REMARK  status: ('A' for Active; 'I' for Inactive)
REMARK    1  A    between atoms: C_3  and  C_9
REMARK    2  A    between atoms: C_9  and  O_10
REMARK    3  A    between atoms: O_10  and  N_11
REMARK    4  A    between atoms: N_13  and  C_14
REMARK    5  A    between atoms: N_16  and  O_17
REMARK    6  A    between atoms: O_17  and  C_18
REMARK    7  A    between atoms: C_18  and  C_19
REMARK    8  A    between atoms: C_22  and  C_25
REMARK                            x       y       z     vdW  Elec       q    Type
REMARK                         _______ _______ _______ _____ _____    ______ ____
ROOT
ATOM      1  C   UNL     1       5.362   7.850  -0.011  0.00  0.00    +0.347 C 
ATOM      2  O   UNL     1       4.256   8.358   0.003  0.00  0.00    -0.248 OA
ATOM      3  N   UNL     1       6.462   8.630  -0.018  0.00  0.00    -0.176 N 
ATOM      4  H   UNL     1       7.343   8.226  -0.029  0.00  0.00    +0.184 HD
ENDROOT
BRANCH   1   7
ATOM      5  N   UNL     1       4.545   4.406  -0.020  0.00  0.00    -0.257 N 
ATOM      6  C   UNL     1       4.419   5.751  -0.012  0.00  0.00    +0.210 C 
ATOM      7  N   UNL     1       5.488   6.509  -0.019  0.00  0.00    -0.150 NA
ATOM      8  H   UNL     1       5.427   4.001  -0.031  0.00  0.00    +0.195 HD
BRANCH   5   9
ATOM      9  O   UNL     1       3.390   3.586  -0.013  0.00  0.00    -0.269 OA
BRANCH   9  10
ATOM     10  C   UNL     1       3.671   2.185  -0.023  0.00  0.00    +0.229 C 
BRANCH  10  13
ATOM     11  C   UNL     1      -0.017   1.379   0.010  0.00  0.00    +0.020 A 
ATOM     12  C   UNL     1       1.171   2.087   0.002  0.00  0.00    +0.009 A 
ATOM     13  C   UNL     1       2.377   1.413  -0.013  0.00  0.00    -0.001 A 
ATOM     14  C   UNL     1       2.397   0.029  -0.021  0.00  0.00    +0.048 A 
ATOM     15  C   UNL     1       1.210  -0.679  -0.013  0.00  0.00    +0.040 A 
ATOM     16  C   UNL     1       0.002  -0.004   0.002  0.00  0.00    +0.042 A 
ATOM     17 CL   UNL     1      -1.489  -0.893   0.012  0.00  0.00    -0.083 Cl
ATOM     18 CL   UNL     1       3.913  -0.817  -0.041  0.00  0.00    -0.083 Cl
ENDBRANCH  10  13
ENDBRANCH   9  10
ENDBRANCH   5   9
ENDBRANCH   1   7
BRANCH   3  19
ATOM     19  O   UNL     1       6.330  10.040  -0.010  0.00  0.00    -0.272 OA
BRANCH  19  20
ATOM     20  C   UNL     1       7.575  10.740  -0.019  0.00  0.00    +0.247 C 
BRANCH  20  21
ATOM     21  C   UNL     1       7.316  12.225  -0.009  0.00  0.00    +0.087 A 
ATOM     22  C   UNL     1       7.181  12.904  -1.207  0.00  0.00    +0.065 A 
ATOM     23  C   UNL     1       6.943  14.270  -1.186  0.00  0.00    +0.035 A 
ATOM     24  C   UNL     1       6.849  14.905   0.044  0.00  0.00    +0.074 A 
ATOM     25  C   UNL     1       6.995  14.160   1.199  0.00  0.00    +0.123 A 
ATOM     26  N   UNL     1       7.216  12.861   1.141  0.00  0.00    -0.255 NA
ATOM     27 CL   UNL     1       7.309  12.057  -2.717  0.00  0.00    -0.082 Cl
BRANCH  24  28
ATOM     28  C   UNL     1       6.592  16.388   0.119  0.00  0.00    +0.419 C 
ATOM     29  F   UNL     1       5.213  16.620   0.161  0.00  0.00    -0.166 F 
ATOM     30  F   UNL     1       7.187  16.906   1.275  0.00  0.00    -0.166 F 
ATOM     31  F   UNL     1       7.137  17.014  -1.007  0.00  0.00    -0.166 F 
ENDBRANCH  24  28
ENDBRANCH  20  21
ENDBRANCH  19  20
ENDBRANCH   3  19
TORSDOF 8
