REMARK  Name = ZINC66898132
REMARK  5 active torsions:
REMARK  status: ('A' for Active; 'I' for Inactive)
REMARK    1  A    between atoms: C_1  and  C_2
REMARK    2  A    between atoms: C_2  and  C_4
REMARK    3  A    between atoms: C_2  and  N_19
REMARK    4  A    between atoms: N_6  and  C_7
REMARK    5  A    between atoms: C_23  and  C_27
REMARK                            x       y       z     vdW  Elec       q    Type
REMARK                         _______ _______ _______ _____ _____    ______ ____
ROOT
ATOM      1  C   UNL     1       0.077   1.455  -0.056  0.00  0.00    -0.004 C 
ATOM      2  C   UNL     1       0.196  -0.061  -0.227  0.00  0.00    +0.016 C 
ENDROOT
BRANCH   2   3
ATOM      3  N   UNL     1       1.326  -0.557   0.570  0.00  0.00    +0.387 N 
ATOM      4  C   UNL     1       2.563   0.133   0.164  0.00  0.00    -0.078 C 
ATOM      5  C   UNL     1       3.585   0.169   1.207  0.00  0.00    -0.018 C 
ATOM      6  C   UNL     1       4.037  -1.260   1.593  0.00  0.00    +0.006 C 
ATOM      7  C   UNL     1       2.970  -1.906   2.437  0.00  0.00    +0.017 C 
ATOM      8  C   UNL     1       1.940  -2.703   1.612  0.00  0.00    -0.011 C 
ATOM      9  C   UNL     1       1.513  -1.969   0.329  0.00  0.00    -0.077 C 
ATOM     10  H   UNL     1       1.150  -0.397   1.550  0.00  0.00    -0.081 HD
BRANCH   7  11
ATOM     11  C   UNL     1       3.629  -2.842   3.417  0.00  0.00    -0.044 A 
ATOM     12  C   UNL     1       4.397  -3.896   2.958  0.00  0.00    +0.004 A 
ATOM     13  C   UNL     1       5.001  -4.754   3.857  0.00  0.00    +0.000 A 
ATOM     14  C   UNL     1       4.838  -4.559   5.215  0.00  0.00    +0.000 A 
ATOM     15  C   UNL     1       4.071  -3.505   5.675  0.00  0.00    +0.000 A 
ATOM     16  C   UNL     1       3.470  -2.644   4.776  0.00  0.00    +0.004 A 
ENDBRANCH   7  11
ENDBRANCH   2   3
BRANCH   2  17
ATOM     17  C   UNL     1      -1.076  -0.721   0.242  0.00  0.00    +0.203 C 
ATOM     18  O   UNL     1      -1.043  -1.524   1.150  0.00  0.00    -0.277 OA
ATOM     19  N   UNL     1      -2.249  -0.417  -0.348  0.00  0.00    -0.287 N 
ATOM     20  H   UNL     1      -2.266   0.169  -1.121  0.00  0.00    +0.155 HD
BRANCH  19  21
ATOM     21  C   UNL     1      -3.444  -0.947   0.156  0.00  0.00    +0.035 A 
ATOM     22  C   UNL     1      -4.487  -1.253  -0.711  0.00  0.00    +0.025 A 
ATOM     23  C   UNL     1      -5.667  -1.776  -0.221  0.00  0.00    +0.029 A 
ATOM     24  C   UNL     1      -5.813  -1.997   1.140  0.00  0.00    +0.067 A 
ATOM     25  C   UNL     1      -4.767  -1.692   2.013  0.00  0.00    +0.069 A 
ATOM     26  C   UNL     1      -3.582  -1.172   1.517  0.00  0.00    +0.051 A 
ATOM     27  N   UNL     1      -5.204  -2.019   3.295  0.00  0.00    -0.306 N 
ATOM     28  H   UNL     1      -4.692  -1.916   4.112  0.00  0.00    +0.170 HD
ATOM     29  C   UNL     1      -6.458  -2.501   3.206  0.00  0.00    +0.325 A 
ATOM     30  O   UNL     1      -7.131  -2.880   4.146  0.00  0.00    -0.247 OA
ATOM     31  N   UNL     1      -6.854  -2.501   1.919  0.00  0.00    -0.306 N 
ATOM     32  H   UNL     1      -7.716  -2.800   1.591  0.00  0.00    +0.170 HD
ENDBRANCH  19  21
ENDBRANCH   2  17
TORSDOF 4
