REMARK  Name = ZINC09302085
REMARK  6 active torsions:
REMARK  status: ('A' for Active; 'I' for Inactive)
REMARK    1  A    between atoms: C_1  and  N_48
REMARK    2  A    between atoms: C_9  and  O_28
REMARK    3  A    between atoms: C_11  and  C_14
REMARK    4  A    between atoms: C_18  and  O_20
REMARK    5  A    between atoms: O_20  and  C_21
REMARK    6  A    between atoms: C_21  and  C_23
REMARK                            x       y       z     vdW  Elec       q    Type
REMARK                         _______ _______ _______ _____ _____    ______ ____
ROOT
ATOM      1  C   UNL     1       0.041  -6.545   0.349  0.00  0.00    -0.096 C 
ATOM      2  C   UNL     1       1.678  -4.767   0.196  0.00  0.00    -0.074 C 
ATOM      3  C   UNL     1       1.989  -3.455  -0.529  0.00  0.00    +0.018 C 
ATOM      4  C   UNL     1       0.941  -2.426  -0.122  0.00  0.00    -0.027 A 
ATOM      5  C   UNL     1      -0.223  -2.832   0.441  0.00  0.00    -0.021 A 
ATOM      6  S   UNL     1      -1.125  -1.339   0.748  0.00  0.00    -0.080 S 
ATOM      7  C   UNL     1       0.011  -0.212   0.142  0.00  0.00    +0.080 A 
ATOM      8  C   UNL     1       1.090  -0.993  -0.292  0.00  0.00    +0.067 A 
ATOM      9  C   UNL     1       2.259  -0.279  -0.866  0.00  0.00    +0.220 C 
ATOM     10  N   UNL     1       2.296   1.019  -0.750  0.00  0.00    -0.223 NA
ATOM     11  C   UNL     1       1.324   1.816  -0.012  0.00  0.00    +0.224 C 
ATOM     12  N   UNL     1       0.005   1.158   0.038  0.00  0.00    -0.313 N 
ATOM     13  C   UNL     1      -0.627  -4.244   0.728  0.00  0.00    -0.036 C 
ATOM     14  H   UNL     1      -0.821   1.665  -0.004  0.00  0.00    +0.149 HD
ATOM     15  N   UNL     1       0.268  -5.138  -0.045  0.00  0.00    +0.381 N 
ATOM     16  H   UNL     1       0.062  -5.035  -1.046  0.00  0.00    -0.082 HD
ENDROOT
BRANCH  11  17
ATOM     17  C   UNL     1       1.824   2.022   1.394  0.00  0.00    -0.002 A 
ATOM     18  C   UNL     1       0.924   2.218   2.426  0.00  0.00    +0.007 A 
ATOM     19  C   UNL     1       1.380   2.403   3.718  0.00  0.00    +0.004 A 
ATOM     20  C   UNL     1       2.736   2.403   3.980  0.00  0.00    +0.046 A 
ATOM     21  C   UNL     1       3.641   2.212   2.946  0.00  0.00    +0.132 A 
ATOM     22  C   UNL     1       3.182   2.022   1.651  0.00  0.00    +0.053 A 
BRANCH  21  23
ATOM     23  O   UNL     1       4.976   2.211   3.202  0.00  0.00    -0.422 OA
BRANCH  23  24
ATOM     24  C   UNL     1       5.710   3.244   2.739  0.00  0.00    +0.351 C 
ATOM     25  O   UNL     1       5.161   4.190   2.206  0.00  0.00    -0.244 OA
BRANCH  24  26
ATOM     26  C   UNL     1       7.167   3.227   2.878  0.00  0.00    +0.097 A 
ATOM     27  C   UNL     1       8.095   4.176   2.476  0.00  0.00    +0.022 A 
ATOM     28  C   UNL     1       9.416   3.906   2.732  0.00  0.00    +0.008 A 
ATOM     29  C   UNL     1       9.747   2.745   3.357  0.00  0.00    +0.046 A 
ATOM     30  S   UNL     1       8.212   1.984   3.617  0.00  0.00    -0.090 S 
ENDBRANCH  24  26
ENDBRANCH  23  24
ENDBRANCH  21  23
ENDBRANCH  11  17
BRANCH   9  31
ATOM     31  O   UNL     1       3.253  -0.954  -1.489  0.00  0.00    -0.492 OA
ATOM     32  H   UNL     1       3.963  -0.388  -1.823  0.00  0.00    +0.294 HD
ENDBRANCH   9  31
TORSDOF 5
