REMARK  Name = ZINC38650696
REMARK  14 active torsions:
REMARK  status: ('A' for Active; 'I' for Inactive)
REMARK    1  A    between atoms: C_1  and  C_2
REMARK    2  A    between atoms: C_2  and  C_3
REMARK    3  A    between atoms: C_3  and  O_4
REMARK    4  A    between atoms: O_4  and  C_5
REMARK    5  A    between atoms: C_8  and  C_11
REMARK    6  A    between atoms: C_16  and  O_25
REMARK    7  A    between atoms: C_20  and  N_24
REMARK    8  A    between atoms: C_21  and  C_22
REMARK    9  A    between atoms: O_25  and  C_26
REMARK   10  A    between atoms: C_26  and  C_28
REMARK   11  A    between atoms: C_28  and  O_29
REMARK   12  A    between atoms: O_29  and  C_30
REMARK   13  A    between atoms: C_34  and  C_37
REMARK   14  A    between atoms: C_35  and  C_36
REMARK                            x       y       z     vdW  Elec       q    Type
REMARK                         _______ _______ _______ _____ _____    ______ ____
ROOT
ATOM      1  C   UNL     1       3.199  -4.473  -5.631  0.00  0.00    +0.098 C 
ATOM      2  C   UNL     1       4.353  -5.306  -5.141  0.00  0.00    +0.008 A 
ATOM      3  C   UNL     1       5.562  -4.695  -4.858  0.00  0.00    +0.012 A 
ATOM      4  C   UNL     1       6.631  -5.444  -4.407  0.00  0.00    +0.047 A 
ATOM      5  C   UNL     1       6.496  -6.814  -4.236  0.00  0.00    +0.135 A 
ATOM      6  C   UNL     1       5.287  -7.429  -4.518  0.00  0.00    +0.093 A 
ATOM      7  C   UNL     1       4.212  -6.675  -4.971  0.00  0.00    +0.138 A 
ATOM      8  O   UNL     1       3.035  -7.291  -5.243  0.00  0.00    -0.441 OA
ATOM      9  C   UNL     1       2.128  -6.687  -6.028  0.00  0.00    +0.199 C 
ATOM     10  C   UNL     1       2.151  -5.355  -6.250  0.00  0.00    +0.098 C 
ENDROOT
BRANCH   1  14
ATOM     11  C   UNL     1       1.494  -2.341  -2.344  0.00  0.00    +0.121 A 
ATOM     12  C   UNL     1       2.021  -1.647  -3.423  0.00  0.00    +0.046 A 
ATOM     13  C   UNL     1       2.572  -2.339  -4.484  0.00  0.00    +0.008 A 
ATOM     14  C   UNL     1       2.598  -3.721  -4.472  0.00  0.00    -0.034 A 
ATOM     15  C   UNL     1       2.072  -4.415  -3.398  0.00  0.00    +0.008 A 
ATOM     16  C   UNL     1       1.525  -3.728  -2.331  0.00  0.00    +0.046 A 
BRANCH  11  17
ATOM     17  O   UNL     1       0.951  -1.663  -1.298  0.00  0.00    -0.492 OA
BRANCH  17  18
ATOM     18  C   UNL     1       0.953  -0.236  -1.379  0.00  0.00    +0.229 C 
BRANCH  18  20
ATOM     19  C   UNL     1       0.308   1.874  -0.208  0.00  0.00    +0.007 C 
ATOM     20  C   UNL     1       0.306   0.347  -0.121  0.00  0.00    +0.038 C 
ENDBRANCH  18  20
ENDBRANCH  17  18
ENDBRANCH  11  17
ENDBRANCH   1  14
BRANCH   9  21
ATOM     21  N   UNL     1       1.149  -7.446  -6.619  0.00  0.00    -0.328 N 
ATOM     22  H   UNL     1       1.119  -8.403  -6.468  0.00  0.00    +0.145 HD
ATOM     23  H   UNL     1       0.486  -7.024  -7.189  0.00  0.00    +0.145 HD
ENDBRANCH   9  21
BRANCH  10  24
ATOM     24  C   UNL     1       1.153  -4.772  -7.096  0.00  0.00    +0.101 C 
ATOM     25  N   UNL     1       0.362  -4.309  -7.766  0.00  0.00    -0.191 NA
ENDBRANCH  10  24
BRANCH   5  26
ATOM     26  O   UNL     1       7.547  -7.552  -3.793  0.00  0.00    -0.423 OA
BRANCH  26  27
ATOM     27  C   UNL     1       8.126  -8.405  -4.653  0.00  0.00    +0.350 C 
ATOM     28  O   UNL     1       7.779  -8.425  -5.810  0.00  0.00    -0.247 OA
BRANCH  27  29
ATOM     29  C   UNL     1       9.209  -9.338  -4.176  0.00  0.00    +0.349 C 
BRANCH  29  30
ATOM     30  O   UNL     1       9.663 -10.139  -5.268  0.00  0.00    -0.481 OA
BRANCH  30  31
ATOM     31  C   UNL     1      10.646 -11.041  -5.006  0.00  0.00    +0.124 A 
ATOM     32  C   UNL     1      11.159 -11.155  -3.722  0.00  0.00    +0.046 A 
ATOM     33  C   UNL     1      12.158 -12.072  -3.458  0.00  0.00    +0.004 A 
ATOM     34  C   UNL     1      12.646 -12.875  -4.471  0.00  0.00    +0.004 A 
ATOM     35  C   UNL     1      12.137 -12.763  -5.752  0.00  0.00    -0.044 A 
ATOM     36  C   UNL     1      11.134 -11.851  -6.020  0.00  0.00    -0.006 A 
ATOM     37  C   UNL     1      10.575 -11.734  -7.415  0.00  0.00    +0.048 C 
ATOM     38  C   UNL     1      12.672 -13.640  -6.854  0.00  0.00    +0.044 C 
ENDBRANCH  30  31
ENDBRANCH  29  30
ENDBRANCH  27  29
ENDBRANCH  26  27
ENDBRANCH   5  26
TORSDOF 11
