REMARK  Name = ZINC06077570
REMARK  13 active torsions:
REMARK  status: ('A' for Active; 'I' for Inactive)
REMARK    1  A    between atoms: C_1  and  C_2
REMARK    2  A    between atoms: C_2  and  C_3
REMARK    3  A    between atoms: C_3  and  C_4
REMARK    4  A    between atoms: C_3  and  C_5
REMARK    5  A    between atoms: C_3  and  N_6
REMARK    6  A    between atoms: C_7  and  C_11
REMARK    7  A    between atoms: C_11  and  C_13
REMARK    8  A    between atoms: C_11  and  N_75
REMARK    9  A    between atoms: C_17  and  O_25
REMARK   10  A    between atoms: O_25  and  C_26
REMARK   11  A    between atoms: N_29  and  C_32
REMARK   12  A    between atoms: C_36  and  C_39
REMARK   13  A    between atoms: C_37  and  C_38
REMARK                            x       y       z     vdW  Elec       q    Type
REMARK                         _______ _______ _______ _____ _____    ______ ____
ROOT
ATOM      1  C   UNL     1       2.230   0.942   0.122  0.00  0.00    +0.039 C 
ENDROOT
BRANCH   1   2
ATOM      2  C   UNL     1       1.073   1.872   0.383  0.00  0.00    +0.011 A 
ATOM      3  C   UNL     1      -0.150   1.363   0.674  0.00  0.00    +0.017 A 
ATOM      4  C   UNL     1      -1.255   2.292   0.917  0.00  0.00    +0.002 A 
ATOM      5  C   UNL     1      -2.539   1.825   1.216  0.00  0.00    +0.055 A 
ATOM      6  C   UNL     1      -3.558   2.729   1.440  0.00  0.00    +0.121 A 
ATOM      7  C   UNL     1      -3.312   4.098   1.368  0.00  0.00    +0.047 A 
ATOM      8  C   UNL     1      -2.049   4.571   1.085  0.00  0.00    +0.030 A 
ATOM      9  C   UNL     1      -1.009   3.677   0.852  0.00  0.00    +0.049 A 
ATOM     10  N   UNL     1       0.259   4.130   0.550  0.00  0.00    -0.322 N 
ATOM     11  H   UNL     1       0.432   5.114   0.500  0.00  0.00    +0.169 HD
ATOM     12  C   UNL     1       1.266   3.268   0.323  0.00  0.00    +0.251 A 
ATOM     13  O   UNL     1       2.373   3.705   0.059  0.00  0.00    -0.268 OA
BRANCH   6  14
ATOM     14  O   UNL     1      -4.808   2.281   1.730  0.00  0.00    -0.495 OA
ATOM     15  C   UNL     1      -5.817   3.269   1.950  0.00  0.00    +0.277 C 
ENDBRANCH   6  14
ENDBRANCH   1   2
BRANCH   1  21
ATOM     16  C   UNL     1       1.837   1.092  -2.263  0.00  0.00    -0.058 C 
ATOM     17  C   UNL     1       2.470   1.502  -3.595  0.00  0.00    +0.086 C 
ATOM     18  N   UNL     1       3.659   0.675  -3.845  0.00  0.00    -0.333 N 
ATOM     19  C   UNL     1       4.644   0.837  -2.767  0.00  0.00    +0.086 C 
ATOM     20  C   UNL     1       4.012   0.427  -1.435  0.00  0.00    -0.058 C 
ATOM     21  N   UNL     1       2.831   1.281  -1.186  0.00  0.00    +0.391 N 
ATOM     22  H   UNL     1       3.127   2.264  -1.173  0.00  0.00    -0.080 HD
BRANCH  18  23
ATOM     23  C   UNL     1       4.222   0.972  -5.088  0.00  0.00    +0.033 A 
ATOM     24  C   UNL     1       4.746   2.235  -5.332  0.00  0.00    +0.023 A 
ATOM     25  C   UNL     1       5.303   2.525  -6.561  0.00  0.00    +0.002 A 
ATOM     26  C   UNL     1       5.340   1.558  -7.550  0.00  0.00    +0.004 A 
ATOM     27  C   UNL     1       4.820   0.300  -7.311  0.00  0.00    -0.046 A 
ATOM     28  C   UNL     1       4.266   0.002  -6.082  0.00  0.00    -0.027 A 
ATOM     29  C   UNL     1       3.705  -1.372  -5.820  0.00  0.00    +0.046 C 
ATOM     30  C   UNL     1       4.862  -0.750  -8.392  0.00  0.00    +0.044 C 
ENDBRANCH  18  23
ENDBRANCH   1  21
BRANCH   1  32
ATOM     31  N   UNL     1       3.590   0.230   2.159  0.00  0.00    -0.225 N 
ATOM     32  C   UNL     1       3.268   1.118   1.199  0.00  0.00    +0.143 A 
ATOM     33  N   UNL     1       4.039   2.163   1.381  0.00  0.00    -0.115 NA
ATOM     34  N   UNL     1       4.788   1.932   2.403  0.00  0.00    -0.023 NA
ATOM     35  N   UNL     1       4.521   0.764   2.874  0.00  0.00    -0.043 NA
BRANCH  31  36
ATOM     36  C   UNL     1       2.993  -1.094   2.353  0.00  0.00    +0.061 C 
ATOM     37  C   UNL     1       1.481  -0.950   2.536  0.00  0.00    +0.036 C 
ATOM     38  C   UNL     1       3.278  -1.967   1.130  0.00  0.00    +0.036 C 
BRANCH  36  40
ATOM     39  C   UNL     1       2.975  -3.130   3.801  0.00  0.00    +0.006 C 
ATOM     40  C   UNL     1       3.598  -1.747   3.598  0.00  0.00    +0.026 C 
ENDBRANCH  36  40
ENDBRANCH  31  36
ENDBRANCH   1  32
TORSDOF 7
