REMARK  Name = ZINC15070567
REMARK  9 active torsions:
REMARK  status: ('A' for Active; 'I' for Inactive)
REMARK    1  A    between atoms: C_1  and  C_2
REMARK    2  A    between atoms: C_2  and  C_3
REMARK    3  A    between atoms: C_3  and  C_4
REMARK    4  A    between atoms: C_4  and  C_19
REMARK    5  A    between atoms: N_7  and  C_11
REMARK    6  A    between atoms: C_11  and  C_12
REMARK    7  A    between atoms: C_12  and  C_13
REMARK    8  A    between atoms: C_18  and  N_69
REMARK    9  A    between atoms: C_25  and  C_27
REMARK                            x       y       z     vdW  Elec       q    Type
REMARK                         _______ _______ _______ _____ _____    ______ ____
ROOT
ATOM      1  C   UNL     1       4.066   3.256  -2.614  0.00  0.00    +0.115 C 
ATOM      2  C   UNL     1       5.458   2.657  -2.589  0.00  0.00    +0.247 C 
ATOM      3  O   UNL     1       6.392   3.004  -1.898  0.00  0.00    -0.273 OA
ATOM      4  N   UNL     1       5.442   1.660  -3.496  0.00  0.00    -0.224 N 
ATOM      5  C   UNL     1       4.246   1.547  -4.084  0.00  0.00    +0.309 C 
ATOM      6  O   UNL     1       3.987   0.719  -4.936  0.00  0.00    -0.252 OA
ATOM      7  N   UNL     1       3.361   2.451  -3.627  0.00  0.00    -0.285 N 
ATOM      8  H   UNL     1       2.438   2.553  -3.909  0.00  0.00    +0.151 HD
ENDROOT
BRANCH   1   9
ATOM      9  C   UNL     1       3.393   3.111  -1.248  0.00  0.00    +0.024 C 
ATOM     10  C   UNL     1       3.404   1.639  -0.828  0.00  0.00    +0.025 C 
ATOM     11  C   UNL     1       2.760   1.503   0.556  0.00  0.00    +0.108 C 
ATOM     12  N   UNL     1       1.423   2.110   0.517  0.00  0.00    -0.298 N 
ATOM     13  C   UNL     1       1.287   3.491   0.037  0.00  0.00    +0.108 C 
ATOM     14  C   UNL     1       1.948   3.608  -1.336  0.00  0.00    +0.025 C 
ATOM     15  C   UNL     1       0.340   1.410   0.910  0.00  0.00    +0.242 C 
ATOM     16  O   UNL     1       0.440   0.225   1.161  0.00  0.00    -0.270 OA
BRANCH  15  17
ATOM     17  C   UNL     1      -0.965   2.080   1.030  0.00  0.00    +0.011 C 
ATOM     18  C   UNL     1      -2.112   1.458   1.266  0.00  0.00    -0.018 C 
ATOM     19  C   UNL     1      -3.254   2.446   1.330  0.00  0.00    +0.028 C 
ATOM     20  C   UNL     1      -2.577   3.824   1.508  0.00  0.00    +0.009 C 
ATOM     21  C   UNL     1      -1.181   3.569   0.894  0.00  0.00    +0.040 C 
ENDBRANCH  15  17
ENDBRANCH   1   9
BRANCH   1  22
ATOM     22  C   UNL     1       4.116   4.726  -3.034  0.00  0.00    +0.035 C 
BRANCH  22  24
ATOM     23  C   UNL     1       4.728   6.302  -4.874  0.00  0.00    +0.004 C 
ATOM     24  C   UNL     1       4.678   4.832  -4.454  0.00  0.00    -0.001 C 
ENDBRANCH  22  24
ENDBRANCH   1  22
BRANCH   4  25
ATOM     25  C   UNL     1       6.593   0.806  -3.800  0.00  0.00    +0.116 C 
BRANCH  25  26
ATOM     26  C   UNL     1       7.409   1.435  -4.931  0.00  0.00    +0.004 C 
BRANCH  26  27
ATOM     27  C   UNL     1       8.539   0.484  -5.335  0.00  0.00    -0.068 C 
ATOM     28  C   UNL     1       9.544   0.341  -4.173  0.00  0.00    -0.017 C 
ATOM     29  C   UNL     1      10.913   0.289  -4.900  0.00  0.00    -0.020 C 
ATOM     30  C   UNL     1      10.679   1.268  -6.077  0.00  0.00    -0.079 C 
ATOM     31  C   UNL     1       8.656   2.286  -6.954  0.00  0.00    -0.096 C 
ATOM     32  N   UNL     1       9.281   1.022  -6.486  0.00  0.00    +0.380 N 
ATOM     33  H   UNL     1       9.266   0.337  -7.250  0.00  0.00    -0.082 HD
ENDBRANCH  26  27
ENDBRANCH  25  26
ENDBRANCH   4  25
TORSDOF 7
