REMARK  Name = ZINC13023129
REMARK  8 active torsions:
REMARK  status: ('A' for Active; 'I' for Inactive)
REMARK    1  A    between atoms: C_1  and  C_2
REMARK    2  A    between atoms: C_5  and  C_39
REMARK    3  A    between atoms: C_9  and  C_14
REMARK    4  A    between atoms: C_14  and  C_16
REMARK    5  A    between atoms: C_14  and  N_66
REMARK    6  A    between atoms: N_20  and  C_21
REMARK    7  A    between atoms: C_21  and  C_22
REMARK    8  A    between atoms: N_29  and  C_32
REMARK                            x       y       z     vdW  Elec       q    Type
REMARK                         _______ _______ _______ _____ _____    ______ ____
ROOT
ATOM      1  C   UNL     1       1.108   3.603   0.010  0.00  0.00    +0.039 C 
ENDROOT
BRANCH   1  10
ATOM      2  C   UNL     1       5.195   0.403   0.424  0.00  0.00    +0.044 C 
ATOM      3  C   UNL     1       3.957  -0.455   0.393  0.00  0.00    -0.041 A 
ATOM      4  C   UNL     1       4.062  -1.815   0.468  0.00  0.00    +0.004 A 
ATOM      5  C   UNL     1       2.927  -2.614   0.440  0.00  0.00    +0.005 A 
ATOM      6  C   UNL     1       1.673  -2.051   0.335  0.00  0.00    -0.026 A 
ATOM      7  C   UNL     1       1.541  -0.669   0.256  0.00  0.00    +0.052 A 
ATOM      8  C   UNL     1       2.695   0.138   0.285  0.00  0.00    +0.002 A 
ATOM      9  C   UNL     1       2.545   1.592   0.202  0.00  0.00    +0.018 A 
ATOM     10  C   UNL     1       1.296   2.110   0.099  0.00  0.00    +0.011 A 
ATOM     11  C   UNL     1       0.173   1.257   0.074  0.00  0.00    +0.251 A 
ATOM     12  O   UNL     1      -0.941   1.743  -0.025  0.00  0.00    -0.268 OA
ATOM     13  N   UNL     1       0.299  -0.080   0.150  0.00  0.00    -0.322 N 
ATOM     14  H   UNL     1      -0.494  -0.637   0.130  0.00  0.00    +0.169 HD
ATOM     15  C   UNL     1       0.450  -2.931   0.304  0.00  0.00    +0.046 C 
ENDBRANCH   1  10
BRANCH   1  21
ATOM     16  C   UNL     1      -0.048   5.491   0.991  0.00  0.00    -0.058 C 
ATOM     17  C   UNL     1      -1.051   5.899   2.073  0.00  0.00    +0.086 C 
ATOM     18  N   UNL     1      -0.513   5.544   3.394  0.00  0.00    -0.333 N 
ATOM     19  C   UNL     1      -0.259   4.100   3.485  0.00  0.00    +0.086 C 
ATOM     20  C   UNL     1       0.744   3.692   2.403  0.00  0.00    -0.058 C 
ATOM     21  N   UNL     1       0.182   4.034   1.079  0.00  0.00    +0.391 N 
ATOM     22  H   UNL     1      -0.714   3.546   0.962  0.00  0.00    -0.080 HD
BRANCH  18  23
ATOM     23  C   UNL     1      -1.371   5.967   4.414  0.00  0.00    +0.030 A 
ATOM     24  C   UNL     1      -1.862   5.050   5.334  0.00  0.00    +0.026 A 
ATOM     25  C   UNL     1      -2.706   5.470   6.344  0.00  0.00    +0.040 A 
ATOM     26  C   UNL     1      -3.070   6.803   6.433  0.00  0.00    +0.124 A 
ATOM     27  C   UNL     1      -2.586   7.718   5.513  0.00  0.00    +0.040 A 
ATOM     28  C   UNL     1      -1.738   7.303   4.505  0.00  0.00    +0.026 A 
ATOM     29  F   UNL     1      -3.899   7.212   7.418  0.00  0.00    -0.205 F 
ENDBRANCH  18  23
ENDBRANCH   1  21
BRANCH   1  30
ATOM     30  C   UNL     1       0.510   3.955  -1.327  0.00  0.00    +0.143 A 
ATOM     31  N   UNL     1      -0.734   3.775  -1.700  0.00  0.00    -0.115 NA
ATOM     32  N   UNL     1      -0.853   4.205  -2.909  0.00  0.00    -0.023 NA
ATOM     33  N   UNL     1       0.284   4.647  -3.319  0.00  0.00    -0.044 NA
ATOM     34  N   UNL     1       1.150   4.511  -2.373  0.00  0.00    -0.223 N 
BRANCH  34  35
ATOM     35  C   UNL     1       2.564   4.889  -2.426  0.00  0.00    +0.221 C 
BRANCH  35  36
ATOM     36  C   UNL     1       3.377   3.725  -2.930  0.00  0.00    +0.126 A 
ATOM     37  C   UNL     1       3.665   3.466  -4.218  0.00  0.00    +0.046 A 
ATOM     38  C   UNL     1       4.446   2.288  -4.234  0.00  0.00    +0.041 A 
ATOM     39  C   UNL     1       4.583   1.893  -2.956  0.00  0.00    +0.195 A 
ATOM     40  O   UNL     1       3.933   2.767  -2.170  0.00  0.00    -0.466 OA
ENDBRANCH  35  36
ENDBRANCH  34  35
ENDBRANCH   1  30
TORSDOF 6
