REMARK  Name = ZINC39855953
REMARK  6 active torsions:
REMARK  status: ('A' for Active; 'I' for Inactive)
REMARK    1  A    between atoms: C_1  and  C_2
REMARK    2  A    between atoms: C_6  and  C_7
REMARK    3  A    between atoms: N_9  and  C_10
REMARK    4  A    between atoms: C_19  and  C_27
REMARK    5  A    between atoms: C_19  and  C_28
REMARK    6  A    between atoms: N_22  and  N_23
REMARK                            x       y       z     vdW  Elec       q    Type
REMARK                         _______ _______ _______ _____ _____    ______ ____
ROOT
ATOM      1  C   UNL     1      -0.014   1.502   0.010  0.00  0.00    +0.048 C 
ATOM      2  C   UNL     1      -0.003  -0.005   0.002  0.00  0.00    +0.009 A 
ATOM      3  C   UNL     1      -0.007  -0.839  -1.122  0.00  0.00    +0.043 A 
ATOM      4  C   UNL     1       0.004  -2.138  -0.672  0.00  0.00    +0.116 A 
ATOM      5  O   UNL     1       0.018  -2.112   0.658  0.00  0.00    -0.454 OA
ATOM      6  C   UNL     1       0.018  -0.831   1.091  0.00  0.00    +0.193 A 
ATOM      7  C   UNL     1      -0.001  -3.327  -1.599  0.00  0.00    +0.081 C 
ATOM      8  C   UNL     1      -0.528  -2.900  -2.972  0.00  0.00    -0.023 C 
ATOM      9  C   UNL     1       0.249  -1.688  -3.496  0.00  0.00    +0.064 C 
ATOM     10  C   UNL     1      -0.018  -0.513  -2.566  0.00  0.00    +0.073 C 
ATOM     11  N   UNL     1      -0.240   0.687  -3.007  0.00  0.00    -0.175 NA
ATOM     12  C   UNL     1      -2.010  -2.536  -2.852  0.00  0.00    +0.011 C 
ATOM     13  C   UNL     1      -0.373  -4.062  -3.955  0.00  0.00    +0.011 C 
ENDROOT
BRANCH  11  14
ATOM     14  N   UNL     1      -0.238   0.938  -4.385  0.00  0.00    -0.248 N 
ATOM     15  C   UNL     1      -0.472   2.204  -4.850  0.00  0.00    +0.187 C 
ATOM     16  N   UNL     1      -0.471   2.443  -6.162  0.00  0.00    -0.370 N 
ATOM     17  N   UNL     1      -0.700   3.198  -3.992  0.00  0.00    -0.370 N 
ATOM     18  H   UNL     1      -0.072   0.215  -5.010  0.00  0.00    +0.192 HD
ATOM     19  H   UNL     1      -0.305   1.720  -6.786  0.00  0.00    +0.159 HD
ATOM     20  H   UNL     1      -0.701   3.024  -3.038  0.00  0.00    +0.159 HD
ATOM     21  H   UNL     1      -0.866   4.095  -4.322  0.00  0.00    +0.159 HD
ATOM     22  H   UNL     1      -0.636   3.340  -6.491  0.00  0.00    +0.159 HD
ENDBRANCH  11  14
BRANCH   6  23
ATOM     23  C   UNL     1       0.034  -0.400   2.493  0.00  0.00    +0.284 C 
ATOM     24  O   UNL     1       0.029   0.786   2.765  0.00  0.00    -0.266 OA
ATOM     25  N   UNL     1       0.054  -1.318   3.480  0.00  0.00    -0.279 N 
ATOM     26  H   UNL     1      -0.010  -2.262   3.266  0.00  0.00    +0.155 HD
BRANCH  25  27
ATOM     27  C   UNL     1       0.167  -0.909   4.812  0.00  0.00    +0.037 A 
ATOM     28  C   UNL     1       0.888  -1.678   5.717  0.00  0.00    +0.043 A 
ATOM     29  C   UNL     1       0.998  -1.271   7.034  0.00  0.00    +0.044 A 
ATOM     30  C   UNL     1       0.390  -0.100   7.451  0.00  0.00    +0.040 A 
ATOM     31  C   UNL     1      -0.329   0.668   6.551  0.00  0.00    +0.044 A 
ATOM     32  C   UNL     1      -0.437   0.269   5.232  0.00  0.00    +0.043 A 
ATOM     33 CL   UNL     1      -1.089   2.136   7.079  0.00  0.00    -0.083 Cl
ATOM     34 CL   UNL     1       1.899  -2.232   8.165  0.00  0.00    -0.083 Cl
ENDBRANCH  25  27
ENDBRANCH   6  23
TORSDOF 3
