REMARK  Name = ZINC41601585
REMARK  7 active torsions:
REMARK  status: ('A' for Active; 'I' for Inactive)
REMARK    1  A    between atoms: C_1  and  C_2
REMARK    2  A    between atoms: C_2  and  C_26
REMARK    3  A    between atoms: C_4  and  N_10
REMARK    4  A    between atoms: C_6  and  C_8
REMARK    5  A    between atoms: C_6  and  C_9
REMARK    6  A    between atoms: C_15  and  C_18
REMARK    7  A    between atoms: C_18  and  C_19
REMARK                            x       y       z     vdW  Elec       q    Type
REMARK                         _______ _______ _______ _____ _____    ______ ____
ROOT
ATOM      1  N   UNL     1       1.633  -2.333  -2.511  0.00  0.00    -0.309 N 
ATOM      2  C   UNL     1       1.546  -3.637  -2.966  0.00  0.00    +0.238 A 
ATOM      3  N   UNL     1       2.159  -3.982  -4.091  0.00  0.00    -0.173 NA
ATOM      4  C   UNL     1       2.072  -5.235  -4.523  0.00  0.00    +0.297 A 
ATOM      5  O   UNL     1       2.688  -5.616  -5.668  0.00  0.00    -0.264 OA
ATOM      6  C   UNL     1       1.333  -6.152  -3.773  0.00  0.00    +0.134 A 
ATOM      7  N   UNL     1       0.745  -5.750  -2.663  0.00  0.00    -0.145 NA
ATOM      8  N   UNL     1       0.854  -4.529  -2.269  0.00  0.00    -0.113 NA
ATOM      9  H   UNL     1       2.137  -1.676  -3.016  0.00  0.00    +0.149 HD
ENDROOT
BRANCH   1  13
ATOM     10  C   UNL     1      -0.019   1.542   0.011  0.00  0.00    -0.010 C 
ATOM     11  C   UNL     1       0.002  -0.004   0.002  0.00  0.00    -0.072 C 
ATOM     12  C   UNL     1       0.670  -0.443  -1.297  0.00  0.00    +0.009 C 
ATOM     13  C   UNL     1       0.963  -1.944  -1.265  0.00  0.00    +0.071 C 
ATOM     14  C   UNL     1       1.892  -2.223  -0.084  0.00  0.00    +0.009 C 
ATOM     15  C   UNL     1       1.233  -1.798   1.224  0.00  0.00    -0.072 C 
ATOM     16  N   UNL     1       0.711  -0.443   1.191  0.00  0.00    +0.386 N 
ATOM     17  C   UNL     1       2.314  -1.859   2.328  0.00  0.00    -0.010 C 
ATOM     18  C   UNL     1       0.143  -2.805   1.606  0.00  0.00    -0.010 C 
ATOM     19  C   UNL     1      -1.457  -0.473   0.018  0.00  0.00    -0.010 C 
ATOM     20  H   UNL     1       1.489   0.204   1.356  0.00  0.00    -0.084 HD
ATOM     21  H   UNL     1       0.093  -0.317   1.998  0.00  0.00    -0.084 HD
ENDBRANCH   1  13
BRANCH   6  22
ATOM     22  C   UNL     1       1.208  -7.584  -4.227  0.00  0.00    +0.098 C 
BRANCH  22  23
ATOM     23  C   UNL     1       2.332  -8.397  -3.640  0.00  0.00    -0.041 A 
ATOM     24  C   UNL     1       3.526  -8.521  -4.326  0.00  0.00    +0.007 A 
ATOM     25  C   UNL     1       4.559  -9.266  -3.788  0.00  0.00    +0.038 A 
ATOM     26  C   UNL     1       4.396  -9.889  -2.562  0.00  0.00    +0.123 A 
ATOM     27  C   UNL     1       3.200  -9.764  -1.876  0.00  0.00    +0.038 A 
ATOM     28  C   UNL     1       2.171  -9.014  -2.414  0.00  0.00    +0.007 A 
ATOM     29  F   UNL     1       5.404 -10.618  -2.036  0.00  0.00    -0.205 F 
ENDBRANCH  22  23
ENDBRANCH   6  22
TORSDOF 3
