REMARK  Name = ZINC22463033
REMARK  13 active torsions:
REMARK  status: ('A' for Active; 'I' for Inactive)
REMARK    1  A    between atoms: C_1  and  S_2
REMARK    2  A    between atoms: S_2  and  C_3
REMARK    3  A    between atoms: C_3  and  C_4
REMARK    4  A    between atoms: C_4  and  C_5
REMARK    5  A    between atoms: C_5  and  C_7
REMARK    6  A    between atoms: C_5  and  N_24
REMARK    7  A    between atoms: N_9  and  C_10
REMARK    8  A    between atoms: C_10  and  C_11
REMARK    9  A    between atoms: C_11  and  C_13
REMARK   10  A    between atoms: C_11  and  N_19
REMARK   11  A    between atoms: N_24  and  S_25
REMARK   12  A    between atoms: S_25  and  C_28
REMARK   13  A    between atoms: C_29  and  C_30
REMARK                            x       y       z     vdW  Elec       q    Type
REMARK                         _______ _______ _______ _____ _____    ______ ____
ROOT
ATOM      1  C   UNL     1       3.512   3.839  -0.497  0.00  0.00    +0.163 C 
ENDROOT
BRANCH   1   2
ATOM      2  C   UNL     1       2.077   3.551  -0.140  0.00  0.00    +0.232 C 
ATOM      3  O   UNL     1       1.340   4.457   0.188  0.00  0.00    -0.274 OA
ATOM      4  N   UNL     1       1.612   2.287  -0.184  0.00  0.00    -0.315 N 
ATOM      5  H   UNL     1       2.280   1.465  -0.481  0.00  0.00    +0.149 HD
BRANCH   4   6
ATOM      6  C   UNL     1       0.216   2.007   0.164  0.00  0.00    +0.093 C 
BRANCH   6   7
ATOM      7  C   UNL     1      -0.017   0.495   0.159  0.00  0.00    -0.020 C 
BRANCH   7   8
ATOM      8  C   UNL     1       0.799  -0.142   1.254  0.00  0.00    -0.059 A 
ATOM      9  C   UNL     1       0.351  -0.106   2.561  0.00  0.00    +0.002 A 
ATOM     10  C   UNL     1       1.097  -0.695   3.565  0.00  0.00    +0.000 A 
ATOM     11  C   UNL     1       2.297  -1.311   3.263  0.00  0.00    +0.000 A 
ATOM     12  C   UNL     1       2.748  -1.343   1.956  0.00  0.00    +0.000 A 
ATOM     13  C   UNL     1       2.000  -0.758   0.952  0.00  0.00    +0.002 A 
ENDBRANCH   7   8
BRANCH   7  14
ATOM     14  N   UNL     1      -1.442   0.219   0.387  0.00  0.00    +0.385 N 
ATOM     15  C   UNL     1      -2.280   0.848  -0.665  0.00  0.00    -0.078 C 
ATOM     16  C   UNL     1      -3.606   0.049  -0.587  0.00  0.00    -0.020 C 
ATOM     17  C   UNL     1      -3.125  -1.391  -0.298  0.00  0.00    -0.020 C 
ATOM     18  C   UNL     1      -1.719  -1.232   0.310  0.00  0.00    -0.078 C 
ATOM     19  H   UNL     1      -1.669   0.620   1.385  0.00  0.00    -0.081 HD
ENDBRANCH   7  14
ENDBRANCH   6   7
ENDBRANCH   4   6
ENDBRANCH   1   2
BRANCH   1  20
ATOM     20  N   UNL     1       3.768   5.276  -0.371  0.00  0.00    -0.179 NA
ATOM     21  H   UNL     1       3.155   5.886   0.309  0.00  0.00    +0.149 HD
BRANCH  20  22
ATOM     22  S   UNL     1       4.802   6.028  -1.423  0.00  0.00    +0.052 S 
ATOM     23  O   UNL     1       4.783   7.410  -1.094  0.00  0.00    -0.154 OA
ATOM     24  O   UNL     1       6.000   5.264  -1.431  0.00  0.00    -0.154 OA
BRANCH  22  25
ATOM     25  C   UNL     1       4.103   5.885  -3.034  0.00  0.00    +0.153 C 
ATOM     26  C   UNL     1       3.708   6.970  -3.684  0.00  0.00    +0.028 C 
BRANCH  26  27
ATOM     27  C   UNL     1       3.121   6.850  -5.035  0.00  0.00    -0.024 A 
ATOM     28  C   UNL     1       2.986   5.596  -5.632  0.00  0.00    +0.008 A 
ATOM     29  C   UNL     1       2.432   5.489  -6.891  0.00  0.00    +0.001 A 
ATOM     30  C   UNL     1       2.021   6.625  -7.567  0.00  0.00    +0.000 A 
ATOM     31  C   UNL     1       2.157   7.872  -6.984  0.00  0.00    +0.001 A 
ATOM     32  C   UNL     1       2.704   7.991  -5.723  0.00  0.00    +0.008 A 
ENDBRANCH  26  27
ENDBRANCH  22  25
ENDBRANCH  20  22
ENDBRANCH   1  20
BRANCH   1  33
ATOM     33  C   UNL     1       4.437   3.072   0.450  0.00  0.00    +0.040 C 
BRANCH  33  34
ATOM     34  C   UNL     1       4.171   3.512   1.891  0.00  0.00    +0.071 C 
BRANCH  34  36
ATOM     35  C   UNL     1       4.920   3.331   4.644  0.00  0.00    +0.084 C 
ATOM     36  S   UNL     1       5.365   2.713   2.998  0.00  0.00    -0.164 S 
ENDBRANCH  34  36
ENDBRANCH  33  34
ENDBRANCH   1  33
TORSDOF 12
