REMARK  Name = ZINC38701151
REMARK  13 active torsions:
REMARK  status: ('A' for Active; 'I' for Inactive)
REMARK    1  A    between atoms: C_1  and  C_2
REMARK    2  A    between atoms: C_2  and  C_3
REMARK    3  A    between atoms: C_3  and  C_4
REMARK    4  A    between atoms: C_4  and  C_5
REMARK    5  A    between atoms: C_5  and  O_6
REMARK    6  A    between atoms: O_6  and  C_7
REMARK    7  A    between atoms: C_11  and  C_13
REMARK    8  A    between atoms: C_18  and  O_27
REMARK    9  A    between atoms: C_22  and  N_26
REMARK   10  A    between atoms: C_23  and  C_24
REMARK   11  A    between atoms: O_27  and  C_28
REMARK   12  A    between atoms: C_28  and  C_30
REMARK   13  A    between atoms: C_31  and  C_39
REMARK                            x       y       z     vdW  Elec       q    Type
REMARK                         _______ _______ _______ _____ _____    ______ ____
ROOT
ATOM      1  C   UNL     1       2.961  -8.136   4.690  0.00  0.00    +0.098 C 
ATOM      2  C   UNL     1       2.259  -8.610   5.936  0.00  0.00    +0.008 A 
ATOM      3  C   UNL     1       0.880  -8.531   6.012  0.00  0.00    +0.012 A 
ATOM      4  C   UNL     1       0.220  -8.961   7.146  0.00  0.00    +0.047 A 
ATOM      5  C   UNL     1       0.941  -9.475   8.215  0.00  0.00    +0.136 A 
ATOM      6  C   UNL     1       2.322  -9.554   8.142  0.00  0.00    +0.093 A 
ATOM      7  C   UNL     1       2.984  -9.121   7.001  0.00  0.00    +0.138 A 
ATOM      8  O   UNL     1       4.336  -9.206   6.945  0.00  0.00    -0.441 OA
ATOM      9  C   UNL     1       4.961  -9.169   5.757  0.00  0.00    +0.199 C 
ATOM     10  C   UNL     1       4.363  -8.674   4.651  0.00  0.00    +0.098 C 
ENDROOT
BRANCH   1  15
ATOM     11  C   UNL     1       2.439  -4.540   3.653  0.00  0.00    +0.121 A 
ATOM     12  C   UNL     1       3.084  -3.863   4.677  0.00  0.00    +0.045 A 
ATOM     13  C   UNL     1       3.686  -4.570   5.699  0.00  0.00    +0.004 A 
ATOM     14  C   UNL     1       3.645  -5.952   5.703  0.00  0.00    +0.005 A 
ATOM     15  C   UNL     1       3.003  -6.630   4.684  0.00  0.00    -0.031 A 
ATOM     16  C   UNL     1       2.394  -5.927   3.662  0.00  0.00    +0.050 A 
BRANCH  11  17
ATOM     17  O   UNL     1       1.845  -3.847   2.646  0.00  0.00    -0.492 OA
BRANCH  17  18
ATOM     18  C   UNL     1       1.931  -2.421   2.702  0.00  0.00    +0.229 C 
BRANCH  18  19
ATOM     19  C   UNL     1       1.211  -1.819   1.493  0.00  0.00    +0.041 C 
BRANCH  19  20
ATOM     20  C   UNL     1       1.302  -0.293   1.553  0.00  0.00    +0.003 C 
BRANCH  20  22
ATOM     21  C   UNL     1       0.673   1.835   0.405  0.00  0.00    +0.004 C 
ATOM     22  C   UNL     1       0.582   0.308   0.345  0.00  0.00    -0.003 C 
ENDBRANCH  20  22
ENDBRANCH  19  20
ENDBRANCH  18  19
ENDBRANCH  17  18
ENDBRANCH  11  17
ENDBRANCH   1  15
BRANCH   9  23
ATOM     23  N   UNL     1       6.245  -9.648   5.664  0.00  0.00    -0.328 N 
ATOM     24  H   UNL     1       6.687 -10.005   6.450  0.00  0.00    +0.145 HD
ATOM     25  H   UNL     1       6.710  -9.628   4.813  0.00  0.00    +0.145 HD
ENDBRANCH   9  23
BRANCH  10  26
ATOM     26  C   UNL     1       5.085  -8.662   3.415  0.00  0.00    +0.101 C 
ATOM     27  N   UNL     1       5.658  -8.652   2.434  0.00  0.00    -0.191 NA
ENDBRANCH  10  26
BRANCH   5  28
ATOM     28  O   UNL     1       0.292  -9.899   9.332  0.00  0.00    -0.420 OA
BRANCH  28  29
ATOM     29  C   UNL     1       0.441  -9.178  10.462  0.00  0.00    +0.380 C 
ATOM     30  O   UNL     1       1.052  -8.127  10.437  0.00  0.00    -0.241 OA
BRANCH  29  31
ATOM     31  C   UNL     1      -0.135  -9.662  11.723  0.00  0.00    +0.216 A 
ATOM     32  C   UNL     1      -0.053  -9.020  12.918  0.00  0.00    +0.010 A 
ATOM     33  C   UNL     1      -0.762  -9.863  13.880  0.00  0.00    +0.024 A 
ATOM     34  C   UNL     1      -1.031  -9.766  15.247  0.00  0.00    +0.012 A 
ATOM     35  C   UNL     1      -1.740 -10.754  15.870  0.00  0.00    +0.001 A 
ATOM     36  C   UNL     1      -2.196 -11.852  15.152  0.00  0.00    +0.004 A 
ATOM     37  C   UNL     1      -1.941 -11.967  13.803  0.00  0.00    +0.047 A 
ATOM     38  C   UNL     1      -1.220 -10.975  13.148  0.00  0.00    +0.136 A 
ATOM     39  O   UNL     1      -0.830 -10.810  11.869  0.00  0.00    -0.448 OA
ATOM     40  C   UNL     1       0.630  -7.706  13.196  0.00  0.00    +0.048 C 
ENDBRANCH  29  31
ENDBRANCH  28  29
ENDBRANCH   5  28
TORSDOF 11
