REMARK  Name = ZINC44784901
REMARK  8 active torsions:
REMARK  status: ('A' for Active; 'I' for Inactive)
REMARK    1  A    between atoms: C_1  and  C_2
REMARK    2  A    between atoms: C_2  and  C_3
REMARK    3  A    between atoms: C_2  and  C_4
REMARK    4  A    between atoms: C_4  and  N_5
REMARK    5  A    between atoms: N_5  and  C_6
REMARK    6  A    between atoms: C_7  and  C_9
REMARK    7  A    between atoms: C_9  and  C_16
REMARK    8  A    between atoms: N_17  and  O_18
REMARK                            x       y       z     vdW  Elec       q    Type
REMARK                         _______ _______ _______ _____ _____    ______ ____
ROOT
ATOM      1  C   UNL     1      -1.355  -4.098  -1.441  0.00  0.00    +0.105 C 
ATOM      2  C   UNL     1      -2.616  -4.716  -0.804  0.00  0.00    +0.024 C 
ATOM      3  C   UNL     1      -3.811  -3.901  -1.220  0.00  0.00    +0.001 C 
ATOM      4  C   UNL     1      -4.509  -4.473  -2.468  0.00  0.00    +0.000 C 
ATOM      5  C   UNL     1      -3.514  -4.950  -3.543  0.00  0.00    +0.000 C 
ATOM      6  C   UNL     1      -2.359  -4.002  -3.719  0.00  0.00    +0.001 C 
ATOM      7  C   UNL     1      -1.191  -4.484  -2.834  0.00  0.00    +0.024 C 
ENDROOT
BRANCH   1   8
ATOM      8  C   UNL     1      -0.146  -4.550  -0.663  0.00  0.00    +0.147 C 
ATOM      9  N   UNL     1       0.753  -5.282  -1.234  0.00  0.00    -0.076 NA
ATOM     10  N   UNL     1       0.001  -4.183   0.656  0.00  0.00    -0.343 N 
ATOM     11  H   UNL     1      -0.707  -3.696   1.106  0.00  0.00    +0.144 HD
ATOM     12  H   UNL     1       0.813  -4.412   1.135  0.00  0.00    +0.144 HD
BRANCH   9  13
ATOM     13  O   UNL     1       1.889  -5.707  -0.504  0.00  0.00    -0.408 OA
ATOM     14  H   UNL     1       2.505  -6.250  -1.015  0.00  0.00    +0.328 HD
ENDBRANCH   9  13
ENDBRANCH   1   8
BRANCH   1  17
ATOM     15  N   UNL     1      -0.439  -1.829  -1.804  0.00  0.00    -0.303 N 
ATOM     16  C   UNL     1       0.843  -2.443  -2.159  0.00  0.00    +0.132 C 
ATOM     17  C   UNL     1      -1.454  -2.596  -1.359  0.00  0.00    +0.229 C 
ATOM     18  O   UNL     1      -2.446  -2.078  -0.892  0.00  0.00    -0.275 OA
BRANCH  15  19
ATOM     19  C   UNL     1      -0.618  -0.381  -1.934  0.00  0.00    +0.110 C 
BRANCH  19  21
ATOM     20  C   UNL     1      -1.445   1.441  -3.430  0.00  0.00    +0.009 C 
ATOM     21  C   UNL     1      -1.140  -0.055  -3.335  0.00  0.00    +0.000 C 
ATOM     22  C   UNL     1      -0.080  -0.426  -4.373  0.00  0.00    +0.009 C 
ENDBRANCH  19  21
ENDBRANCH  15  19
ENDBRANCH   1  17
TORSDOF 5
