REMARK  Name = ZINC27521845
REMARK  7 active torsions:
REMARK  status: ('A' for Active; 'I' for Inactive)
REMARK    1  A    between atoms: C_1  and  C_2
REMARK    2  A    between atoms: C_6  and  C_8
REMARK    3  A    between atoms: N_10  and  C_11
REMARK    4  A    between atoms: C_11  and  C_22
REMARK    5  A    between atoms: C_12  and  C_13
REMARK    6  A    between atoms: C_16  and  N_19
REMARK    7  A    between atoms: N_24  and  C_25
REMARK                            x       y       z     vdW  Elec       q    Type
REMARK                         _______ _______ _______ _____ _____    ______ ____
ROOT
ATOM      1  C   UNL     1       1.391   6.949   0.371  0.00  0.00    +0.097 C 
ATOM      2  C   UNL     1       2.721   7.118   0.553  0.00  0.00    +0.036 C 
ENDROOT
BRANCH   2   3
ATOM      3  C   UNL     1       3.644   5.998   0.315  0.00  0.00    -0.023 A 
ATOM      4  C   UNL     1       3.185   4.679   0.397  0.00  0.00    +0.010 A 
ATOM      5  C   UNL     1       4.056   3.635   0.167  0.00  0.00    +0.033 A 
ATOM      6  C   UNL     1       5.383   3.889  -0.133  0.00  0.00    +0.126 A 
ATOM      7  C   UNL     1       5.846   5.191  -0.211  0.00  0.00    +0.033 A 
ATOM      8  C   UNL     1       4.987   6.246   0.011  0.00  0.00    +0.010 A 
BRANCH   6   9
ATOM      9  N   UNL     1       6.312   2.762  -0.372  0.00  0.00    +0.056 N 
ATOM     10  O   UNL     1       7.481   2.981  -0.636  0.00  0.00    -0.126 OA
ATOM     11  O   UNL     1       5.908   1.615  -0.304  0.00  0.00    -0.126 OA
ENDBRANCH   6   9
ENDBRANCH   2   3
BRANCH   1  14
ATOM     12  C   UNL     1      -0.009   5.030   0.478  0.00  0.00    +0.248 C 
ATOM     13  O   UNL     1      -0.339   5.346   1.604  0.00  0.00    -0.270 OA
ATOM     14  N   UNL     1       0.907   5.762  -0.187  0.00  0.00    -0.277 N 
ATOM     15  H   UNL     1       1.274   5.426  -1.168  0.00  0.00    +0.155 HD
BRANCH  12  21
ATOM     16  C   UNL     1      -3.151   1.157   0.653  0.00  0.00    +0.044 C 
ATOM     17  C   UNL     1      -2.122   1.976  -0.084  0.00  0.00    -0.050 A 
ATOM     18  C   UNL     1      -1.740   1.616  -1.364  0.00  0.00    +0.003 A 
ATOM     19  C   UNL     1      -0.800   2.366  -2.049  0.00  0.00    +0.001 A 
ATOM     20  C   UNL     1      -0.234   3.476  -1.456  0.00  0.00    +0.013 A 
ATOM     21  C   UNL     1      -0.611   3.842  -0.163  0.00  0.00    +0.037 A 
ATOM     22  C   UNL     1      -1.560   3.081   0.522  0.00  0.00    +0.016 A 
ENDBRANCH  12  21
ENDBRANCH   1  14
BRANCH   1  23
ATOM     23  C   UNL     1       0.454   8.014   0.759  0.00  0.00    +0.262 C 
ATOM     24  O   UNL     1       0.865   9.007   1.329  0.00  0.00    -0.268 OA
ATOM     25  N   UNL     1      -0.859   7.889   0.484  0.00  0.00    -0.279 N 
ATOM     26  H   UNL     1      -1.241   6.962   0.033  0.00  0.00    +0.155 HD
BRANCH  25  27
ATOM     27  C   UNL     1      -1.736   8.940   0.772  0.00  0.00    +0.054 A 
ATOM     28  C   UNL     1      -1.254  10.236   0.893  0.00  0.00    +0.044 A 
ATOM     29  C   UNL     1      -2.124  11.273   1.172  0.00  0.00    +0.043 A 
ATOM     30  C   UNL     1      -3.474  11.019   1.341  0.00  0.00    +0.021 A 
ATOM     31  C   UNL     1      -3.957   9.729   1.227  0.00  0.00    +0.023 A 
ATOM     32  C   UNL     1      -3.092   8.688   0.943  0.00  0.00    +0.062 A 
ATOM     33 CL   UNL     1      -3.700   7.068   0.799  0.00  0.00    -0.082 Cl
ATOM     34 CL   UNL     1      -1.522  12.895   1.316  0.00  0.00    -0.083 Cl
ENDBRANCH  25  27
ENDBRANCH   1  23
TORSDOF 6
