REMARK  Name = ZINC20803978
REMARK  9 active torsions:
REMARK  status: ('A' for Active; 'I' for Inactive)
REMARK    1  A    between atoms: C_1  and  C_2
REMARK    2  A    between atoms: C_5  and  N_9
REMARK    3  A    between atoms: C_6  and  C_8
REMARK    4  A    between atoms: C_10  and  C_12
REMARK    5  A    between atoms: C_14  and  C_33
REMARK    6  A    between atoms: C_22  and  C_24
REMARK    7  A    between atoms: C_27  and  C_30
REMARK    8  A    between atoms: C_30  and  C_31
REMARK    9  A    between atoms: C_30  and  C_32
REMARK                            x       y       z     vdW  Elec       q    Type
REMARK                         _______ _______ _______ _____ _____    ______ ____
ROOT
ATOM      1  C   UNL     1       5.822   2.107   0.253  0.00  0.00    +0.124 C 
ATOM      2  C   UNL     1       5.952   2.911   1.552  0.00  0.00    +0.084 C 
ATOM      3  N   UNL     1       6.387   2.000   2.628  0.00  0.00    -0.310 N 
ATOM      4  C   UNL     1       7.397   1.104   2.303  0.00  0.00    +0.214 A 
ATOM      5  N   UNL     1       8.128   0.353   3.082  0.00  0.00    -0.202 NA
ATOM      6  C   UNL     1       8.985  -0.357   2.341  0.00  0.00    +0.247 A 
ATOM      7  N   UNL     1       8.806  -0.065   1.077  0.00  0.00    -0.156 NA
ATOM      8  N   UNL     1       7.781   0.879   1.023  0.00  0.00    -0.225 N 
ATOM      9  C   UNL     1       7.189   1.536  -0.142  0.00  0.00    +0.154 C 
ATOM     10  C   UNL     1       4.598   3.525   1.914  0.00  0.00    +0.028 C 
ATOM     11  H   UNL     1       5.916   2.057   3.620  0.00  0.00    +0.149 HD
ENDROOT
BRANCH   9  12
ATOM     12  C   UNL     1       7.016   0.533  -1.253  0.00  0.00    -0.022 A 
ATOM     13  C   UNL     1       6.540  -0.734  -0.972  0.00  0.00    +0.006 A 
ATOM     14  C   UNL     1       6.377  -1.653  -1.992  0.00  0.00    +0.004 A 
ATOM     15  C   UNL     1       6.697  -1.308  -3.292  0.00  0.00    -0.045 A 
ATOM     16  C   UNL     1       7.178  -0.042  -3.572  0.00  0.00    +0.004 A 
ATOM     17  C   UNL     1       7.338   0.878  -2.553  0.00  0.00    +0.006 A 
BRANCH  15  18
ATOM     18  C   UNL     1       6.523  -2.311  -4.403  0.00  0.00    +0.013 C 
ATOM     19  C   UNL     1       7.391  -3.539  -4.122  0.00  0.00    +0.012 C 
ATOM     20  C   UNL     1       5.054  -2.731  -4.484  0.00  0.00    +0.012 C 
ENDBRANCH  15  18
ENDBRANCH   9  12
BRANCH   1  22
ATOM     21  N   UNL     1       3.852   0.775  -0.426  0.00  0.00    -0.285 N 
ATOM     22  C   UNL     1       4.847   0.977   0.459  0.00  0.00    +0.224 C 
ATOM     23  O   UNL     1       4.958   0.248   1.423  0.00  0.00    -0.275 OA
ATOM     24  H   UNL     1       3.804   1.376  -1.347  0.00  0.00    +0.155 HD
BRANCH  21  29
ATOM     25  C   UNL     1      -0.092  -3.175   0.589  0.00  0.00    +0.044 C 
ATOM     26  C   UNL     1       0.955  -2.126   0.319  0.00  0.00    -0.050 A 
ATOM     27  C   UNL     1       2.243  -2.298   0.794  0.00  0.00    +0.005 A 
ATOM     28  C   UNL     1       3.205  -1.338   0.549  0.00  0.00    +0.024 A 
ATOM     29  C   UNL     1       2.879  -0.199  -0.176  0.00  0.00    +0.036 A 
ATOM     30  C   UNL     1       1.586  -0.029  -0.652  0.00  0.00    -0.029 A 
ATOM     31  C   UNL     1       0.627  -0.993  -0.403  0.00  0.00    +0.008 A 
ATOM     32  C   UNL     1       1.228   1.205  -1.440  0.00  0.00    +0.045 C 
ENDBRANCH  21  29
ENDBRANCH   1  22
TORSDOF 4
