REMARK  Name = ZINC46917700
REMARK  7 active torsions:
REMARK  status: ('A' for Active; 'I' for Inactive)
REMARK    1  A    between atoms: C_4  and  C_7
REMARK    2  A    between atoms: C_7  and  C_9
REMARK    3  A    between atoms: C_7  and  N_27
REMARK    4  A    between atoms: C_9  and  N_10
REMARK    5  A    between atoms: C_11  and  C_13
REMARK    6  A    between atoms: C_17  and  C_19
REMARK    7  A    between atoms: C_19  and  N_20
REMARK                            x       y       z     vdW  Elec       q    Type
REMARK                         _______ _______ _______ _____ _____    ______ ____
ROOT
ATOM      1  N   UNL     1       5.320  -1.941   1.316  0.00  0.00    -0.313 N 
ATOM      2  C   UNL     1       5.837  -2.443   2.455  0.00  0.00    +0.244 C 
ATOM      3  O   UNL     1       5.352  -2.139   3.527  0.00  0.00    -0.270 OA
ATOM      4  H   UNL     1       5.707  -2.183   0.460  0.00  0.00    +0.149 HD
ENDROOT
BRANCH   2   5
ATOM      5  C   UNL     1       6.993  -3.362   2.400  0.00  0.00    +0.037 A 
ATOM      6  C   UNL     1       7.556  -3.708   1.170  0.00  0.00    +0.013 A 
ATOM      7  C   UNL     1       8.635  -4.566   1.125  0.00  0.00    +0.001 A 
ATOM      8  C   UNL     1       9.160  -5.084   2.296  0.00  0.00    +0.005 A 
ATOM      9  C   UNL     1       8.607  -4.745   3.518  0.00  0.00    -0.029 A 
ATOM     10  C   UNL     1       7.531  -3.884   3.577  0.00  0.00    +0.018 A 
BRANCH   9  11
ATOM     11  C   UNL     1       9.184  -5.315   4.788  0.00  0.00    +0.152 C 
BRANCH  11  12
ATOM     12  N   UNL     1      10.232  -4.423   5.291  0.00  0.00    -0.228 N 
ATOM     13  C   UNL     1      11.474  -4.621   4.880  0.00  0.00    +0.233 C 
ATOM     14  O   UNL     1      11.767  -5.509   4.108  0.00  0.00    -0.274 OA
ATOM     15  C   UNL     1      12.509  -3.657   5.443  0.00  0.00    +0.175 C 
ATOM     16  S   UNL     1      11.422  -2.612   6.501  0.00  0.00    -0.058 S 
ATOM     17  C   UNL     1       9.880  -3.442   6.143  0.00  0.00    +0.281 C 
ATOM     18  O   UNL     1       8.772  -3.182   6.570  0.00  0.00    -0.262 OA
ENDBRANCH  11  12
ENDBRANCH   9  11
ENDBRANCH   2   5
BRANCH   1  19
ATOM     19  C   UNL     1       4.174  -1.030   1.370  0.00  0.00    +0.094 C 
BRANCH  19  20
ATOM     20  C   UNL     1       3.870  -0.508  -0.035  0.00  0.00    -0.020 C 
BRANCH  20  24
ATOM     21  C   UNL     1       7.127   1.896  -1.399  0.00  0.00    +0.000 A 
ATOM     22  C   UNL     1       7.011   0.586  -1.822  0.00  0.00    +0.000 A 
ATOM     23  C   UNL     1       5.957  -0.193  -1.381  0.00  0.00    +0.002 A 
ATOM     24  C   UNL     1       5.019   0.340  -0.516  0.00  0.00    -0.059 A 
ATOM     25  C   UNL     1       5.136   1.651  -0.092  0.00  0.00    +0.002 A 
ATOM     26  C   UNL     1       6.189   2.429  -0.535  0.00  0.00    +0.000 A 
ENDBRANCH  20  24
BRANCH  20  27
ATOM     27  N   UNL     1       2.645   0.302  -0.003  0.00  0.00    +0.385 N 
ATOM     28  C   UNL     1       2.327   0.805  -1.363  0.00  0.00    -0.078 C 
ATOM     29  C   UNL     1       0.811   1.116  -1.282  0.00  0.00    -0.020 C 
ATOM     30  C   UNL     1       0.271  -0.028  -0.394  0.00  0.00    -0.020 C 
ATOM     31  C   UNL     1       1.492  -0.534   0.397  0.00  0.00    -0.078 C 
ATOM     32  H   UNL     1       2.754   1.073   0.638  0.00  0.00    -0.081 HD
ENDBRANCH  20  27
ENDBRANCH  19  20
ENDBRANCH   1  19
TORSDOF 7
