REMARK  Name = ZINC59489395
REMARK  9 active torsions:
REMARK  status: ('A' for Active; 'I' for Inactive)
REMARK    1  A    between atoms: C_1  and  C_2
REMARK    2  A    between atoms: C_5  and  C_8
REMARK    3  A    between atoms: C_8  and  C_30
REMARK    4  A    between atoms: N_9  and  N_10
REMARK    5  A    between atoms: C_11  and  S_13
REMARK    6  A    between atoms: S_13  and  C_14
REMARK    7  A    between atoms: N_19  and  C_22
REMARK    8  A    between atoms: C_27  and  O_28
REMARK    9  A    between atoms: O_28  and  C_29
REMARK                            x       y       z     vdW  Elec       q    Type
REMARK                         _______ _______ _______ _____ _____    ______ ____
ROOT
ATOM      1  N   UNL     1       0.081  -6.292  -1.156  0.00  0.00    -0.217 N 
ATOM      2  C   UNL     1       0.084  -6.973  -2.353  0.00  0.00    +0.146 C 
ATOM      3  N   UNL     1       0.069  -6.315  -3.479  0.00  0.00    -0.380 N 
ATOM      4  H   UNL     1       0.092  -6.781  -0.319  0.00  0.00    +0.176 HD
ATOM      5  H   UNL     1       0.071  -6.796  -4.322  0.00  0.00    +0.158 HD
ATOM      6  H   UNL     1       0.056  -5.345  -3.474  0.00  0.00    +0.158 HD
ENDROOT
BRANCH   1   8
ATOM      7  C   UNL     1       0.060  -4.248  -0.021  0.00  0.00    +0.063 C 
ATOM      8  N   UNL     1       0.062  -4.891  -1.149  0.00  0.00    -0.185 NA
ATOM      9  C   UNL     1       0.076  -5.008   1.280  0.00  0.00    +0.068 C 
BRANCH   7  14
ATOM     10  C   UNL     1      -0.018   1.503   0.010  0.00  0.00    +0.044 C 
ATOM     11  C   UNL     1       0.002  -0.004   0.002  0.00  0.00    -0.050 A 
ATOM     12  C   UNL     1       0.006  -0.686  -1.202  0.00  0.00    +0.004 A 
ATOM     13  C   UNL     1       0.024  -2.065  -1.217  0.00  0.00    +0.010 A 
ATOM     14  C   UNL     1       0.040  -2.773  -0.013  0.00  0.00    -0.003 A 
ATOM     15  C   UNL     1       0.037  -2.078   1.198  0.00  0.00    +0.010 A 
ATOM     16  C   UNL     1       0.023  -0.699   1.198  0.00  0.00    +0.004 A 
ENDBRANCH   7  14
ENDBRANCH   1   8
BRANCH   2  17
ATOM     17  S   UNL     1       0.107  -8.735  -2.362  0.00  0.00    -0.078 S 
BRANCH  17  18
ATOM     18  C   UNL     1       0.103  -9.165  -4.125  0.00  0.00    +0.149 C 
ATOM     19  C   UNL     1       0.195 -10.693  -4.312  0.00  0.00    +0.120 C 
ATOM     20  C   UNL     1      -1.091 -11.040  -5.029  0.00  0.00    +0.228 C 
ATOM     21  O   UNL     1      -1.426 -12.153  -5.372  0.00  0.00    -0.275 OA
ATOM     22  N   UNL     1      -1.802  -9.922  -5.226  0.00  0.00    -0.206 N 
ATOM     23  C   UNL     1      -1.223  -8.805  -4.758  0.00  0.00    +0.240 C 
ATOM     24  O   UNL     1      -1.687  -7.687  -4.829  0.00  0.00    -0.274 OA
BRANCH  22  25
ATOM     25  C   UNL     1      -3.049  -9.918  -5.870  0.00  0.00    +0.085 A 
ATOM     26  C   UNL     1      -4.213 -10.071  -5.132  0.00  0.00    +0.027 A 
ATOM     27  C   UNL     1      -5.440 -10.066  -5.768  0.00  0.00    +0.002 A 
ATOM     28  C   UNL     1      -5.510  -9.909  -7.140  0.00  0.00    +0.004 A 
ATOM     29  C   UNL     1      -4.354  -9.756  -7.882  0.00  0.00    +0.047 A 
ATOM     30  C   UNL     1      -3.121  -9.754  -7.251  0.00  0.00    +0.142 A 
BRANCH  30  31
ATOM     31  O   UNL     1      -1.983  -9.598  -7.979  0.00  0.00    -0.493 OA
ATOM     32  C   UNL     1      -2.133  -9.435  -9.390  0.00  0.00    +0.277 C 
ENDBRANCH  30  31
ENDBRANCH  22  25
ENDBRANCH  17  18
ENDBRANCH   2  17
TORSDOF 6
