REMARK  Name = ZINC22073618
REMARK  3 active torsions:
REMARK  status: ('A' for Active; 'I' for Inactive)
REMARK    1  A    between atoms: N_9  and  C_12
REMARK    2  A    between atoms: C_15  and  C_18
REMARK    3  A    between atoms: C_21  and  N_24
REMARK                            x       y       z     vdW  Elec       q    Type
REMARK                         _______ _______ _______ _____ _____    ______ ____
ROOT
ATOM      1  C   UNL     1      -1.122  -3.479  -0.006  0.00  0.00    +0.045 A 
ATOM      2  C   UNL     1      -0.406  -4.670  -0.025  0.00  0.00    +0.024 A 
ATOM      3  C   UNL     1      -1.073  -5.877  -0.019  0.00  0.00    +0.010 A 
ATOM      4  C   UNL     1      -2.467  -5.901  -0.006  0.00  0.00    -0.018 A 
ATOM      5  C   UNL     1      -3.183  -4.705   0.007  0.00  0.00    +0.010 A 
ATOM      6  C   UNL     1      -2.511  -3.501   0.007  0.00  0.00    +0.024 A 
ENDROOT
BRANCH   1  15
ATOM      7  C   UNL     1       2.386   1.414  -0.012  0.00  0.00    +0.001 A 
ATOM      8  C   UNL     1       1.178   2.085   0.002  0.00  0.00    +0.001 A 
ATOM      9  C   UNL     1      -0.017   1.381   0.010  0.00  0.00    +0.014 A 
ATOM     10  C   UNL     1       0.002  -0.004   0.002  0.00  0.00    +0.050 A 
ATOM     11  C   UNL     1       1.234  -0.689  -0.013  0.00  0.00    +0.050 A 
ATOM     12  C   UNL     1       2.420   0.028  -0.021  0.00  0.00    +0.014 A 
ATOM     13  C   UNL     1       0.898  -2.128  -0.018  0.00  0.00    +0.258 C 
ATOM     14  O   UNL     1       1.696  -3.042  -0.030  0.00  0.00    -0.269 OA
ATOM     15  N   UNL     1      -0.442  -2.255  -0.006  0.00  0.00    -0.202 N 
ATOM     16  C   UNL     1      -1.042  -1.051   0.006  0.00  0.00    +0.258 C 
ATOM     17  O   UNL     1      -2.240  -0.856   0.019  0.00  0.00    -0.269 OA
ENDBRANCH   1  15
BRANCH   4  18
ATOM     18  C   UNL     1      -3.187  -7.198  -0.007  0.00  0.00    -0.018 A 
ATOM     19  C   UNL     1      -4.581  -7.223   0.012  0.00  0.00    +0.010 A 
ATOM     20  C   UNL     1      -5.248  -8.429   0.005  0.00  0.00    +0.023 A 
ATOM     21  C   UNL     1      -4.532  -9.620  -0.008  0.00  0.00    +0.025 A 
ATOM     22  C   UNL     1      -3.142  -9.598  -0.021  0.00  0.00    +0.023 A 
ATOM     23  C   UNL     1      -2.471  -8.394  -0.020  0.00  0.00    +0.010 A 
BRANCH  21  24
ATOM     24  N   UNL     1      -5.210 -10.841  -0.008  0.00  0.00    -0.358 N 
ATOM     25  H   UNL     1      -4.644 -11.784  -0.018  0.00  0.00    +0.142 HD
ATOM     26  H   UNL     1      -6.310 -10.859   0.002  0.00  0.00    +0.142 HD
ENDBRANCH  21  24
ENDBRANCH   4  18
TORSDOF 3
