REMARK  Name = ZINC36548002
REMARK  16 active torsions:
REMARK  status: ('A' for Active; 'I' for Inactive)
REMARK    1  A    between atoms: C_1  and  C_2
REMARK    2  A    between atoms: C_2  and  C_3
REMARK    3  A    between atoms: C_3  and  C_4
REMARK    4  A    between atoms: C_4  and  C_5
REMARK    5  A    between atoms: C_5  and  C_6
REMARK    6  A    between atoms: N_8  and  C_9
REMARK    7  A    between atoms: N_8  and  C_16
REMARK    8  A    between atoms: C_16  and  C_18
REMARK    9  A    between atoms: C_16  and  C_23
REMARK   10  A    between atoms: C_19  and  C_20
REMARK   11  A    between atoms: C_20  and  C_21
REMARK   12  A    between atoms: C_21  and  C_22
REMARK   13  A    between atoms: N_25  and  C_26
REMARK   14  A    between atoms: C_26  and  S_27
REMARK   15  A    between atoms: S_27  and  C_30
REMARK   16  A    between atoms: C_33  and  C_36
REMARK                            x       y       z     vdW  Elec       q    Type
REMARK                         _______ _______ _______ _____ _____    ______ ____
ROOT
ATOM      1  C   UNL     1      -3.968  -6.212  -0.004  0.00  0.00    +0.190 C 
ENDROOT
BRANCH   1   2
ATOM      2  C   UNL     1      -4.818  -6.620   1.171  0.00  0.00    +0.239 C 
ATOM      3  O   UNL     1      -5.221  -5.780   1.948  0.00  0.00    -0.273 OA
ATOM      4  N   UNL     1      -5.131  -7.917   1.360  0.00  0.00    -0.294 N 
ATOM      5  H   UNL     1      -4.809  -8.588   0.738  0.00  0.00    +0.150 HD
BRANCH   4   6
ATOM      6  C   UNL     1      -5.958  -8.313   2.502  0.00  0.00    +0.278 C 
BRANCH   6   7
ATOM      7  S   UNL     1      -7.693  -8.417   1.986  0.00  0.00    +0.013 S 
ATOM      8  O   UNL     1      -8.500  -8.861   3.068  0.00  0.00    -0.168 OA
ATOM      9  O   UNL     1      -8.053  -7.261   1.242  0.00  0.00    -0.168 OA
BRANCH   7  10
ATOM     10  C   UNL     1      -7.740  -9.736   0.819  0.00  0.00    +0.090 A 
ATOM     11  C   UNL     1      -7.536  -9.479  -0.524  0.00  0.00    +0.027 A 
ATOM     12  C   UNL     1      -7.573 -10.514  -1.439  0.00  0.00    +0.005 A 
ATOM     13  C   UNL     1      -7.813 -11.806  -1.012  0.00  0.00    -0.050 A 
ATOM     14  C   UNL     1      -8.017 -12.064   0.331  0.00  0.00    +0.005 A 
ATOM     15  C   UNL     1      -7.976 -11.030   1.247  0.00  0.00    +0.027 A 
ATOM     16  C   UNL     1      -7.854 -12.935  -2.010  0.00  0.00    +0.044 C 
ENDBRANCH   7  10
ENDBRANCH   6   7
ENDBRANCH   4   6
ENDBRANCH   1   2
BRANCH   1  19
ATOM     17  C   UNL     1      -4.510  -3.842   0.154  0.00  0.00    +0.221 C 
ATOM     18  O   UNL     1      -5.683  -4.133   0.044  0.00  0.00    -0.275 OA
ATOM     19  N   UNL     1      -3.572  -4.809   0.142  0.00  0.00    -0.255 N 
BRANCH  19  20
ATOM     20  C   UNL     1      -2.219  -4.473   0.269  0.00  0.00    +0.056 A 
ATOM     21  C   UNL     1      -1.663  -4.287   1.528  0.00  0.00    +0.025 A 
ATOM     22  C   UNL     1      -0.328  -3.956   1.650  0.00  0.00    +0.002 A 
ATOM     23  C   UNL     1       0.456  -3.810   0.520  0.00  0.00    +0.002 A 
ATOM     24  C   UNL     1      -0.093  -3.995  -0.735  0.00  0.00    +0.022 A 
ATOM     25  C   UNL     1      -1.427  -4.332  -0.864  0.00  0.00    +0.062 A 
ATOM     26 CL   UNL     1      -2.115  -4.571  -2.440  0.00  0.00    -0.082 Cl
ENDBRANCH  19  20
BRANCH  17  27
ATOM     27  C   UNL     1      -4.103  -2.399   0.305  0.00  0.00    +0.096 C 
BRANCH  27  28
ATOM     28  C   UNL     1      -5.350  -1.513   0.288  0.00  0.00    +0.009 C 
BRANCH  28  29
ATOM     29  C   UNL     1      -4.937  -0.048   0.440  0.00  0.00    +0.000 C 
BRANCH  29  31
ATOM     30  C   UNL     1      -5.771   2.304   0.576  0.00  0.00    +0.004 C 
ATOM     31  C   UNL     1      -6.184   0.839   0.423  0.00  0.00    -0.003 C 
ENDBRANCH  29  31
ENDBRANCH  28  29
ENDBRANCH  27  28
ENDBRANCH  17  27
ENDBRANCH   1  19
BRANCH   1  32
ATOM     32  C   UNL     1      -4.756  -6.382  -1.277  0.00  0.00    +0.001 C 
ATOM     33  C   UNL     1      -4.890  -5.374  -2.104  0.00  0.00    -0.029 C 
BRANCH  33  34
ATOM     34  C   UNL     1      -5.782  -5.504  -3.312  0.00  0.00    +0.027 C 
BRANCH  34  35
ATOM     35  C   UNL     1      -6.813  -4.374  -3.308  0.00  0.00    +0.001 C 
ATOM     36  C   UNL     1      -7.718  -4.506  -4.535  0.00  0.00    +0.004 C 
ENDBRANCH  34  35
ENDBRANCH  33  34
ENDBRANCH   1  32
TORSDOF 13
