REMARK  Name = ZINC13828383
REMARK  8 active torsions:
REMARK  status: ('A' for Active; 'I' for Inactive)
REMARK    1  A    between atoms: C_1  and  C_2
REMARK    2  A    between atoms: C_2  and  C_3
REMARK    3  A    between atoms: C_2  and  C_4
REMARK    4  A    between atoms: C_2  and  C_5
REMARK    5  A    between atoms: C_8  and  C_11
REMARK    6  A    between atoms: N_13  and  C_14
REMARK    7  A    between atoms: C_14  and  C_33
REMARK    8  A    between atoms: N_22  and  C_27
REMARK                            x       y       z     vdW  Elec       q    Type
REMARK                         _______ _______ _______ _____ _____    ______ ____
ROOT
ATOM      1  C   UNL     1       5.572  -3.080  -6.818  0.00  0.00    +0.240 C 
ATOM      2  C   UNL     1       6.460  -1.889  -6.543  0.00  0.00    +0.097 A 
ATOM      3  C   UNL     1       7.164  -1.460  -5.411  0.00  0.00    +0.262 A 
ATOM      4  O   UNL     1       7.123  -2.107  -4.378  0.00  0.00    -0.267 OA
ATOM      5  N   UNL     1       7.889  -0.324  -5.475  0.00  0.00    -0.274 N 
ATOM      6  H   UNL     1       8.380  -0.018  -4.696  0.00  0.00    +0.173 HD
ATOM      7  C   UNL     1       7.932   0.387  -6.616  0.00  0.00    +0.335 A 
ATOM      8  O   UNL     1       8.590   1.409  -6.657  0.00  0.00    -0.246 OA
ATOM      9  N   UNL     1       7.263  -0.008  -7.713  0.00  0.00    -0.249 N 
ATOM     10  C   UNL     1       6.508  -1.164  -7.696  0.00  0.00    +0.125 A 
ATOM     11  N   UNL     1       5.752  -1.755  -8.680  0.00  0.00    -0.269 N 
ATOM     12  C   UNL     1       5.160  -2.888  -8.264  0.00  0.00    +0.256 C 
ATOM     13  O   UNL     1       4.438  -3.613  -8.915  0.00  0.00    -0.272 OA
ATOM     14  H   UNL     1       5.656  -1.394  -9.575  0.00  0.00    +0.156 HD
ENDROOT
BRANCH   9  15
ATOM     15  C   UNL     1       7.332   0.759  -8.883  0.00  0.00    +0.053 A 
ATOM     16  C   UNL     1       8.323   0.507  -9.823  0.00  0.00    +0.026 A 
ATOM     17  C   UNL     1       8.389   1.266 -10.975  0.00  0.00    +0.002 A 
ATOM     18  C   UNL     1       7.469   2.275 -11.194  0.00  0.00    +0.000 A 
ATOM     19  C   UNL     1       6.481   2.528 -10.260  0.00  0.00    +0.002 A 
ATOM     20  C   UNL     1       6.407   1.769  -9.108  0.00  0.00    +0.026 A 
ENDBRANCH   9  15
BRANCH   1  23
ATOM     21  C   UNL     1       3.434  -3.992  -6.087  0.00  0.00    +0.245 C 
ATOM     22  O   UNL     1       3.537  -4.844  -6.947  0.00  0.00    -0.270 OA
ATOM     23  N   UNL     1       4.399  -3.063  -5.940  0.00  0.00    -0.287 N 
ATOM     24  H   UNL     1       4.317  -2.382  -5.253  0.00  0.00    +0.151 HD
BRANCH  21  28
ATOM     25  C   UNL     1       0.034  -3.942  -3.542  0.00  0.00    -0.042 A 
ATOM     26  C   UNL     1       0.147  -4.913  -4.520  0.00  0.00    +0.005 A 
ATOM     27  C   UNL     1       1.249  -4.935  -5.350  0.00  0.00    +0.013 A 
ATOM     28  C   UNL     1       2.250  -3.974  -5.201  0.00  0.00    +0.037 A 
ATOM     29  C   UNL     1       2.130  -2.997  -4.212  0.00  0.00    +0.013 A 
ATOM     30  C   UNL     1       1.020  -2.983  -3.392  0.00  0.00    +0.005 A 
BRANCH  25  32
ATOM     31  C   UNL     1      -1.916  -2.597  -2.806  0.00  0.00    +0.015 C 
ATOM     32  C   UNL     1      -1.173  -3.924  -2.639  0.00  0.00    -0.013 C 
ATOM     33  C   UNL     1      -0.723  -4.077  -1.184  0.00  0.00    +0.015 C 
ATOM     34  C   UNL     1      -2.104  -5.080  -3.009  0.00  0.00    +0.015 C 
ENDBRANCH  25  32
ENDBRANCH  21  28
ENDBRANCH   1  23
BRANCH   1  35
ATOM     35  C   UNL     1       6.350  -4.387  -6.649  0.00  0.00    +0.424 C 
ATOM     36  F   UNL     1       5.519  -5.468  -6.959  0.00  0.00    -0.167 F 
ATOM     37  F   UNL     1       7.455  -4.386  -7.507  0.00  0.00    -0.167 F 
ATOM     38  F   UNL     1       6.788  -4.500  -5.325  0.00  0.00    -0.167 F 
ENDBRANCH   1  35
TORSDOF 5
