REMARK  Name = ZINC29990027
REMARK  12 active torsions:
REMARK  status: ('A' for Active; 'I' for Inactive)
REMARK    1  A    between atoms: C_1  and  C_2
REMARK    2  A    between atoms: C_5  and  N_9
REMARK    3  A    between atoms: C_6  and  C_8
REMARK    4  A    between atoms: C_10  and  S_14
REMARK    5  A    between atoms: S_14  and  C_15
REMARK    6  A    between atoms: C_15  and  C_16
REMARK    7  A    between atoms: N_18  and  C_19
REMARK    8  A    between atoms: C_19  and  C_20
REMARK    9  A    between atoms: C_20  and  C_22
REMARK   10  A    between atoms: C_20  and  N_30
REMARK   11  A    between atoms: C_25  and  O_28
REMARK   12  A    between atoms: O_28  and  C_29
REMARK                            x       y       z     vdW  Elec       q    Type
REMARK                         _______ _______ _______ _____ _____    ______ ____
ROOT
ATOM      1  C   UNL     1       1.769   3.287   1.892  0.00  0.00    +0.223 C 
ATOM      2  O   UNL     1       1.065   3.331   0.906  0.00  0.00    -0.275 OA
ATOM      3  N   UNL     1       2.794   2.413   1.950  0.00  0.00    -0.316 N 
ATOM      4  H   UNL     1       3.435   2.375   2.842  0.00  0.00    +0.149 HD
ENDROOT
BRANCH   1   5
ATOM      5  C   UNL     1       1.499   4.208   3.054  0.00  0.00    +0.173 C 
BRANCH   5   6
ATOM      6  S   UNL     1       0.070   5.252   2.676  0.00  0.00    -0.075 S 
BRANCH   6   8
ATOM      7  N   UNL     1      -0.919   7.173   4.442  0.00  0.00    -0.187 N 
ATOM      8  C   UNL     1      -0.017   6.200   4.158  0.00  0.00    +0.214 A 
ATOM      9  N   UNL     1       0.783   6.102   5.198  0.00  0.00    -0.101 NA
ATOM     10  N   UNL     1       0.442   6.940   6.109  0.00  0.00    -0.022 NA
ATOM     11  N   UNL     1      -0.582   7.624   5.730  0.00  0.00    -0.038 NA
BRANCH   7  16
ATOM     12  C   UNL     1      -5.149   9.022   1.139  0.00  0.00    +0.044 C 
ATOM     13  C   UNL     1      -4.026   8.531   2.016  0.00  0.00    -0.050 A 
ATOM     14  C   UNL     1      -2.760   8.365   1.487  0.00  0.00    +0.005 A 
ATOM     15  C   UNL     1      -1.727   7.921   2.289  0.00  0.00    +0.028 A 
ATOM     16  C   UNL     1      -1.964   7.630   3.626  0.00  0.00    +0.073 A 
ATOM     17  C   UNL     1      -3.237   7.798   4.154  0.00  0.00    -0.025 A 
ATOM     18  C   UNL     1      -4.264   8.248   3.348  0.00  0.00    +0.008 A 
ATOM     19  C   UNL     1      -3.497   7.490   5.607  0.00  0.00    +0.046 C 
ENDBRANCH   7  16
ENDBRANCH   6   8
ENDBRANCH   5   6
ENDBRANCH   1   5
BRANCH   3  20
ATOM     20  C   UNL     1       3.053   1.513   0.823  0.00  0.00    +0.093 C 
BRANCH  20  21
ATOM     21  C   UNL     1       4.337   0.724   1.085  0.00  0.00    -0.020 C 
BRANCH  21  22
ATOM     22  N   UNL     1       4.561  -0.227  -0.012  0.00  0.00    +0.385 N 
ATOM     23  C   UNL     1       3.395  -1.100  -0.198  0.00  0.00    -0.078 C 
ATOM     24  C   UNL     1       3.603  -1.975  -1.436  0.00  0.00    -0.019 C 
ATOM     25  C   UNL     1       4.870  -2.815  -1.254  0.00  0.00    -0.004 C 
ATOM     26  C   UNL     1       6.061  -1.883  -1.014  0.00  0.00    -0.019 C 
ATOM     27  C   UNL     1       5.782  -1.011   0.212  0.00  0.00    -0.078 C 
ATOM     28  H   UNL     1       4.698   0.350  -0.939  0.00  0.00    -0.081 HD
ENDBRANCH  21  22
BRANCH  21  29
ATOM     29  C   UNL     1       5.503   1.675   1.171  0.00  0.00    -0.059 A 
ATOM     30  C   UNL     1       6.083   2.161   0.014  0.00  0.00    +0.005 A 
ATOM     31  C   UNL     1       7.148   3.038   0.090  0.00  0.00    +0.046 A 
ATOM     32  C   UNL     1       7.642   3.422   1.328  0.00  0.00    +0.120 A 
ATOM     33  C   UNL     1       7.061   2.929   2.487  0.00  0.00    +0.046 A 
ATOM     34  C   UNL     1       5.992   2.057   2.406  0.00  0.00    +0.005 A 
BRANCH  32  35
ATOM     35  O   UNL     1       8.694   4.280   1.405  0.00  0.00    -0.495 OA
ATOM     36  C   UNL     1       9.242   4.747   0.171  0.00  0.00    +0.277 C 
ENDBRANCH  32  35
ENDBRANCH  21  29
ENDBRANCH  20  21
ENDBRANCH   3  20
TORSDOF 9
