REMARK  Name = ZINC14861949
REMARK  8 active torsions:
REMARK  status: ('A' for Active; 'I' for Inactive)
REMARK    1  A    between atoms: C_1  and  C_2
REMARK    2  A    between atoms: C_8  and  C_10
REMARK    3  A    between atoms: C_10  and  C_12
REMARK    4  A    between atoms: C_10  and  S_13
REMARK    5  A    between atoms: S_13  and  C_14
REMARK    6  A    between atoms: C_14  and  C_15
REMARK    7  A    between atoms: N_17  and  C_18
REMARK    8  A    between atoms: C_21  and  C_24
REMARK                            x       y       z     vdW  Elec       q    Type
REMARK                         _______ _______ _______ _____ _____    ______ ____
ROOT
ATOM      1  C   UNL     1      -4.577   5.831   0.160  0.00  0.00    +0.227 C 
ATOM      2  O   UNL     1      -3.486   6.360   0.157  0.00  0.00    -0.275 OA
ATOM      3  N   UNL     1      -4.677   4.491   0.051  0.00  0.00    -0.285 N 
ATOM      4  H   UNL     1      -5.550   4.074  -0.024  0.00  0.00    +0.155 HD
ENDROOT
BRANCH   3   5
ATOM      5  C   UNL     1      -3.524   3.703   0.046  0.00  0.00    +0.033 A 
ATOM      6  C   UNL     1      -2.419   4.086   0.798  0.00  0.00    +0.024 A 
ATOM      7  C   UNL     1      -1.280   3.311   0.795  0.00  0.00    +0.013 A 
ATOM      8  C   UNL     1      -1.237   2.139   0.037  0.00  0.00    +0.017 A 
ATOM      9  C   UNL     1      -2.347   1.760  -0.720  0.00  0.00    +0.013 A 
ATOM     10  C   UNL     1      -3.484   2.537  -0.710  0.00  0.00    +0.024 A 
BRANCH   8  11
ATOM     11  C   UNL     1      -0.017   1.305   0.032  0.00  0.00    +0.139 A 
ATOM     12  N   UNL     1       0.137   0.138  -0.667  0.00  0.00    -0.338 N 
ATOM     13  H   UNL     1      -0.545  -0.294  -1.258  0.00  0.00    +0.167 HD
ATOM     14  C   UNL     1       1.408  -0.333  -0.403  0.00  0.00    +0.066 A 
ATOM     15  C   UNL     1       2.127  -1.447  -0.811  0.00  0.00    +0.028 A 
ATOM     16  C   UNL     1       3.415  -1.635  -0.355  0.00  0.00    +0.002 A 
ATOM     17  C   UNL     1       3.996  -0.718   0.510  0.00  0.00    +0.002 A 
ATOM     18  C   UNL     1       3.304   0.385   0.924  0.00  0.00    +0.030 A 
ATOM     19  C   UNL     1       1.996   0.597   0.474  0.00  0.00    +0.089 A 
ATOM     20  N   UNL     1       1.080   1.569   0.700  0.00  0.00    -0.228 NA
ENDBRANCH   8  11
ENDBRANCH   3   5
BRANCH   1  21
ATOM     21  C   UNL     1      -5.822   6.672   0.284  0.00  0.00    +0.165 C 
BRANCH  21  22
ATOM     22  S   UNL     1      -5.359   8.421   0.411  0.00  0.00    -0.139 S 
BRANCH  22  23
ATOM     23  C   UNL     1      -6.947   9.286   0.553  0.00  0.00    +0.130 C 
ATOM     24  C   UNL     1      -7.631   8.886   1.862  0.00  0.00    +0.029 C 
BRANCH  23  32
ATOM     25  C   UNL     1      -5.662  16.144   0.562  0.00  0.00    +0.089 C 
ATOM     26  C   UNL     1      -6.592  14.973   0.372  0.00  0.00    +0.136 A 
ATOM     27  C   UNL     1      -6.285  13.664   0.518  0.00  0.00    +0.091 A 
ATOM     28  C   UNL     1      -7.501  12.992   0.227  0.00  0.00    +0.168 A 
ATOM     29  N   UNL     1      -8.374  13.923  -0.056  0.00  0.00    -0.063 NA
ATOM     30  O   UNL     1      -7.886  15.027   0.025  0.00  0.00    -0.358 OA
ATOM     31  N   UNL     1      -7.720  11.614   0.235  0.00  0.00    -0.267 N 
ATOM     32  C   UNL     1      -6.712  10.774   0.544  0.00  0.00    +0.231 C 
ATOM     33  O   UNL     1      -5.615  11.216   0.814  0.00  0.00    -0.274 OA
ATOM     34  H   UNL     1      -8.597  11.261   0.019  0.00  0.00    +0.156 HD
ENDBRANCH  23  32
ENDBRANCH  22  23
ENDBRANCH  21  22
ENDBRANCH   1  21
TORSDOF 6
