REMARK  Name = ZINC13065035
REMARK  11 active torsions:
REMARK  status: ('A' for Active; 'I' for Inactive)
REMARK    1  A    between atoms: C_1  and  C_2
REMARK    2  A    between atoms: C_2  and  C_3
REMARK    3  A    between atoms: C_3  and  C_5
REMARK    4  A    between atoms: C_3  and  N_72
REMARK    5  A    between atoms: N_9  and  C_10
REMARK    6  A    between atoms: C_16  and  C_17
REMARK    7  A    between atoms: C_16  and  N_72
REMARK    8  A    between atoms: C_23  and  C_24
REMARK    9  A    between atoms: C_23  and  N_72
REMARK   10  A    between atoms: C_29  and  C_37
REMARK   11  A    between atoms: C_30  and  C_36
REMARK                            x       y       z     vdW  Elec       q    Type
REMARK                         _______ _______ _______ _____ _____    ______ ____
ROOT
ATOM      1  N   UNL     1      -0.874   1.840   1.478  0.00  0.00    +0.392 N 
ATOM      2  H   UNL     1      -1.116   2.828   1.621  0.00  0.00    -0.080 HD
ENDROOT
BRANCH   1   3
ATOM      3  C   UNL     1      -0.177   1.338   2.682  0.00  0.00    +0.003 C 
BRANCH   3   4
ATOM      4  C   UNL     1       0.658   2.454   3.255  0.00  0.00    +0.138 A 
ATOM      5  N   UNL     1       1.390   3.308   2.582  0.00  0.00    -0.115 NA
ATOM      6  N   UNL     1       1.948   4.106   3.427  0.00  0.00    -0.023 NA
ATOM      7  N   UNL     1       1.596   3.778   4.621  0.00  0.00    -0.044 NA
ATOM      8  N   UNL     1       0.800   2.764   4.557  0.00  0.00    -0.228 N 
BRANCH   8   9
ATOM      9  C   UNL     1       0.171   2.079   5.689  0.00  0.00    +0.111 C 
ATOM     10  C   UNL     1      -0.799   3.034   6.387  0.00  0.00    +0.027 C 
ATOM     11  C   UNL     1      -1.456   2.319   7.569  0.00  0.00    +0.002 C 
ATOM     12  C   UNL     1      -0.378   1.872   8.559  0.00  0.00    +0.000 C 
ATOM     13  C   UNL     1       0.592   0.917   7.860  0.00  0.00    +0.002 C 
ATOM     14  C   UNL     1       1.249   1.633   6.678  0.00  0.00    +0.027 C 
ENDBRANCH   8   9
ENDBRANCH   3   4
BRANCH   3  16
ATOM     15  C   UNL     1      -0.133  -1.024   1.868  0.00  0.00    +0.002 C 
ATOM     16  C   UNL     1       0.727   0.158   2.322  0.00  0.00    -0.011 C 
ENDBRANCH   3  16
ENDBRANCH   1   3
BRANCH   1  17
ATOM     17  C   UNL     1      -2.114   1.069   1.254  0.00  0.00    -0.042 C 
BRANCH  17  18
ATOM     18  C   UNL     1      -3.112   1.435   2.322  0.00  0.00    -0.064 A 
ATOM     19  C   UNL     1      -3.237   0.646   3.451  0.00  0.00    +0.002 A 
ATOM     20  C   UNL     1      -4.149   0.985   4.433  0.00  0.00    +0.000 A 
ATOM     21  C   UNL     1      -4.944   2.106   4.282  0.00  0.00    +0.000 A 
ATOM     22  C   UNL     1      -4.823   2.891   3.150  0.00  0.00    +0.000 A 
ATOM     23  C   UNL     1      -3.907   2.556   2.171  0.00  0.00    +0.002 A 
ENDBRANCH  17  18
ENDBRANCH   1  17
BRANCH   1  24
ATOM     24  C   UNL     1       0.011   1.728   0.300  0.00  0.00    -0.036 C 
BRANCH  24  25
ATOM     25  C   UNL     1      -0.584   2.527  -0.831  0.00  0.00    +0.001 A 
ATOM     26  C   UNL     1      -0.196   3.811  -1.029  0.00  0.00    +0.017 A 
ATOM     27  C   UNL     1      -0.790   4.558  -2.138  0.00  0.00    -0.001 A 
ATOM     28  C   UNL     1      -0.425   5.884  -2.396  0.00  0.00    +0.010 A 
ATOM     29  C   UNL     1      -1.002   6.556  -3.436  0.00  0.00    +0.004 A 
ATOM     30  C   UNL     1      -1.947   5.934  -4.241  0.00  0.00    -0.046 A 
ATOM     31  C   UNL     1      -2.322   4.629  -4.006  0.00  0.00    -0.024 A 
ATOM     32  C   UNL     1      -1.748   3.925  -2.952  0.00  0.00    +0.052 A 
ATOM     33  N   UNL     1      -2.103   2.618  -2.695  0.00  0.00    -0.322 N 
ATOM     34  H   UNL     1      -2.764   2.183  -3.257  0.00  0.00    +0.169 HD
ATOM     35  C   UNL     1      -1.549   1.938  -1.676  0.00  0.00    +0.251 A 
ATOM     36  O   UNL     1      -1.887   0.784  -1.478  0.00  0.00    -0.268 OA
ATOM     37  C   UNL     1      -3.348   3.966  -4.888  0.00  0.00    +0.046 C 
ATOM     38  C   UNL     1      -2.570   6.694  -5.383  0.00  0.00    +0.044 C 
ENDBRANCH  24  25
ENDBRANCH   1  24
TORSDOF 8
