REMARK  Name = ZINC10267903
REMARK  6 active torsions:
REMARK  status: ('A' for Active; 'I' for Inactive)
REMARK    1  A    between atoms: C_1  and  C_2
REMARK    2  A    between atoms: C_7  and  N_8
REMARK    3  A    between atoms: C_11  and  C_16
REMARK    4  A    between atoms: C_16  and  O_17
REMARK    5  A    between atoms: O_17  and  C_18
REMARK    6  A    between atoms: C_18  and  C_20
REMARK                            x       y       z     vdW  Elec       q    Type
REMARK                         _______ _______ _______ _____ _____    ______ ____
ROOT
ATOM      1  N   UNL     1       1.385   1.593   2.434  0.00  0.00    -0.283 N 
ATOM      2  C   UNL     1       2.117   1.925   3.558  0.00  0.00    +0.224 A 
ATOM      3  N   UNL     1       3.443   1.815   3.546  0.00  0.00    -0.196 NA
ATOM      4  C   UNL     1       4.144   2.132   4.620  0.00  0.00    +0.173 A 
ATOM      5  N   UNL     1       3.532   2.559   5.710  0.00  0.00    -0.196 NA
ATOM      6  C   UNL     1       2.206   2.672   5.730  0.00  0.00    +0.217 A 
ATOM      7  N   UNL     1       1.498   2.359   4.650  0.00  0.00    -0.181 NA
ATOM      8  N   UNL     1       1.567   3.118   6.869  0.00  0.00    -0.327 N 
ATOM      9  H   UNL     1       1.840   1.366   1.608  0.00  0.00    +0.155 HD
ATOM     10  H   UNL     1       2.085   3.349   7.656  0.00  0.00    +0.145 HD
ATOM     11  H   UNL     1       0.601   3.200   6.883  0.00  0.00    +0.145 HD
ENDROOT
BRANCH   1  18
ATOM     12  C   UNL     1      -0.053   2.155   0.044  0.00  0.00    +0.045 C 
ATOM     13  C   UNL     1      -0.754   1.853   1.344  0.00  0.00    -0.029 A 
ATOM     14  C   UNL     1      -2.134   1.849   1.401  0.00  0.00    +0.005 A 
ATOM     15  C   UNL     1      -2.777   1.566   2.592  0.00  0.00    +0.000 A 
ATOM     16  C   UNL     1      -2.042   1.298   3.732  0.00  0.00    +0.002 A 
ATOM     17  C   UNL     1      -0.662   1.306   3.683  0.00  0.00    +0.023 A 
ATOM     18  C   UNL     1      -0.012   1.584   2.487  0.00  0.00    +0.036 A 
ENDBRANCH   1  18
BRANCH   4  19
ATOM     19  C   UNL     1       5.646   2.006   4.602  0.00  0.00    +0.308 C 
BRANCH  19  20
ATOM     20  O   UNL     1       6.231   3.255   4.148  0.00  0.00    -0.455 OA
BRANCH  20  21
ATOM     21  C   UNL     1       7.570   3.310   4.074  0.00  0.00    +0.343 C 
ATOM     22  O   UNL     1       8.232   2.346   4.379  0.00  0.00    -0.247 OA
BRANCH  21  23
ATOM     23  C   UNL     1       8.248   4.574   3.611  0.00  0.00    +0.190 C 
ATOM     24  C   UNL     1       7.964   5.779   4.520  0.00  0.00    +0.059 C 
ATOM     25  C   UNL     1       9.163   5.646   5.516  0.00  0.00    +0.100 C 
ATOM     26  C   UNL     1      10.231   4.916   4.732  0.00  0.00    +0.221 C 
ATOM     27  O   UNL     1      11.374   4.754   5.104  0.00  0.00    -0.275 OA
ATOM     28  N   UNL     1       9.727   4.468   3.554  0.00  0.00    -0.245 N 
ATOM     29  C   UNL     1      10.212   4.050   2.297  0.00  0.00    +0.052 A 
ATOM     30  C   UNL     1      11.463   3.464   2.053  0.00  0.00    +0.025 A 
ATOM     31  C   UNL     1      11.843   3.112   0.777  0.00  0.00    +0.002 A 
ATOM     32  C   UNL     1      11.006   3.324  -0.303  0.00  0.00    +0.001 A 
ATOM     33  C   UNL     1       9.763   3.899  -0.089  0.00  0.00    +0.016 A 
ATOM     34  C   UNL     1       9.384   4.247   1.185  0.00  0.00    +0.032 A 
ATOM     35  S   UNL     1       7.904   4.981   1.855  0.00  0.00    -0.086 S 
ENDBRANCH  21  23
ENDBRANCH  20  21
ENDBRANCH  19  20
ENDBRANCH   4  19
TORSDOF 5
