REMARK  Name = ZINC51235485
REMARK  5 active torsions:
REMARK  status: ('A' for Active; 'I' for Inactive)
REMARK    1  A    between atoms: C_1  and  C_2
REMARK    2  A    between atoms: C_5  and  C_7
REMARK    3  A    between atoms: N_9  and  C_10
REMARK    4  A    between atoms: N_18  and  C_19
REMARK    5  A    between atoms: C_19  and  C_20
REMARK                            x       y       z     vdW  Elec       q    Type
REMARK                         _______ _______ _______ _____ _____    ______ ____
ROOT
ATOM      1  C   UNL     1       3.900  -4.162  -0.037  0.00  0.00    +0.076 C 
ATOM      2  C   UNL     1       4.125  -4.653   1.395  0.00  0.00    +0.041 C 
ATOM      3  C   UNL     1       5.055  -5.870   1.373  0.00  0.00    +0.111 C 
ATOM      4  N   UNL     1       6.287  -5.512   0.657  0.00  0.00    -0.286 N 
ATOM      5  C   UNL     1       6.179  -4.945  -0.694  0.00  0.00    +0.111 C 
ATOM      6  C   UNL     1       5.237  -3.738  -0.649  0.00  0.00    +0.041 C 
ATOM      7  C   UNL     1       7.493  -5.699   1.229  0.00  0.00    +0.302 C 
ATOM      8  O   UNL     1       7.566  -6.079   2.382  0.00  0.00    -0.253 OA
ATOM      9  N   UNL     1       8.617  -5.465   0.524  0.00  0.00    -0.299 N 
ATOM     10  H   UNL     1       8.560  -5.094  -0.370  0.00  0.00    +0.150 HD
ENDROOT
BRANCH   1  13
ATOM     11  C   UNL     1       1.653  -3.220  -0.018  0.00  0.00    +0.280 C 
ATOM     12  O   UNL     1       1.210  -4.354  -0.026  0.00  0.00    -0.267 OA
ATOM     13  N   UNL     1       2.985  -3.018  -0.022  0.00  0.00    -0.306 N 
ATOM     14  H   UNL     1       3.338  -2.114  -0.015  0.00  0.00    +0.149 HD
BRANCH  11  19
ATOM     15  C   UNL     1      -0.029   1.496   0.034  0.00  0.00    +0.086 C 
ATOM     16  C   UNL     1      -0.006  -0.011   0.020  0.00  0.00    +0.103 A 
ATOM     17  C   UNL     1      -1.093  -0.814   0.017  0.00  0.00    +0.045 A 
ATOM     18  C   UNL     1      -0.627  -2.139   0.002  0.00  0.00    +0.055 A 
ATOM     19  C   UNL     1       0.737  -2.075  -0.003  0.00  0.00    +0.189 A 
ATOM     20  O   UNL     1       1.094  -0.774   0.003  0.00  0.00    -0.455 OA
ENDBRANCH  11  19
ENDBRANCH   1  13
BRANCH   9  21
ATOM     21  C   UNL     1       9.925  -5.772   1.107  0.00  0.00    +0.109 C 
BRANCH  21  22
ATOM     22  C   UNL     1      11.026  -5.416   0.107  0.00  0.00    +0.006 C 
ATOM     23  C   UNL     1      10.965  -6.366  -1.107  0.00  0.00    +0.005 C 
ATOM     24  C   UNL     1      12.450  -6.605  -1.478  0.00  0.00    +0.000 C 
ATOM     25  C   UNL     1      13.140  -6.679  -0.093  0.00  0.00    +0.000 C 
ATOM     26  C   UNL     1      12.409  -5.615   0.751  0.00  0.00    +0.005 C 
ENDBRANCH  21  22
ENDBRANCH   9  21
TORSDOF 4
