REMARK  Name = ZINC61364269
REMARK  4 active torsions:
REMARK  status: ('A' for Active; 'I' for Inactive)
REMARK    1  A    between atoms: C_1  and  O_2
REMARK    2  A    between atoms: O_2  and  C_3
REMARK    3  A    between atoms: C_3  and  C_5
REMARK    4  A    between atoms: N_11  and  C_12
REMARK                            x       y       z     vdW  Elec       q    Type
REMARK                         _______ _______ _______ _____ _____    ______ ____
ROOT
ATOM      1  C   UNL     1       0.659  -2.076  -1.122  0.00  0.00    +0.170 A 
ATOM      2  C   UNL     1       1.286  -2.700  -2.209  0.00  0.00    +0.040 A 
ATOM      3  C   UNL     1       1.315  -4.082  -2.235  0.00  0.00    +0.047 A 
ATOM      4  C   UNL     1       0.719  -4.771  -1.177  0.00  0.00    +0.142 A 
ATOM      5  N   UNL     1       0.146  -4.097  -0.186  0.00  0.00    -0.134 NA
ATOM      6  N   UNL     1       0.121  -2.814  -0.157  0.00  0.00    -0.141 NA
ATOM      7  N   UNL     1       0.724  -6.156  -1.162  0.00  0.00    -0.321 N 
ATOM      8  H   UNL     1       0.309  -6.634  -0.427  0.00  0.00    +0.148 HD
ENDROOT
BRANCH   7   9
ATOM      9  C   UNL     1       1.355  -6.899  -2.255  0.00  0.00    +0.103 C 
ATOM     10  C   UNL     1       1.780  -8.281  -1.758  0.00  0.00    +0.027 C 
ATOM     11  C   UNL     1       2.273  -9.132  -2.932  0.00  0.00    +0.007 C 
ATOM     12  C   UNL     1       1.070  -9.497  -3.816  0.00  0.00    +0.043 C 
ATOM     13  C   UNL     1       0.274  -8.257  -4.061  0.00  0.00    -0.005 A 
ATOM     14  C   UNL     1       0.361  -7.068  -3.400  0.00  0.00    -0.017 A 
ATOM     15  C   UNL     1      -0.495  -6.052  -3.824  0.00  0.00    +0.013 A 
ATOM     16  C   UNL     1      -1.354  -6.272  -4.845  0.00  0.00    +0.046 A 
ATOM     17  S   UNL     1      -0.993  -7.976  -5.269  0.00  0.00    -0.101 S 
ENDBRANCH   7   9
BRANCH   1  18
ATOM     18  C   UNL     1       0.601  -0.602  -1.046  0.00  0.00    +0.359 C 
ATOM     19  O   UNL     1       1.093   0.071  -1.930  0.00  0.00    -0.243 OA
BRANCH  18  21
ATOM     20  C   UNL     1      -0.017   1.425   0.010  0.00  0.00    +0.280 C 
ATOM     21  O   UNL     1       0.002  -0.004   0.002  0.00  0.00    -0.463 OA
ENDBRANCH  18  21
ENDBRANCH   1  18
TORSDOF 3
