REMARK  Name = ZINC64201828
REMARK  9 active torsions:
REMARK  status: ('A' for Active; 'I' for Inactive)
REMARK    1  A    between atoms: C_1  and  C_2
REMARK    2  A    between atoms: C_2  and  O_3
REMARK    3  A    between atoms: O_3  and  C_4
REMARK    4  A    between atoms: C_4  and  C_6
REMARK    5  A    between atoms: C_7  and  C_21
REMARK    6  A    between atoms: C_12  and  C_14
REMARK    7  A    between atoms: C_21  and  O_22
REMARK    8  A    between atoms: O_22  and  C_23
REMARK    9  A    between atoms: C_23  and  C_25
REMARK                            x       y       z     vdW  Elec       q    Type
REMARK                         _______ _______ _______ _____ _____    ______ ____
ROOT
ATOM      1  C   UNL     1       1.330  -2.340  -2.530  0.00  0.00    +0.081 C 
ATOM      2  C   UNL     1       1.628  -3.654  -2.615  0.00  0.00    +0.061 C 
ATOM      3  N   UNL     1       2.352  -4.147  -3.663  0.00  0.00    -0.269 N 
ATOM      4  C   UNL     1       2.815  -3.390  -4.666  0.00  0.00    +0.304 C 
ATOM      5  O   UNL     1       3.451  -3.920  -5.556  0.00  0.00    -0.252 OA
ATOM      6  N   UNL     1       2.599  -2.061  -4.720  0.00  0.00    -0.288 N 
ATOM      7  C   UNL     1       1.823  -1.432  -3.639  0.00  0.00    +0.144 C 
ATOM      8  H   UNL     1       2.541  -5.098  -3.682  0.00  0.00    +0.156 HD
ATOM      9  H   UNL     1       2.945  -1.532  -5.456  0.00  0.00    +0.151 HD
ENDROOT
BRANCH   7  10
ATOM     10  C   UNL     1       2.683  -0.362  -3.017  0.00  0.00    -0.022 A 
ATOM     11  C   UNL     1       3.997  -0.638  -2.687  0.00  0.00    +0.007 A 
ATOM     12  C   UNL     1       4.786   0.343  -2.116  0.00  0.00    +0.020 A 
ATOM     13  C   UNL     1       4.261   1.600  -1.875  0.00  0.00    +0.041 A 
ATOM     14  C   UNL     1       2.946   1.875  -2.206  0.00  0.00    +0.020 A 
ATOM     15  C   UNL     1       2.159   0.895  -2.781  0.00  0.00    +0.007 A 
ATOM     16 CL   UNL     1       5.252   2.832  -1.158  0.00  0.00    -0.084 Cl
ENDBRANCH   7  10
BRANCH   1  17
ATOM     17  C   UNL     1       0.580  -1.828  -1.445  0.00  0.00    +0.339 C 
ATOM     18  O   UNL     1      -0.604  -1.586  -1.585  0.00  0.00    -0.245 OA
BRANCH  17  19
ATOM     19  O   UNL     1       1.178  -1.609  -0.255  0.00  0.00    -0.462 OA
BRANCH  19  21
ATOM     20  C   UNL     1       1.205  -0.910   2.058  0.00  0.00    +0.048 C 
ATOM     21  C   UNL     1       0.360  -1.092   0.796  0.00  0.00    +0.229 C 
ENDBRANCH  19  21
ENDBRANCH  17  19
ENDBRANCH   1  17
BRANCH   2  22
ATOM     22  C   UNL     1       1.153  -4.593  -1.536  0.00  0.00    +0.283 C 
BRANCH  22  23
ATOM     23  O   UNL     1       0.209  -5.513  -2.086  0.00  0.00    -0.455 OA
BRANCH  23  24
ATOM     24  C   UNL     1      -0.316  -6.427  -1.247  0.00  0.00    +0.340 C 
ATOM     25  O   UNL     1       0.019  -6.442  -0.079  0.00  0.00    -0.245 OA
BRANCH  24  26
ATOM     26  C   UNL     1      -1.299  -7.410  -1.746  0.00  0.00    +0.061 A 
ATOM     27  C   UNL     1      -1.678  -7.394  -3.091  0.00  0.00    +0.015 A 
ATOM     28  C   UNL     1      -2.598  -8.316  -3.558  0.00  0.00    +0.008 A 
ATOM     29  C   UNL     1      -3.136  -9.242  -2.701  0.00  0.00    +0.000 A 
ATOM     30  C   UNL     1      -2.772  -9.278  -1.348  0.00  0.00    +0.089 A 
ATOM     31  C   UNL     1      -1.840  -8.354  -0.875  0.00  0.00    +0.044 A 
ATOM     32  N   UNL     1      -3.455 -10.290  -0.739  0.00  0.00    -0.178 NA
ATOM     33  N   UNL     1      -4.209 -10.923  -1.479  0.00  0.00    -0.304 N 
ATOM     34  C   UNL     1      -4.135 -10.368  -2.841  0.00  0.00    +0.171 C 
ATOM     35  H   UNL     1      -4.765 -11.670  -1.207  0.00  0.00    +0.183 HD
ENDBRANCH  24  26
ENDBRANCH  23  24
ENDBRANCH  22  23
ENDBRANCH   2  22
TORSDOF 8
