REMARK  Name = ZINC02359366
REMARK  9 active torsions:
REMARK  status: ('A' for Active; 'I' for Inactive)
REMARK    1  A    between atoms: C_1  and  C_2
REMARK    2  A    between atoms: C_2  and  O_3
REMARK    3  A    between atoms: O_3  and  C_4
REMARK    4  A    between atoms: C_4  and  C_6
REMARK    5  A    between atoms: C_7  and  C_36
REMARK    6  A    between atoms: C_12  and  C_14
REMARK    7  A    between atoms: C_14  and  S_15
REMARK    8  A    between atoms: S_15  and  C_16
REMARK    9  A    between atoms: N_29  and  C_30
REMARK                            x       y       z     vdW  Elec       q    Type
REMARK                         _______ _______ _______ _____ _____    ______ ____
ROOT
ATOM      1  C   UNL     1       3.767   2.918   0.485  0.00  0.00    +0.178 A 
ATOM      2  N   UNL     1       2.448   3.045   0.539  0.00  0.00    -0.215 NA
ATOM      3  C   UNL     1       1.720   2.042   0.065  0.00  0.00    +0.117 A 
ATOM      4  C   UNL     1       2.266   0.861  -0.488  0.00  0.00    +0.076 A 
ATOM      5  C   UNL     1       1.309  -0.128  -0.957  0.00  0.00    -0.023 A 
ATOM      6  C   UNL     1      -0.000   0.182  -0.819  0.00  0.00    -0.004 A 
ATOM      7  S   UNL     1      -0.022   1.788  -0.064  0.00  0.00    -0.073 S 
ATOM      8  C   UNL     1      -1.177  -0.654  -1.218  0.00  0.00    +0.043 C 
ATOM      9  C   UNL     1      -0.688  -1.768  -2.154  0.00  0.00    +0.005 C 
ATOM     10  C   UNL     1       0.548  -2.424  -1.529  0.00  0.00    +0.005 C 
ATOM     11  C   UNL     1       1.730  -1.457  -1.579  0.00  0.00    +0.037 C 
ATOM     12  C   UNL     1       3.694   0.757  -0.530  0.00  0.00    +0.268 A 
ATOM     13  O   UNL     1       4.259  -0.222  -0.986  0.00  0.00    -0.267 OA
ATOM     14  N   UNL     1       4.379   1.814  -0.031  0.00  0.00    -0.255 N 
ENDROOT
BRANCH  14  15
ATOM     15  C   UNL     1       5.779   1.770  -0.045  0.00  0.00    +0.052 A 
ATOM     16  C   UNL     1       6.479   2.257  -1.141  0.00  0.00    +0.026 A 
ATOM     17  C   UNL     1       7.860   2.218  -1.149  0.00  0.00    +0.002 A 
ATOM     18  C   UNL     1       8.544   1.684  -0.072  0.00  0.00    +0.000 A 
ATOM     19  C   UNL     1       7.850   1.194   1.018  0.00  0.00    +0.002 A 
ATOM     20  C   UNL     1       6.469   1.235   1.034  0.00  0.00    +0.026 A 
ENDBRANCH  14  15
BRANCH   1  21
ATOM     21  S   UNL     1       4.769   4.228   1.105  0.00  0.00    -0.078 S 
BRANCH  21  22
ATOM     22  C   UNL     1       3.482   5.382   1.641  0.00  0.00    +0.173 C 
BRANCH  22  29
ATOM     23  C   UNL     1       5.443  10.725   4.158  0.00  0.00    +0.120 A 
ATOM     24  C   UNL     1       4.059  10.826   4.200  0.00  0.00    +0.062 A 
ATOM     25  N   UNL     1       3.360   9.830   3.723  0.00  0.00    -0.229 NA
ATOM     26  C   UNL     1       3.942   8.750   3.224  0.00  0.00    +0.165 A 
ATOM     27  S   UNL     1       5.631   9.116   3.403  0.00  0.00    -0.045 S 
ATOM     28  N   UNL     1       3.353   7.618   2.690  0.00  0.00    -0.264 N 
ATOM     29  C   UNL     1       4.123   6.615   2.223  0.00  0.00    +0.229 C 
ATOM     30  O   UNL     1       5.331   6.705   2.270  0.00  0.00    -0.275 OA
ATOM     31  C   UNL     1       3.385  12.047   4.771  0.00  0.00    +0.067 C 
ATOM     32  H   UNL     1       2.387   7.546   2.652  0.00  0.00    +0.157 HD
BRANCH  23  33
ATOM     33  C   UNL     1       6.463  11.670   4.606  0.00  0.00    +0.348 C 
ATOM     34  O   UNL     1       6.133  12.731   5.103  0.00  0.00    -0.244 OA
BRANCH  33  35
ATOM     35  O   UNL     1       7.771  11.367   4.470  0.00  0.00    -0.461 OA
BRANCH  35  37
ATOM     36  C   UNL     1      10.134  11.821   4.694  0.00  0.00    +0.048 C 
ATOM     37  C   UNL     1       8.713  12.338   4.930  0.00  0.00    +0.229 C 
ENDBRANCH  35  37
ENDBRANCH  33  35
ENDBRANCH  23  33
ENDBRANCH  22  29
ENDBRANCH  21  22
ENDBRANCH   1  21
TORSDOF 7
