REMARK  Name = ZINC09482139
REMARK  14 active torsions:
REMARK  status: ('A' for Active; 'I' for Inactive)
REMARK    1  A    between atoms: C_1  and  C_2
REMARK    2  A    between atoms: C_4  and  C_36
REMARK    3  A    between atoms: C_6  and  N_8
REMARK    4  A    between atoms: C_9  and  N_28
REMARK    5  A    between atoms: N_10  and  C_11
REMARK    6  A    between atoms: C_11  and  N_13
REMARK    7  A    between atoms: N_13  and  C_14
REMARK    8  A    between atoms: C_16  and  C_24
REMARK    9  A    between atoms: C_19  and  C_20
REMARK   10  A    between atoms: C_20  and  O_22
REMARK   11  A    between atoms: O_22  and  C_23
REMARK   12  A    between atoms: C_24  and  O_26
REMARK   13  A    between atoms: O_26  and  C_27
REMARK   14  A    between atoms: C_29  and  C_30
REMARK                            x       y       z     vdW  Elec       q    Type
REMARK                         _______ _______ _______ _____ _____    ______ ____
ROOT
ATOM      1  N   UNL     1       0.709  -2.542  -1.216  0.00  0.00    -0.177 NA
ATOM      2  C   UNL     1       1.756  -1.791  -0.936  0.00  0.00    +0.224 C 
ATOM      3  N   UNL     1       1.582  -0.471  -0.575  0.00  0.00    -0.266 N 
ATOM      4  H   UNL     1       2.354   0.103  -0.447  0.00  0.00    +0.157 HD
ENDROOT
BRANCH   1  10
ATOM      5  C   UNL     1       3.614  -6.331  -1.302  0.00  0.00    +0.066 C 
ATOM      6  C   UNL     1       2.253  -5.713  -1.498  0.00  0.00    +0.044 A 
ATOM      7  C   UNL     1       1.182  -6.493  -1.910  0.00  0.00    +0.046 A 
ATOM      8  C   UNL     1      -0.055  -5.888  -2.079  0.00  0.00    +0.044 A 
ATOM      9  N   UNL     1      -0.178  -4.593  -1.844  0.00  0.00    -0.216 NA
ATOM     10  C   UNL     1       0.868  -3.872  -1.450  0.00  0.00    +0.254 A 
ATOM     11  N   UNL     1       2.068  -4.423  -1.284  0.00  0.00    -0.216 NA
ATOM     12  C   UNL     1      -1.245  -6.698  -2.525  0.00  0.00    +0.066 C 
ENDBRANCH   1  10
BRANCH   3  13
ATOM     13  C   UNL     1       0.340   0.021  -0.398  0.00  0.00    +0.141 C 
ATOM     14  S   UNL     1      -1.022  -0.991  -0.623  0.00  0.00    -0.018 S 
BRANCH  13  15
ATOM     15  N   UNL     1       0.170   1.311  -0.045  0.00  0.00    -0.296 N 
ATOM     16  H   UNL     1       0.942   1.866   0.149  0.00  0.00    +0.154 HD
BRANCH  15  17
ATOM     17  C   UNL     1      -1.111   1.848   0.035  0.00  0.00    +0.047 A 
ATOM     18  C   UNL     1      -2.113   1.161   0.707  0.00  0.00    +0.039 A 
ATOM     19  C   UNL     1      -3.393   1.704   0.789  0.00  0.00    +0.061 A 
ATOM     20  C   UNL     1      -3.673   2.933   0.186  0.00  0.00    +0.016 A 
ATOM     21  C   UNL     1      -2.685   3.616  -0.486  0.00  0.00    +0.017 A 
ATOM     22  C   UNL     1      -1.397   3.082  -0.569  0.00  0.00    +0.080 A 
BRANCH  22  23
ATOM     23  C   UNL     1      -0.337   3.814  -1.289  0.00  0.00    +0.341 C 
ATOM     24  O   UNL     1       0.754   3.304  -1.448  0.00  0.00    -0.245 OA
BRANCH  23  25
ATOM     25  O   UNL     1      -0.580   5.049  -1.771  0.00  0.00    -0.464 OA
ATOM     26  C   UNL     1       0.508   5.710  -2.469  0.00  0.00    +0.280 C 
ENDBRANCH  23  25
ENDBRANCH  22  23
BRANCH  19  27
ATOM     27  C   UNL     1      -4.460   0.974   1.510  0.00  0.00    +0.339 C 
ATOM     28  O   UNL     1      -4.217  -0.094   2.034  0.00  0.00    -0.245 OA
BRANCH  27  29
ATOM     29  O   UNL     1      -5.699   1.496   1.586  0.00  0.00    -0.464 OA
ATOM     30  C   UNL     1      -6.695   0.726   2.309  0.00  0.00    +0.280 C 
ENDBRANCH  27  29
ENDBRANCH  19  27
ENDBRANCH  15  17
ENDBRANCH  13  15
ENDBRANCH   3  13
BRANCH   2  31
ATOM     31  N   UNL     1       2.998  -2.314  -1.004  0.00  0.00    -0.222 NA
ATOM     32  C   UNL     1       4.042  -1.547  -0.818  0.00  0.00    +0.122 C 
BRANCH  32  33
ATOM     33  C   UNL     1       5.395  -2.088  -1.011  0.00  0.00    -0.007 A 
ATOM     34  C   UNL     1       5.570  -3.389  -1.496  0.00  0.00    +0.009 A 
ATOM     35  C   UNL     1       6.842  -3.888  -1.679  0.00  0.00    +0.001 A 
ATOM     36  C   UNL     1       7.945  -3.108  -1.375  0.00  0.00    +0.000 A 
ATOM     37  C   UNL     1       7.781  -1.822  -0.890  0.00  0.00    +0.001 A 
ATOM     38  C   UNL     1       6.516  -1.307  -0.706  0.00  0.00    +0.009 A 
ENDBRANCH  32  33
ENDBRANCH   2  31
TORSDOF 10
