REMARK  Name = ZINC05782503
REMARK  8 active torsions:
REMARK  status: ('A' for Active; 'I' for Inactive)
REMARK    1  A    between atoms: C_1  and  C_2
REMARK    2  A    between atoms: C_2  and  C_3
REMARK    3  A    between atoms: C_3  and  C_4
REMARK    4  A    between atoms: C_4  and  C_5
REMARK    5  A    between atoms: C_5  and  N_6
REMARK    6  A    between atoms: C_16  and  S_17
REMARK    7  A    between atoms: S_17  and  C_18
REMARK    8  A    between atoms: C_18  and  C_19
REMARK                            x       y       z     vdW  Elec       q    Type
REMARK                         _______ _______ _______ _____ _____    ______ ____
ROOT
ATOM      1  N   UNL     1       1.475  -3.986  -2.532  0.00  0.00    -0.287 N 
ATOM      2  C   UNL     1       2.504  -4.646  -1.953  0.00  0.00    +0.262 A 
ATOM      3  O   UNL     1       3.420  -4.045  -1.422  0.00  0.00    -0.267 OA
ATOM      4  C   UNL     1       2.476  -6.114  -1.988  0.00  0.00    +0.065 A 
ATOM      5  C   UNL     1       3.490  -6.883  -1.418  0.00  0.00    +0.017 A 
ATOM      6  C   UNL     1       3.419  -8.246  -1.476  0.00  0.00    +0.021 A 
ATOM      7  C   UNL     1       2.346  -8.877  -2.097  0.00  0.00    +0.043 A 
ATOM      8  C   UNL     1       1.331  -8.141  -2.668  0.00  0.00    +0.048 A 
ATOM      9  C   UNL     1       1.381  -6.745  -2.621  0.00  0.00    +0.080 A 
ATOM     10  N   UNL     1       0.406  -5.982  -3.168  0.00  0.00    -0.223 NA
ATOM     11  C   UNL     1       0.452  -4.673  -3.119  0.00  0.00    +0.173 A 
ATOM     12 CL   UNL     1       2.286 -10.611  -2.155  0.00  0.00    -0.083 Cl
ENDROOT
BRANCH   1  13
ATOM     13  C   UNL     1       1.455  -2.521  -2.524  0.00  0.00    +0.127 C 
BRANCH  13  14
ATOM     14  C   UNL     1       0.739  -2.027  -1.265  0.00  0.00    +0.022 C 
BRANCH  14  15
ATOM     15  C   UNL     1       0.718  -0.497  -1.257  0.00  0.00    +0.001 C 
BRANCH  15  17
ATOM     16  C   UNL     1      -0.019   1.526   0.010  0.00  0.00    +0.004 C 
ATOM     17  C   UNL     1       0.002  -0.004   0.002  0.00  0.00    -0.003 C 
ENDBRANCH  15  17
ENDBRANCH  14  15
ENDBRANCH  13  14
ENDBRANCH   1  13
BRANCH  11  18
ATOM     18  S   UNL     1      -0.865  -3.759  -3.850  0.00  0.00    -0.073 S 
BRANCH  18  19
ATOM     19  C   UNL     1      -1.980  -5.035  -4.497  0.00  0.00    +0.195 C 
BRANCH  19  20
ATOM     20  C   UNL     1      -3.138  -4.394  -5.142  0.00  0.00    +0.074 C 
ATOM     21  N   UNL     1      -4.031  -3.900  -5.640  0.00  0.00    -0.196 NA
ENDBRANCH  19  20
ENDBRANCH  18  19
ENDBRANCH  11  18
TORSDOF 7
