REMARK  Name = ZINC42098059
REMARK  13 active torsions:
REMARK  status: ('A' for Active; 'I' for Inactive)
REMARK    1  A    between atoms: C_1  and  C_2
REMARK    2  A    between atoms: C_2  and  C_3
REMARK    3  A    between atoms: C_3  and  C_4
REMARK    4  A    between atoms: C_4  and  N_5
REMARK    5  A    between atoms: C_6  and  C_19
REMARK    6  A    between atoms: C_9  and  S_10
REMARK    7  A    between atoms: S_10  and  C_11
REMARK    8  A    between atoms: C_11  and  C_12
REMARK    9  A    between atoms: C_19  and  C_21
REMARK   10  A    between atoms: C_19  and  N_23
REMARK   11  A    between atoms: C_21  and  C_22
REMARK   12  A    between atoms: N_23  and  C_24
REMARK   13  A    between atoms: N_23  and  C_25
REMARK                            x       y       z     vdW  Elec       q    Type
REMARK                         _______ _______ _______ _____ _____    ______ ____
ROOT
ATOM      1  N   UNL     1       1.445  -2.458  -2.527  0.00  0.00    -0.307 N 
ATOM      2  C   UNL     1       0.804  -2.740  -3.701  0.00  0.00    +0.120 A 
ATOM      3  N   UNL     1       1.702  -3.177  -4.538  0.00  0.00    -0.135 NA
ATOM      4  N   UNL     1       2.859  -3.190  -3.977  0.00  0.00    -0.123 NA
ATOM      5  C   UNL     1       2.760  -2.754  -2.743  0.00  0.00    +0.192 A 
ENDROOT
BRANCH   1   6
ATOM      6  C   UNL     1       0.846  -1.940  -1.294  0.00  0.00    +0.125 C 
BRANCH   6   7
ATOM      7  C   UNL     1       0.866  -0.411  -1.321  0.00  0.00    +0.021 C 
BRANCH   7   9
ATOM      8  C   UNL     1       0.261   1.660  -0.061  0.00  0.00    +0.004 C 
ATOM      9  C   UNL     1       0.241   0.131  -0.034  0.00  0.00    -0.002 C 
ENDBRANCH   7   9
ENDBRANCH   6   7
ENDBRANCH   1   6
BRANCH   5  10
ATOM     10  S   UNL     1       4.077  -2.585  -1.583  0.00  0.00    -0.081 S 
BRANCH  10  11
ATOM     11  C   UNL     1       5.541  -3.142  -2.498  0.00  0.00    +0.114 C 
BRANCH  11  12
ATOM     12  C   UNL     1       6.754  -3.048  -1.609  0.00  0.00    -0.019 A 
ATOM     13  C   UNL     1       7.506  -1.882  -1.569  0.00  0.00    +0.009 A 
ATOM     14  C   UNL     1       8.613  -1.840  -0.737  0.00  0.00    +0.040 A 
ATOM     15  C   UNL     1       8.930  -2.954   0.021  0.00  0.00    +0.129 A 
ATOM     16  N   UNL     1       8.192  -4.046  -0.044  0.00  0.00    -0.243 NA
ATOM     17  C   UNL     1       7.128  -4.118  -0.820  0.00  0.00    +0.116 A 
ATOM     18 CL   UNL     1      10.316  -2.915   1.066  0.00  0.00    -0.062 Cl
ENDBRANCH  11  12
ENDBRANCH  10  11
ENDBRANCH   5  10
BRANCH   2  19
ATOM     19  C   UNL     1      -0.668  -2.577  -3.977  0.00  0.00    +0.000 C 
BRANCH  19  20
ATOM     20  N   UNL     1      -0.854  -1.936  -5.286  0.00  0.00    +0.383 N 
ATOM     21  C   UNL     1      -2.285  -1.705  -5.519  0.00  0.00    -0.096 C 
ATOM     22  C   UNL     1      -0.140  -0.653  -5.308  0.00  0.00    -0.096 C 
ATOM     23  H   UNL     1      -0.488  -2.537  -6.009  0.00  0.00    -0.082 HD
ENDBRANCH  19  20
BRANCH  19  24
ATOM     24  C   UNL     1      -1.342  -3.950  -3.981  0.00  0.00    -0.011 C 
ATOM     25  C   UNL     1      -1.265  -4.561  -2.580  0.00  0.00    +0.002 C 
ENDBRANCH  19  24
ENDBRANCH   2  19
TORSDOF 9
