REMARK  Name = ZINC36601514
REMARK  15 active torsions:
REMARK  status: ('A' for Active; 'I' for Inactive)
REMARK    1  A    between atoms: C_1  and  C_2
REMARK    2  A    between atoms: C_2  and  C_3
REMARK    3  A    between atoms: C_3  and  C_4
REMARK    4  A    between atoms: C_4  and  N_5
REMARK    5  A    between atoms: C_6  and  C_8
REMARK    6  A    between atoms: C_8  and  C_10
REMARK    7  A    between atoms: C_8  and  N_19
REMARK    8  A    between atoms: C_13  and  N_16
REMARK    9  A    between atoms: N_16  and  C_17
REMARK   10  A    between atoms: N_16  and  C_18
REMARK   11  A    between atoms: N_19  and  C_20
REMARK   12  A    between atoms: C_20  and  C_21
REMARK   13  A    between atoms: C_24  and  C_26
REMARK   14  A    between atoms: C_27  and  C_29
REMARK   15  A    between atoms: C_33  and  N_35
REMARK                            x       y       z     vdW  Elec       q    Type
REMARK                         _______ _______ _______ _____ _____    ______ ____
ROOT
ATOM      1  N   UNL     1       1.926  -5.202  -3.258  0.00  0.00    -0.275 N 
ATOM      2  C   UNL     1       2.362  -6.475  -3.323  0.00  0.00    +0.248 C 
ATOM      3  O   UNL     1       2.026  -7.277  -2.474  0.00  0.00    -0.270 OA
ENDROOT
BRANCH   2   4
ATOM      4  C   UNL     1       3.250  -6.897  -4.428  0.00  0.00    +0.039 A 
ATOM      5  C   UNL     1       4.140  -5.985  -4.999  0.00  0.00    +0.013 A 
ATOM      6  C   UNL     1       4.966  -6.385  -6.029  0.00  0.00    +0.003 A 
ATOM      7  C   UNL     1       4.913  -7.687  -6.496  0.00  0.00    +0.033 A 
ATOM      8  C   UNL     1       4.033  -8.595  -5.935  0.00  0.00    +0.127 A 
ATOM      9  C   UNL     1       3.206  -8.209  -4.900  0.00  0.00    +0.045 A 
BRANCH   8  10
ATOM     10  N   UNL     1       3.983  -9.985  -6.442  0.00  0.00    +0.056 N 
ATOM     11  O   UNL     1       4.711 -10.325  -7.345  0.00  0.00    -0.126 OA
ATOM     12  O   UNL     1       3.215 -10.779  -5.952  0.00  0.00    -0.126 OA
ENDBRANCH   8  10
ENDBRANCH   2   4
BRANCH   1  13
ATOM     13  C   UNL     1       2.087  -4.312  -4.411  0.00  0.00    +0.193 C 
BRANCH  13  14
ATOM     14  C   UNL     1       2.978  -3.157  -4.035  0.00  0.00    -0.018 A 
ATOM     15  C   UNL     1       3.708  -3.203  -2.861  0.00  0.00    +0.008 A 
ATOM     16  C   UNL     1       4.526  -2.146  -2.513  0.00  0.00    +0.023 A 
ATOM     17  C   UNL     1       4.615  -1.036  -3.343  0.00  0.00    +0.029 A 
ATOM     18  C   UNL     1       3.881  -0.994  -4.522  0.00  0.00    +0.023 A 
ATOM     19  C   UNL     1       3.069  -2.056  -4.867  0.00  0.00    +0.008 A 
BRANCH  17  20
ATOM     20  N   UNL     1       5.441   0.035  -2.994  0.00  0.00    -0.336 N 
ATOM     21  C   UNL     1       6.093   0.059  -1.682  0.00  0.00    +0.129 C 
ATOM     22  C   UNL     1       5.655   1.133  -3.939  0.00  0.00    +0.129 C 
ENDBRANCH  17  20
ENDBRANCH  13  14
BRANCH  13  24
ATOM     23  N   UNL     1       0.635  -2.979  -5.906  0.00  0.00    -0.313 N 
ATOM     24  C   UNL     1       0.738  -3.789  -4.834  0.00  0.00    +0.238 C 
ATOM     25  O   UNL     1      -0.255  -4.097  -4.209  0.00  0.00    -0.273 OA
ATOM     26  H   UNL     1       1.429  -2.733  -6.406  0.00  0.00    +0.149 HD
BRANCH  23  27
ATOM     27  C   UNL     1      -0.676  -2.471  -6.317  0.00  0.00    +0.104 C 
BRANCH  27  28
ATOM     28  C   UNL     1      -0.514  -1.582  -7.552  0.00  0.00    +0.018 C 
BRANCH  28  30
ATOM     29  C   UNL     1      -1.722  -0.162  -9.216  0.00  0.00    +0.004 C 
ATOM     30  C   UNL     1      -1.883  -1.051  -7.981  0.00  0.00    -0.002 C 
ENDBRANCH  28  30
ENDBRANCH  27  28
ENDBRANCH  23  27
ENDBRANCH  13  24
ENDBRANCH   1  13
BRANCH   1  31
ATOM     31  C   UNL     1       1.292  -4.707  -2.034  0.00  0.00    +0.183 C 
BRANCH  31  32
ATOM     32  C   UNL     1       0.256  -5.697  -1.569  0.00  0.00    +0.122 A 
ATOM     33  C   UNL     1       0.454  -6.680  -0.672  0.00  0.00    +0.046 A 
ATOM     34  C   UNL     1      -0.776  -7.364  -0.534  0.00  0.00    +0.045 A 
ATOM     35  C   UNL     1      -1.652  -6.758  -1.356  0.00  0.00    +0.102 A 
ATOM     36  O   UNL     1      -1.023  -5.746  -1.976  0.00  0.00    -0.463 OA
ATOM     37  C   UNL     1      -3.096  -7.146  -1.545  0.00  0.00    +0.086 C 
ENDBRANCH  31  32
ENDBRANCH   1  31
TORSDOF 11
