REMARK  Name = ZINC39673398
REMARK  7 active torsions:
REMARK  status: ('A' for Active; 'I' for Inactive)
REMARK    1  A    between atoms: C_3  and  O_36
REMARK    2  A    between atoms: C_6  and  C_7
REMARK    3  A    between atoms: C_7  and  N_8
REMARK    4  A    between atoms: C_9  and  C_11
REMARK    5  A    between atoms: C_22  and  C_24
REMARK    6  A    between atoms: C_27  and  C_29
REMARK    7  A    between atoms: O_36  and  C_37
REMARK                            x       y       z     vdW  Elec       q    Type
REMARK                         _______ _______ _______ _____ _____    ______ ____
ROOT
ATOM      1  C   UNL     1      -3.314  -1.941  -3.024  0.00  0.00    +0.100 C 
ATOM      2  C   UNL     1      -3.720  -0.613  -3.701  0.00  0.00    +0.121 C 
ATOM      3  N   UNL     1      -4.886  -0.965  -4.547  0.00  0.00    -0.294 N 
ATOM      4  C   UNL     1      -5.660  -1.926  -3.725  0.00  0.00    +0.115 C 
ATOM      5  C   UNL     1      -4.590  -2.799  -3.041  0.00  0.00    -0.004 C 
ATOM      6  C   UNL     1      -4.358  -4.075  -3.845  0.00  0.00    -0.010 C 
ATOM      7  C   UNL     1      -5.622  -4.938  -3.800  0.00  0.00    -0.082 C 
ATOM      8  N   UNL     1      -5.943  -5.266  -2.406  0.00  0.00    +0.379 N 
ATOM      9  C   UNL     1      -6.255  -4.040  -1.662  0.00  0.00    -0.082 C 
ATOM     10  C   UNL     1      -5.018  -3.139  -1.617  0.00  0.00    -0.010 C 
ATOM     11  C   UNL     1      -5.176  -0.513  -5.783  0.00  0.00    +0.282 C 
ATOM     12  O   UNL     1      -6.180  -0.900  -6.352  0.00  0.00    -0.267 OA
ATOM     13  H   UNL     1      -6.740  -5.885  -2.382  0.00  0.00    -0.086 HD
ATOM     14  H   UNL     1      -5.152  -5.725  -1.979  0.00  0.00    -0.086 HD
ENDROOT
BRANCH  11  15
ATOM     15  C   UNL     1      -4.283   0.443  -6.442  0.00  0.00    +0.190 A 
ATOM     16  C   UNL     1      -4.462   0.986  -7.695  0.00  0.00    +0.055 A 
ATOM     17  C   UNL     1      -3.380   1.842  -7.923  0.00  0.00    +0.050 A 
ATOM     18  C   UNL     1      -2.587   1.790  -6.812  0.00  0.00    +0.136 A 
ATOM     19  O   UNL     1      -3.143   0.949  -5.925  0.00  0.00    -0.450 OA
BRANCH  18  20
ATOM     20  C   UNL     1      -1.329   2.540  -6.617  0.00  0.00    +0.017 A 
ATOM     21  C   UNL     1      -0.861   3.395  -7.617  0.00  0.00    +0.014 A 
ATOM     22  C   UNL     1       0.314   4.093  -7.428  0.00  0.00    +0.039 A 
ATOM     23  C   UNL     1       1.029   3.946  -6.250  0.00  0.00    +0.123 A 
ATOM     24  C   UNL     1       0.569   3.098  -5.255  0.00  0.00    +0.039 A 
ATOM     25  C   UNL     1      -0.607   2.400  -5.430  0.00  0.00    +0.014 A 
ATOM     26  F   UNL     1       2.179   4.631  -6.071  0.00  0.00    -0.205 F 
ENDBRANCH  18  20
ENDBRANCH  11  15
BRANCH   1  28
ATOM     27  N   UNL     1      -1.970  -2.514  -1.028  0.00  0.00    -0.311 N 
ATOM     28  C   UNL     1      -2.868  -1.692  -1.606  0.00  0.00    +0.218 C 
ATOM     29  O   UNL     1      -3.318  -0.752  -0.986  0.00  0.00    -0.275 OA
ATOM     30  H   UNL     1      -1.611  -3.266  -1.524  0.00  0.00    +0.149 HD
BRANCH  27  31
ATOM     31  C   UNL     1      -1.537  -2.272   0.350  0.00  0.00    +0.139 C 
BRANCH  31  37
ATOM     32  C   UNL     1       0.812  -3.115   0.538  0.00  0.00    +0.009 A 
ATOM     33  C   UNL     1       1.730  -4.079   0.909  0.00  0.00    +0.046 A 
ATOM     34  C   UNL     1       1.296  -5.258   1.499  0.00  0.00    +0.127 A 
ATOM     35  C   UNL     1      -0.058  -5.465   1.715  0.00  0.00    +0.046 A 
ATOM     36  C   UNL     1      -0.972  -4.498   1.343  0.00  0.00    +0.009 A 
ATOM     37  C   UNL     1      -0.538  -3.325   0.755  0.00  0.00    -0.030 A 
BRANCH  34  38
ATOM     38  O   UNL     1       2.197  -6.207   1.864  0.00  0.00    -0.434 OA
BRANCH  38  39
ATOM     39  C   UNL     1       1.679  -7.396   2.466  0.00  0.00    +0.541 C 
ATOM     40  F   UNL     1       0.989  -7.063   3.636  0.00  0.00    -0.166 F 
ATOM     41  F   UNL     1       0.807  -8.028   1.573  0.00  0.00    -0.166 F 
ENDBRANCH  38  39
ENDBRANCH  34  38
ENDBRANCH  31  37
ENDBRANCH  27  31
ENDBRANCH   1  28
TORSDOF 7
