REMARK  Name = ZINC35832522
REMARK  12 active torsions:
REMARK  status: ('A' for Active; 'I' for Inactive)
REMARK    1  A    between atoms: C_1  and  C_2
REMARK    2  A    between atoms: C_5  and  C_32
REMARK    3  A    between atoms: C_6  and  C_8
REMARK    4  A    between atoms: N_13  and  C_23
REMARK    5  A    between atoms: C_14  and  C_22
REMARK    6  A    between atoms: C_15  and  C_16
REMARK    7  A    between atoms: C_16  and  O_18
REMARK    8  A    between atoms: O_18  and  C_19
REMARK    9  A    between atoms: C_19  and  C_20
REMARK   10  A    between atoms: C_19  and  C_21
REMARK   11  A    between atoms: C_23  and  C_24
REMARK   12  A    between atoms: C_28  and  C_30
REMARK                            x       y       z     vdW  Elec       q    Type
REMARK                         _______ _______ _______ _____ _____    ______ ____
ROOT
ATOM      1  C   UNL     1       0.090  -3.265   2.631  0.00  0.00    +0.066 C 
ATOM      2  C   UNL     1      -1.034  -3.063   3.649  0.00  0.00    +0.109 C 
ATOM      3  C   UNL     1      -0.708  -1.881   4.525  0.00  0.00    +0.221 C 
ATOM      4  O   UNL     1      -1.596  -1.148   4.905  0.00  0.00    -0.275 OA
ATOM      5  N   UNL     1       0.564  -1.638   4.888  0.00  0.00    -0.271 N 
ATOM      6  C   UNL     1       1.595  -2.390   4.393  0.00  0.00    +0.021 C 
ATOM      7  C   UNL     1       1.421  -3.198   3.333  0.00  0.00    +0.061 C 
ATOM      8  C   UNL     1       2.949  -2.312   5.048  0.00  0.00    +0.061 C 
ENDROOT
BRANCH   1  14
ATOM      9  C   UNL     1       0.365   1.570   1.369  0.00  0.00    +0.044 C 
ATOM     10  C   UNL     1       0.150   0.130   0.980  0.00  0.00    -0.050 A 
ATOM     11  C   UNL     1      -0.111  -0.199  -0.337  0.00  0.00    +0.003 A 
ATOM     12  C   UNL     1      -0.308  -1.520  -0.694  0.00  0.00    +0.004 A 
ATOM     13  C   UNL     1      -0.243  -2.512   0.267  0.00  0.00    -0.047 A 
ATOM     14  C   UNL     1       0.019  -2.183   1.583  0.00  0.00    -0.036 A 
ATOM     15  C   UNL     1       0.221  -0.863   1.939  0.00  0.00    +0.008 A 
ATOM     16  C   UNL     1      -0.459  -3.952  -0.121  0.00  0.00    +0.044 C 
ENDBRANCH   1  14
BRANCH   7  17
ATOM     17  C   UNL     1       2.498  -3.992   2.872  0.00  0.00    +0.337 C 
ATOM     18  O   UNL     1       3.576  -3.942   3.436  0.00  0.00    -0.245 OA
BRANCH  17  19
ATOM     19  O   UNL     1       2.331  -4.805   1.808  0.00  0.00    -0.459 OA
BRANCH  19  20
ATOM     20  C   UNL     1       3.460  -5.578   1.398  0.00  0.00    +0.171 C 
ATOM     21  C   UNL     1       3.453  -6.921   2.131  0.00  0.00    +0.052 C 
ATOM     22  C   UNL     1       3.391  -5.820  -0.111  0.00  0.00    +0.052 C 
ENDBRANCH  19  20
ENDBRANCH  17  19
ENDBRANCH   7  17
BRANCH   5  23
ATOM     23  C   UNL     1       0.851  -0.551   5.827  0.00  0.00    +0.148 C 
BRANCH  23  24
ATOM     24  C   UNL     1       1.237   0.687   5.059  0.00  0.00    -0.028 A 
ATOM     25  C   UNL     1       2.537   0.845   4.613  0.00  0.00    +0.005 A 
ATOM     26  C   UNL     1       2.900   1.979   3.908  0.00  0.00    +0.002 A 
ATOM     27  C   UNL     1       1.966   2.960   3.644  0.00  0.00    +0.019 A 
ATOM     28  C   UNL     1       0.653   2.807   4.091  0.00  0.00    +0.052 A 
ATOM     29  C   UNL     1       0.292   1.658   4.799  0.00  0.00    +0.024 A 
BRANCH  28  30
ATOM     30  C   UNL     1      -0.322   3.821   3.822  0.00  0.00    +0.099 C 
ATOM     31  N   UNL     1      -1.095   4.625   3.608  0.00  0.00    -0.191 NA
ENDBRANCH  28  30
ENDBRANCH  23  24
ENDBRANCH   5  23
TORSDOF 7
