REMARK  Name = ZINC39354193
REMARK  7 active torsions:
REMARK  status: ('A' for Active; 'I' for Inactive)
REMARK    1  A    between atoms: C_2  and  C_3
REMARK    2  A    between atoms: C_3  and  N_4
REMARK    3  A    between atoms: C_5  and  C_25
REMARK    4  A    between atoms: C_9  and  S_11
REMARK    5  A    between atoms: S_11  and  C_12
REMARK    6  A    between atoms: C_12  and  C_13
REMARK    7  A    between atoms: C_30  and  O_31
REMARK                            x       y       z     vdW  Elec       q    Type
REMARK                         _______ _______ _______ _____ _____    ______ ____
ROOT
ATOM      1  N   UNL     1      -1.295  -1.744  -1.233  0.00  0.00    -0.242 NA
ATOM      2  C   UNL     1      -2.562  -2.511  -1.127  0.00  0.00    +0.205 C 
ATOM      3  N   UNL     1      -3.040  -2.636  -2.510  0.00  0.00    -0.289 N 
ATOM      4  N   UNL     1      -2.468  -1.834  -3.255  0.00  0.00    -0.184 NA
ATOM      5  C   UNL     1      -1.497  -1.019  -2.513  0.00  0.00    +0.257 C 
ATOM      6  H   UNL     1      -3.717  -3.266  -2.800  0.00  0.00    +0.184 HD
ENDROOT
BRANCH   2   7
ATOM      7  C   UNL     1      -2.303  -3.872  -0.534  0.00  0.00    +0.033 A 
ATOM      8  C   UNL     1      -1.054  -4.452  -0.652  0.00  0.00    +0.026 A 
ATOM      9  C   UNL     1      -0.816  -5.701  -0.108  0.00  0.00    +0.018 A 
ATOM     10  C   UNL     1      -1.828  -6.372   0.556  0.00  0.00    +0.019 A 
ATOM     11  C   UNL     1      -3.077  -5.796   0.677  0.00  0.00    +0.047 A 
ATOM     12  C   UNL     1      -3.316  -4.541   0.136  0.00  0.00    +0.123 A 
ATOM     13 BR   UNL     1       0.893  -6.492  -0.272  0.00  0.00    -0.050 Br
BRANCH  12  14
ATOM     14  O   UNL     1      -4.544  -3.970   0.258  0.00  0.00    -0.506 OA
ATOM     15  H   UNL     1      -5.174  -4.244  -0.422  0.00  0.00    +0.292 HD
ENDBRANCH  12  14
ENDBRANCH   2   7
BRANCH   1  16
ATOM     16  C   UNL     1      -1.153  -0.804  -0.113  0.00  0.00    +0.116 C 
BRANCH  16  18
ATOM     17  C   UNL     1       0.188   1.232  -0.241  0.00  0.00    +0.005 C 
ATOM     18  C   UNL     1       0.162  -0.077  -0.230  0.00  0.00    -0.019 C 
ENDBRANCH  16  18
ENDBRANCH   1  16
BRANCH   5  19
ATOM     19  S   UNL     1       0.064  -0.906  -3.429  0.00  0.00    -0.109 S 
BRANCH  19  20
ATOM     20  C   UNL     1       0.537  -2.636  -3.704  0.00  0.00    +0.146 C 
BRANCH  20  21
ATOM     21  C   UNL     1       1.836  -2.687  -4.466  0.00  0.00    +0.120 A 
ATOM     22  N   UNL     1       2.355  -3.904  -4.775  0.00  0.00    -0.310 N 
ATOM     23  H   UNL     1       1.887  -4.708  -4.503  0.00  0.00    +0.170 HD
ATOM     24  C   UNL     1       3.519  -4.003  -5.458  0.00  0.00    +0.259 A 
ATOM     25  O   UNL     1       3.995  -5.086  -5.742  0.00  0.00    -0.267 OA
ATOM     26  C   UNL     1       4.186  -2.751  -5.845  0.00  0.00    +0.065 A 
ATOM     27  C   UNL     1       5.388  -2.743  -6.550  0.00  0.00    +0.015 A 
ATOM     28  C   UNL     1       5.970  -1.540  -6.886  0.00  0.00    +0.001 A 
ATOM     29  C   UNL     1       5.369  -0.340  -6.529  0.00  0.00    +0.002 A 
ATOM     30  C   UNL     1       4.181  -0.326  -5.832  0.00  0.00    +0.028 A 
ATOM     31  C   UNL     1       3.572  -1.532  -5.480  0.00  0.00    +0.078 A 
ATOM     32  N   UNL     1       2.399  -1.565  -4.798  0.00  0.00    -0.233 NA
ENDBRANCH  20  21
ENDBRANCH  19  20
ENDBRANCH   5  19
TORSDOF 7
