REMARK  Name = ZINC24106052
REMARK  9 active torsions:
REMARK  status: ('A' for Active; 'I' for Inactive)
REMARK    1  A    between atoms: C_1  and  C_2
REMARK    2  A    between atoms: C_2  and  C_3
REMARK    3  A    between atoms: C_3  and  N_4
REMARK    4  A    between atoms: N_4  and  C_5
REMARK    5  A    between atoms: N_4  and  C_22
REMARK    6  A    between atoms: C_5  and  C_6
REMARK    7  A    between atoms: C_12  and  C_17
REMARK    8  A    between atoms: C_22  and  C_23
REMARK    9  A    between atoms: C_26  and  C_28
REMARK                            x       y       z     vdW  Elec       q    Type
REMARK                         _______ _______ _______ _____ _____    ______ ____
ROOT
ATOM      1  C   UNL     1       2.415   4.140  -0.530  0.00  0.00    -0.003 C 
ENDROOT
BRANCH   1   2
ATOM      2  C   UNL     1       1.079   3.536  -0.879  0.00  0.00    +0.094 A 
ATOM      3  N   UNL     1       1.018   2.245  -1.294  0.00  0.00    -0.312 N 
ATOM      4  H   UNL     1       1.939   1.649  -1.373  0.00  0.00    +0.170 HD
ATOM      5  C   UNL     1      -0.154   1.669  -1.616  0.00  0.00    +0.260 A 
ATOM      6  O   UNL     1      -0.192   0.508  -1.988  0.00  0.00    -0.267 OA
ATOM      7  C   UNL     1      -1.356   2.440  -1.520  0.00  0.00    +0.083 A 
ATOM      8  C   UNL     1      -2.732   2.044  -1.801  0.00  0.00    +0.039 A 
ATOM      9  C   UNL     1      -3.720   2.958  -1.629  0.00  0.00    +0.059 A 
ATOM     10  S   UNL     1      -2.849   4.408  -1.068  0.00  0.00    -0.076 S 
ATOM     11  C   UNL     1      -1.196   3.763  -1.077  0.00  0.00    +0.116 A 
ATOM     12  N   UNL     1      -0.001   4.264  -0.777  0.00  0.00    -0.229 NA
BRANCH   8  13
ATOM     13  C   UNL     1      -3.042   0.678  -2.269  0.00  0.00    +0.136 A 
ATOM     14  C   UNL     1      -3.987  -0.149  -1.748  0.00  0.00    +0.050 A 
ATOM     15  C   UNL     1      -3.942  -1.342  -2.499  0.00  0.00    +0.042 A 
ATOM     16  C   UNL     1      -2.975  -1.189  -3.424  0.00  0.00    +0.196 A 
ATOM     17  O   UNL     1      -2.433   0.033  -3.283  0.00  0.00    -0.463 OA
ENDBRANCH   8  13
ENDBRANCH   1   2
BRANCH   1  18
ATOM     18  N   UNL     1       2.227   5.535  -0.110  0.00  0.00    +0.390 N 
ATOM     19  H   UNL     1       1.641   6.046  -0.889  0.00  0.00    -0.081 HD
BRANCH  18  20
ATOM     20  C   UNL     1       1.471   5.610   1.147  0.00  0.00    -0.078 C 
BRANCH  20  22
ATOM     21  C   UNL     1       1.443   4.941   3.554  0.00  0.00    +0.002 C 
ATOM     22  C   UNL     1       2.237   4.874   2.248  0.00  0.00    -0.022 C 
ENDBRANCH  20  22
ENDBRANCH  18  20
BRANCH  18  23
ATOM     23  C   UNL     1       3.518   6.227   0.010  0.00  0.00    +0.021 C 
BRANCH  23  24
ATOM     24  C   UNL     1       3.287   7.715   0.061  0.00  0.00    +0.202 A 
ATOM     25  N   UNL     1       3.113   8.430   1.137  0.00  0.00    -0.114 NA
ATOM     26  N   UNL     1       2.947   9.664   0.813  0.00  0.00    -0.107 NA
ATOM     27  C   UNL     1       3.001   9.779  -0.496  0.00  0.00    +0.255 A 
ATOM     28  O   UNL     1       3.217   8.545  -0.996  0.00  0.00    -0.422 OA
BRANCH  27  29
ATOM     29  C   UNL     1       2.853  11.021  -1.270  0.00  0.00    +0.076 A 
ATOM     30  C   UNL     1       2.626  12.308  -0.819  0.00  0.00    +0.021 A 
ATOM     31  C   UNL     1       2.527  13.319  -1.746  0.00  0.00    +0.008 A 
ATOM     32  C   UNL     1       2.644  13.023  -3.067  0.00  0.00    +0.046 A 
ATOM     33  S   UNL     1       2.913  11.259  -3.039  0.00  0.00    -0.092 S 
ENDBRANCH  27  29
ENDBRANCH  23  24
ENDBRANCH  18  23
ENDBRANCH   1  18
TORSDOF 8
