REMARK  Name = ZINC00913762
REMARK  11 active torsions:
REMARK  status: ('A' for Active; 'I' for Inactive)
REMARK    1  A    between atoms: C_1  and  C_2
REMARK    2  A    between atoms: C_2  and  O_3
REMARK    3  A    between atoms: O_3  and  C_4
REMARK    4  A    between atoms: C_4  and  C_6
REMARK    5  A    between atoms: C_9  and  S_12
REMARK    6  A    between atoms: S_12  and  N_15
REMARK    7  A    between atoms: N_15  and  C_16
REMARK    8  A    between atoms: N_15  and  C_26
REMARK    9  A    between atoms: C_16  and  C_17
REMARK   10  A    between atoms: C_26  and  C_27
REMARK   11  A    between atoms: C_32  and  C_39
REMARK                            x       y       z     vdW  Elec       q    Type
REMARK                         _______ _______ _______ _____ _____    ______ ____
ROOT
ATOM      1  N   UNL     1       6.097  -0.969   0.847  0.00  0.00    -0.168 NA
ENDROOT
BRANCH   1   2
ATOM      2  S   UNL     1       6.873   0.388   0.301  0.00  0.00    +0.061 S 
ATOM      3  O   UNL     1       6.963   0.264  -1.112  0.00  0.00    -0.153 OA
ATOM      4  O   UNL     1       6.245   1.496   0.930  0.00  0.00    -0.153 OA
BRANCH   2   8
ATOM      5  C   UNL     1      11.116   0.235   1.885  0.00  0.00    +0.059 A 
ATOM      6  C   UNL     1      10.786  -0.423   0.699  0.00  0.00    +0.017 A 
ATOM      7  C   UNL     1       9.493  -0.373   0.222  0.00  0.00    +0.029 A 
ATOM      8  C   UNL     1       8.523   0.328   0.917  0.00  0.00    +0.106 A 
ATOM      9  C   UNL     1       8.844   0.987   2.091  0.00  0.00    +0.029 A 
ATOM     10  C   UNL     1      10.133   0.941   2.581  0.00  0.00    +0.017 A 
BRANCH   5  11
ATOM     11  C   UNL     1      12.499   0.185   2.402  0.00  0.00    +0.339 C 
ATOM     12  O   UNL     1      13.352  -0.430   1.794  0.00  0.00    -0.245 OA
BRANCH  11  13
ATOM     13  O   UNL     1      12.814   0.821   3.546  0.00  0.00    -0.461 OA
BRANCH  13  15
ATOM     14  C   UNL     1      14.357   1.508   5.301  0.00  0.00    +0.048 C 
ATOM     15  C   UNL     1      14.192   0.729   3.994  0.00  0.00    +0.229 C 
ENDBRANCH  13  15
ENDBRANCH  11  13
ENDBRANCH   5  11
ENDBRANCH   2   8
ENDBRANCH   1   2
BRANCH   1  16
ATOM     16  C   UNL     1       5.291  -0.911   2.069  0.00  0.00    +0.145 C 
BRANCH  16  17
ATOM     17  C   UNL     1       6.127  -1.350   3.244  0.00  0.00    -0.028 A 
ATOM     18  C   UNL     1       6.776  -0.408   4.019  0.00  0.00    +0.009 A 
ATOM     19  C   UNL     1       7.544  -0.806   5.097  0.00  0.00    +0.050 A 
ATOM     20  C   UNL     1       7.665  -2.152   5.404  0.00  0.00    +0.166 A 
ATOM     21  C   UNL     1       7.010  -3.101   4.622  0.00  0.00    +0.167 A 
ATOM     22  C   UNL     1       6.242  -2.695   3.543  0.00  0.00    +0.054 A 
ATOM     23  O   UNL     1       7.283  -4.341   5.123  0.00  0.00    -0.453 OA
ATOM     24  C   UNL     1       7.776  -4.117   6.457  0.00  0.00    +0.466 C 
ATOM     25  O   UNL     1       8.348  -2.797   6.394  0.00  0.00    -0.453 OA
ENDBRANCH  16  17
ENDBRANCH   1  16
BRANCH   1  26
ATOM     26  C   UNL     1       6.217  -2.229   0.108  0.00  0.00    +0.150 C 
BRANCH  26  27
ATOM     27  C   UNL     1       5.051  -2.369  -0.837  0.00  0.00    +0.033 A 
ATOM     28  C   UNL     1       5.176  -1.971  -2.127  0.00  0.00    +0.020 A 
ATOM     29  C   UNL     1       4.025  -2.121  -3.020  0.00  0.00    -0.001 A 
ATOM     30  C   UNL     1       4.094  -1.729  -4.361  0.00  0.00    +0.010 A 
ATOM     31  C   UNL     1       3.002  -1.883  -5.168  0.00  0.00    +0.004 A 
ATOM     32  C   UNL     1       1.825  -2.425  -4.668  0.00  0.00    -0.048 A 
ATOM     33  C   UNL     1       1.735  -2.818  -3.351  0.00  0.00    +0.029 A 
ATOM     34  C   UNL     1       2.834  -2.671  -2.510  0.00  0.00    +0.049 A 
ATOM     35  N   UNL     1       2.772  -3.057  -1.188  0.00  0.00    -0.322 N 
ATOM     36  H   UNL     1       1.924  -3.444  -0.827  0.00  0.00    +0.169 HD
ATOM     37  C   UNL     1       3.836  -2.920  -0.377  0.00  0.00    +0.254 A 
ATOM     38  O   UNL     1       3.747  -3.276   0.785  0.00  0.00    -0.268 OA
ATOM     39  C   UNL     1       0.634  -2.585  -5.577  0.00  0.00    +0.044 C 
ENDBRANCH  26  27
ENDBRANCH   1  26
TORSDOF 9
