REMARK  Name = ZINC09465478
REMARK  7 active torsions:
REMARK  status: ('A' for Active; 'I' for Inactive)
REMARK    1  A    between atoms: C_1  and  C_2
REMARK    2  A    between atoms: C_4  and  C_28
REMARK    3  A    between atoms: C_6  and  S_10
REMARK    4  A    between atoms: C_7  and  C_8
REMARK    5  A    between atoms: S_10  and  C_11
REMARK    6  A    between atoms: C_11  and  C_12
REMARK    7  A    between atoms: C_18  and  C_23
REMARK                            x       y       z     vdW  Elec       q    Type
REMARK                         _______ _______ _______ _____ _____    ______ ____
ROOT
ATOM      1  C   UNL     1       0.096  -5.715   3.259  0.00  0.00    +0.121 A 
ATOM      2  N   UNL     1       0.118  -7.059   3.065  0.00  0.00    -0.310 N 
ATOM      3  H   UNL     1       0.123  -7.408   2.160  0.00  0.00    +0.170 HD
ATOM      4  C   UNL     1       0.136  -7.915   4.103  0.00  0.00    +0.260 A 
ATOM      5  O   UNL     1       0.157  -9.119   3.912  0.00  0.00    -0.267 OA
ATOM      6  C   UNL     1       0.129  -7.391   5.435  0.00  0.00    +0.083 A 
ATOM      7  C   UNL     1       0.144  -8.105   6.707  0.00  0.00    +0.039 A 
ATOM      8  C   UNL     1       0.134  -7.384   7.858  0.00  0.00    +0.059 A 
ATOM      9  S   UNL     1       0.103  -5.696   7.287  0.00  0.00    -0.076 S 
ATOM     10  C   UNL     1       0.104  -5.991   5.538  0.00  0.00    +0.116 A 
ATOM     11  N   UNL     1       0.094  -5.207   4.463  0.00  0.00    -0.226 NA
ENDROOT
BRANCH   7  12
ATOM     12  C   UNL     1       0.170  -9.581   6.743  0.00  0.00    +0.136 A 
ATOM     13  C   UNL     1       1.025 -10.347   7.472  0.00  0.00    +0.050 A 
ATOM     14  C   UNL     1       0.694 -11.691   7.206  0.00  0.00    +0.042 A 
ATOM     15  C   UNL     1      -0.335 -11.680   6.337  0.00  0.00    +0.196 A 
ATOM     16  O   UNL     1      -0.653 -10.402   6.064  0.00  0.00    -0.463 OA
ENDBRANCH   7  12
BRANCH   1  17
ATOM     17  C   UNL     1       0.078  -4.794   2.067  0.00  0.00    +0.150 C 
BRANCH  17  18
ATOM     18  S   UNL     1       0.057  -3.071   2.633  0.00  0.00    -0.097 S 
BRANCH  18  24
ATOM     19  C   UNL     1      -0.018   1.503   0.010  0.00  0.00    +0.045 C 
ATOM     20  C   UNL     1       0.002  -0.004   0.002  0.00  0.00    -0.029 A 
ATOM     21  C   UNL     1       0.006  -0.707  -1.191  0.00  0.00    +0.027 A 
ATOM     22  C   UNL     1       0.025  -2.089  -1.167  0.00  0.00    +0.040 A 
ATOM     23  N   UNL     1       0.040  -2.754  -0.028  0.00  0.00    -0.244 NA
ATOM     24  C   UNL     1       0.037  -2.133   1.142  0.00  0.00    +0.115 A 
ATOM     25  C   UNL     1       0.023  -0.727   1.200  0.00  0.00    +0.086 A 
ATOM     26  C   UNL     1       0.029  -2.851  -2.467  0.00  0.00    +0.065 C 
BRANCH  25  27
ATOM     27  C   UNL     1       0.026  -0.049   2.461  0.00  0.00    +0.102 C 
ATOM     28  N   UNL     1       0.028   0.489   3.462  0.00  0.00    -0.191 NA
ENDBRANCH  25  27
ENDBRANCH  18  24
ENDBRANCH  17  18
ENDBRANCH   1  17
TORSDOF 5
