REMARK  Name = ZINC09282547
REMARK  12 active torsions:
REMARK  status: ('A' for Active; 'I' for Inactive)
REMARK    1  A    between atoms: C_1  and  C_2
REMARK    2  A    between atoms: C_2  and  C_3
REMARK    3  A    between atoms: C_3  and  C_4
REMARK    4  A    between atoms: C_4  and  O_5
REMARK    5  A    between atoms: O_5  and  C_6
REMARK    6  A    between atoms: C_9  and  C_12
REMARK    7  A    between atoms: C_12  and  C_13
REMARK    8  A    between atoms: C_14  and  C_31
REMARK    9  A    between atoms: C_23  and  C_30
REMARK   10  A    between atoms: C_24  and  C_26
REMARK   11  A    between atoms: C_26  and  O_28
REMARK   12  A    between atoms: O_28  and  C_29
REMARK                            x       y       z     vdW  Elec       q    Type
REMARK                         _______ _______ _______ _____ _____    ______ ____
ROOT
ATOM      1  C   UNL     1      -6.167   2.791   3.574  0.00  0.00    +0.077 C 
ATOM      2  C   UNL     1      -4.691   2.607   3.840  0.00  0.00    +0.153 C 
ATOM      3  N   UNL     1      -4.172   1.764   2.759  0.00  0.00    -0.232 N 
ATOM      4  C   UNL     1      -5.180   1.449   1.929  0.00  0.00    +0.293 C 
ATOM      5  O   UNL     1      -5.074   0.756   0.937  0.00  0.00    -0.266 OA
ATOM      6  C   UNL     1      -6.445   2.071   2.402  0.00  0.00    +0.250 C 
ATOM      7  O   UNL     1      -7.534   1.972   1.866  0.00  0.00    -0.282 OA
ATOM      8  C   UNL     1      -2.859   1.355   2.620  0.00  0.00    +0.169 A 
ATOM      9  N   UNL     1      -2.323   0.597   1.675  0.00  0.00    -0.229 NA
ATOM     10  C   UNL     1      -1.053   0.290   1.681  0.00  0.00    +0.062 A 
ATOM     11  C   UNL     1      -0.271   0.795   2.712  0.00  0.00    +0.120 A 
ATOM     12  S   UNL     1      -1.497   1.710   3.636  0.00  0.00    -0.045 S 
ATOM     13  C   UNL     1      -0.456  -0.577   0.603  0.00  0.00    +0.067 C 
ENDROOT
BRANCH   2  14
ATOM     14  C   UNL     1      -4.484   1.928   5.169  0.00  0.00    -0.004 A 
ATOM     15  C   UNL     1      -4.115   2.665   6.284  0.00  0.00    +0.009 A 
ATOM     16  C   UNL     1      -3.940   1.999   7.487  0.00  0.00    +0.020 A 
ATOM     17  C   UNL     1      -4.128   0.630   7.533  0.00  0.00    +0.111 A 
ATOM     18  N   UNL     1      -4.473  -0.039   6.451  0.00  0.00    -0.263 NA
ATOM     19  C   UNL     1      -4.653   0.562   5.291  0.00  0.00    +0.116 A 
ENDBRANCH   2  14
BRANCH   1  20
ATOM     20  C   UNL     1      -7.064   3.517   4.334  0.00  0.00    +0.195 C 
ATOM     21  O   UNL     1      -6.674   4.049   5.513  0.00  0.00    -0.287 OA
BRANCH  20  25
ATOM     22  C   UNL     1     -11.040   4.079   2.966  0.00  0.00    +0.121 A 
ATOM     23  C   UNL     1     -10.810   3.601   4.251  0.00  0.00    +0.046 A 
ATOM     24  C   UNL     1      -9.523   3.417   4.700  0.00  0.00    +0.015 A 
ATOM     25  C   UNL     1      -8.442   3.712   3.859  0.00  0.00    +0.022 A 
ATOM     26  C   UNL     1      -8.678   4.197   2.568  0.00  0.00    +0.015 A 
ATOM     27  C   UNL     1      -9.970   4.372   2.127  0.00  0.00    +0.046 A 
BRANCH  22  28
ATOM     28  O   UNL     1     -12.312   4.258   2.528  0.00  0.00    -0.492 OA
BRANCH  28  29
ATOM     29  C   UNL     1     -12.476   4.752   1.197  0.00  0.00    +0.229 C 
BRANCH  29  30
ATOM     30  C   UNL     1     -13.968   4.889   0.884  0.00  0.00    +0.041 C 
BRANCH  30  32
ATOM     31  C   UNL     1     -15.635   5.554  -0.853  0.00  0.00    +0.004 C 
ATOM     32  C   UNL     1     -14.144   5.417  -0.541  0.00  0.00    -0.000 C 
ENDBRANCH  30  32
ENDBRANCH  29  30
ENDBRANCH  28  29
ENDBRANCH  22  28
ENDBRANCH  20  25
ENDBRANCH   1  20
BRANCH  11  33
ATOM     33  C   UNL     1       1.157   0.625   2.970  0.00  0.00    +0.347 C 
ATOM     34  O   UNL     1       1.836  -0.046   2.215  0.00  0.00    -0.244 OA
BRANCH  33  35
ATOM     35  O   UNL     1       1.724   1.211   4.045  0.00  0.00    -0.464 OA
ATOM     36  C   UNL     1       3.124   1.002   4.235  0.00  0.00    +0.280 C 
ENDBRANCH  33  35
ENDBRANCH  11  33
TORSDOF 9
