REMARK  Name = ZINC63138912
REMARK  10 active torsions:
REMARK  status: ('A' for Active; 'I' for Inactive)
REMARK    1  A    between atoms: C_1  and  C_2
REMARK    2  A    between atoms: C_2  and  C_3
REMARK    3  A    between atoms: C_3  and  C_4
REMARK    4  A    between atoms: C_4  and  O_5
REMARK    5  A    between atoms: O_5  and  C_6
REMARK    6  A    between atoms: C_6  and  C_7
REMARK    7  A    between atoms: C_7  and  C_8
REMARK    8  A    between atoms: C_8  and  N_9
REMARK    9  A    between atoms: C_29  and  C_31
REMARK   10  A    between atoms: C_35  and  N_37
REMARK                            x       y       z     vdW  Elec       q    Type
REMARK                         _______ _______ _______ _____ _____    ______ ____
ROOT
ATOM      1  N   UNL     1      -5.912  -6.116  -0.329  0.00  0.00    -0.291 N 
ATOM      2  C   UNL     1      -6.434  -6.346   1.008  0.00  0.00    +0.203 C 
ATOM      3  C   UNL     1      -7.846  -6.832   0.987  0.00  0.00    +0.234 C 
ATOM      4  O   UNL     1      -8.380  -7.058   2.052  0.00  0.00    -0.274 OA
ATOM      5  N   UNL     1      -8.564  -7.035  -0.124  0.00  0.00    -0.279 N 
ATOM      6  C   UNL     1      -8.037  -6.781  -1.461  0.00  0.00    +0.167 C 
ATOM      7  C   UNL     1      -6.623  -6.302  -1.440  0.00  0.00    +0.237 C 
ATOM      8  O   UNL     1      -6.086  -6.071  -2.502  0.00  0.00    -0.274 OA
ATOM      9  C   UNL     1      -8.919  -5.747  -2.186  0.00  0.00    +0.065 C 
ATOM     10  C   UNL     1     -10.349  -6.171  -1.962  0.00  0.00    -0.034 C 
ATOM     11  C   UNL     1     -11.354  -6.361  -2.808  0.00  0.00    -0.001 A 
ATOM     12  C   UNL     1     -11.474  -6.123  -4.255  0.00  0.00    +0.010 A 
ATOM     13  C   UNL     1     -12.664  -6.457  -4.821  0.00  0.00    +0.001 A 
ATOM     14  C   UNL     1     -13.734  -6.998  -4.100  0.00  0.00    +0.002 A 
ATOM     15  C   UNL     1     -13.714  -7.240  -2.765  0.00  0.00    +0.026 A 
ATOM     16  C   UNL     1     -12.518  -6.922  -2.058  0.00  0.00    +0.043 A 
ATOM     17  N   UNL     1     -12.236  -7.028  -0.793  0.00  0.00    -0.375 N 
ATOM     18  C   UNL     1     -10.891  -6.495  -0.574  0.00  0.00    +0.131 C 
ATOM     19  C   UNL     1      -9.947  -7.539   0.030  0.00  0.00    +0.133 C 
ATOM     20  H   UNL     1     -12.818  -7.397  -0.110  0.00  0.00    +0.160 HD
ENDROOT
BRANCH  19  21
ATOM     21  C   UNL     1     -10.099  -8.848  -0.701  0.00  0.00    -0.023 A 
ATOM     22  C   UNL     1      -9.853  -8.914  -2.059  0.00  0.00    +0.005 A 
ATOM     23  C   UNL     1      -9.992 -10.115  -2.729  0.00  0.00    +0.003 A 
ATOM     24  C   UNL     1     -10.377 -11.251  -2.040  0.00  0.00    +0.033 A 
ATOM     25  C   UNL     1     -10.622 -11.185  -0.682  0.00  0.00    +0.127 A 
ATOM     26  C   UNL     1     -10.479  -9.984  -0.011  0.00  0.00    +0.038 A 
BRANCH  25  27
ATOM     27  N   UNL     1     -11.034 -12.400   0.056  0.00  0.00    +0.056 N 
ATOM     28  O   UNL     1     -11.156 -13.450  -0.530  0.00  0.00    -0.126 OA
ATOM     29  O   UNL     1     -11.248 -12.342   1.244  0.00  0.00    -0.126 OA
ENDBRANCH  25  27
ENDBRANCH  19  21
BRANCH   1  30
ATOM     30  C   UNL     1      -4.530  -5.649  -0.461  0.00  0.00    +0.110 C 
BRANCH  30  31
ATOM     31  C   UNL     1      -4.505  -4.119  -0.443  0.00  0.00    +0.047 C 
BRANCH  31  32
ATOM     32  C   UNL     1      -3.062  -3.630  -0.581  0.00  0.00    +0.161 C 
BRANCH  32  33
ATOM     33  O   UNL     1      -3.039  -2.202  -0.565  0.00  0.00    -0.380 OA
BRANCH  33  34
ATOM     34  C   UNL     1      -1.731  -1.640  -0.689  0.00  0.00    +0.160 C 
BRANCH  34  35
ATOM     35  C   UNL     1      -1.826  -0.113  -0.659  0.00  0.00    +0.028 C 
BRANCH  35  37
ATOM     36  C   UNL     1      -0.521   2.015  -0.762  0.00  0.00    +0.004 C 
ATOM     37  C   UNL     1      -0.426   0.488  -0.791  0.00  0.00    -0.001 C 
ENDBRANCH  35  37
ENDBRANCH  34  35
ENDBRANCH  33  34
ENDBRANCH  32  33
ENDBRANCH  31  32
ENDBRANCH  30  31
ENDBRANCH   1  30
TORSDOF 9
