REMARK  Name = ZINC13031924
REMARK  12 active torsions:
REMARK  status: ('A' for Active; 'I' for Inactive)
REMARK    1  A    between atoms: C_1  and  C_2
REMARK    2  A    between atoms: C_2  and  C_3
REMARK    3  A    between atoms: C_3  and  C_4
REMARK    4  A    between atoms: C_3  and  C_5
REMARK    5  A    between atoms: C_3  and  N_6
REMARK    6  A    between atoms: C_7  and  C_9
REMARK    7  A    between atoms: C_9  and  C_11
REMARK    8  A    between atoms: C_9  and  N_17
REMARK    9  A    between atoms: N_15  and  C_16
REMARK   10  A    between atoms: N_17  and  C_18
REMARK   11  A    between atoms: C_28  and  C_30
REMARK   12  A    between atoms: C_30  and  N_31
REMARK                            x       y       z     vdW  Elec       q    Type
REMARK                         _______ _______ _______ _____ _____    ______ ____
ROOT
ATOM      1  N   UNL     1       3.586  -0.701  -0.610  0.00  0.00    -0.252 N 
ATOM      2  C   UNL     1       4.541   0.167  -0.223  0.00  0.00    +0.242 C 
ATOM      3  O   UNL     1       5.652  -0.235   0.050  0.00  0.00    -0.273 OA
ENDROOT
BRANCH   1   4
ATOM      4  C   UNL     1       2.336  -0.227  -1.029  0.00  0.00    +0.041 A 
ATOM      5  C   UNL     1       1.845   0.972  -0.530  0.00  0.00    +0.027 A 
ATOM      6  C   UNL     1       0.613   1.440  -0.942  0.00  0.00    +0.051 A 
ATOM      7  C   UNL     1      -0.138   0.714  -1.855  0.00  0.00    +0.162 A 
ATOM      8  C   UNL     1       0.352  -0.485  -2.359  0.00  0.00    +0.164 A 
ATOM      9  C   UNL     1       1.589  -0.955  -1.944  0.00  0.00    +0.073 A 
ATOM     10  O   UNL     1      -0.367  -1.206  -3.262  0.00  0.00    -0.485 OA
ATOM     11  C   UNL     1      -1.760  -0.896  -3.372  0.00  0.00    +0.270 C 
ATOM     12  C   UNL     1      -1.909   0.630  -3.441  0.00  0.00    +0.270 C 
ATOM     13  O   UNL     1      -1.355   1.188  -2.244  0.00  0.00    -0.485 OA
ENDBRANCH   1   4
BRANCH   1  14
ATOM     14  C   UNL     1       3.855  -2.141  -0.594  0.00  0.00    +0.213 C 
BRANCH  14  15
ATOM     15  C   UNL     1       2.786  -2.843   0.203  0.00  0.00    +0.049 A 
ATOM     16  C   UNL     1       2.615  -4.178   0.294  0.00  0.00    +0.025 A 
ATOM     17  C   UNL     1       1.507  -4.405   1.134  0.00  0.00    +0.019 A 
ATOM     18  C   UNL     1       1.042  -3.200   1.524  0.00  0.00    +0.085 A 
ATOM     19  N   UNL     1       1.827  -2.238   0.960  0.00  0.00    -0.352 N 
ATOM     20  C   UNL     1       1.663  -0.793   1.136  0.00  0.00    +0.148 C 
ENDBRANCH  14  15
BRANCH  14  22
ATOM     21  N   UNL     1       4.101  -3.973  -2.237  0.00  0.00    -0.308 N 
ATOM     22  C   UNL     1       3.857  -2.668  -2.006  0.00  0.00    +0.240 C 
ATOM     23  O   UNL     1       3.639  -1.918  -2.933  0.00  0.00    -0.273 OA
ATOM     24  H   UNL     1       4.210  -4.586  -1.494  0.00  0.00    +0.149 HD
BRANCH  21  25
ATOM     25  C   UNL     1       4.202  -4.466  -3.613  0.00  0.00    +0.029 C 
ATOM     26  C   UNL     1       2.887  -4.200  -4.349  0.00  0.00    +0.031 C 
ATOM     27  C   UNL     1       5.344  -3.744  -4.331  0.00  0.00    +0.031 C 
BRANCH  25  29
ATOM     28  C   UNL     1       4.587  -6.486  -5.034  0.00  0.00    +0.006 C 
ATOM     29  C   UNL     1       4.481  -5.971  -3.597  0.00  0.00    +0.022 C 
ENDBRANCH  25  29
ENDBRANCH  21  25
ENDBRANCH  14  22
ENDBRANCH   1  14
BRANCH   2  30
ATOM     30  C   UNL     1       4.229   1.638  -0.129  0.00  0.00    +0.242 C 
BRANCH  30  31
ATOM     31  N   UNL     1       5.450   2.413  -0.364  0.00  0.00    -0.235 N 
ATOM     32  C   UNL     1       6.354   2.831   0.583  0.00  0.00    +0.090 A 
ATOM     33  C   UNL     1       6.441   2.692   1.964  0.00  0.00    +0.029 A 
ATOM     34  C   UNL     1       7.497   3.240   2.637  0.00  0.00    +0.002 A 
ATOM     35  C   UNL     1       8.486   3.935   1.953  0.00  0.00    +0.002 A 
ATOM     36  C   UNL     1       8.428   4.080   0.598  0.00  0.00    +0.032 A 
ATOM     37  C   UNL     1       7.353   3.531  -0.115  0.00  0.00    +0.113 A 
ATOM     38  N   UNL     1       7.023   3.521  -1.422  0.00  0.00    -0.129 NA
ATOM     39  N   UNL     1       5.923   2.880  -1.600  0.00  0.00    -0.064 NA
ENDBRANCH  30  31
ENDBRANCH   2  30
TORSDOF 8
