REMARK  Name = ZINC35267994
REMARK  8 active torsions:
REMARK  status: ('A' for Active; 'I' for Inactive)
REMARK    1  A    between atoms: C_1  and  C_2
REMARK    2  A    between atoms: C_2  and  C_3
REMARK    3  A    between atoms: C_3  and  C_5
REMARK    4  A    between atoms: C_3  and  C_6
REMARK    5  A    between atoms: C_6  and  C_8
REMARK    6  A    between atoms: C_6  and  N_22
REMARK    7  A    between atoms: C_14  and  C_16
REMARK    8  A    between atoms: N_25  and  C_26
REMARK                            x       y       z     vdW  Elec       q    Type
REMARK                         _______ _______ _______ _____ _____    ______ ____
ROOT
ATOM      1  C   UNL     1       0.542  -2.135  -1.326  0.00  0.00    +0.163 C 
ENDROOT
BRANCH   1   2
ATOM      2  C   UNL     1       0.928  -2.726   0.006  0.00  0.00    +0.239 C 
ATOM      3  O   UNL     1       0.159  -3.459   0.591  0.00  0.00    -0.273 OA
ATOM      4  N   UNL     1       2.129  -2.439   0.547  0.00  0.00    -0.262 N 
ATOM      5  C   UNL     1       2.443  -2.894   1.822  0.00  0.00    +0.188 A 
ATOM      6  N   UNL     1       1.712  -3.617   2.649  0.00  0.00    -0.125 NA
ATOM      7  N   UNL     1       2.135  -3.960   3.790  0.00  0.00    -0.140 NA
ATOM      8  C   UNL     1       3.351  -3.580   4.162  0.00  0.00    +0.134 A 
ATOM      9  S   UNL     1       3.859  -2.673   2.709  0.00  0.00    -0.030 S 
ATOM     10  H   UNL     1       2.774  -1.915   0.046  0.00  0.00    +0.157 HD
BRANCH   8  11
ATOM     11  C   UNL     1       4.080  -3.839   5.422  0.00  0.00    +0.009 A 
ATOM     12  C   UNL     1       5.367  -3.330   5.604  0.00  0.00    +0.010 A 
ATOM     13  C   UNL     1       6.043  -3.575   6.781  0.00  0.00    +0.001 A 
ATOM     14  C   UNL     1       5.447  -4.324   7.781  0.00  0.00    +0.000 A 
ATOM     15  C   UNL     1       4.172  -4.832   7.607  0.00  0.00    +0.001 A 
ATOM     16  C   UNL     1       3.483  -4.589   6.436  0.00  0.00    +0.010 A 
ENDBRANCH   8  11
ENDBRANCH   1   2
BRANCH   1  17
ATOM     17  N   UNL     1      -0.599  -2.873  -1.875  0.00  0.00    -0.288 N 
ATOM     18  C   UNL     1      -0.810  -2.894  -3.205  0.00  0.00    +0.304 C 
ATOM     19  O   UNL     1      -0.055  -2.301  -3.951  0.00  0.00    -0.252 OA
ATOM     20  N   UNL     1      -1.859  -3.573  -3.710  0.00  0.00    -0.269 N 
ATOM     21  H   UNL     1      -1.202  -3.347  -1.280  0.00  0.00    +0.151 HD
ATOM     22  H   UNL     1      -2.504  -3.984  -3.113  0.00  0.00    +0.156 HD
BRANCH  20  23
ATOM     23  C   UNL     1      -2.019  -3.686  -5.097  0.00  0.00    +0.035 A 
ATOM     24  C   UNL     1      -3.292  -3.707  -5.651  0.00  0.00    +0.025 A 
ATOM     25  C   UNL     1      -3.446  -3.818  -7.019  0.00  0.00    +0.022 A 
ATOM     26  C   UNL     1      -2.334  -3.908  -7.837  0.00  0.00    +0.041 A 
ATOM     27  C   UNL     1      -1.064  -3.888  -7.287  0.00  0.00    +0.022 A 
ATOM     28  C   UNL     1      -0.904  -3.771  -5.920  0.00  0.00    +0.025 A 
ATOM     29 CL   UNL     1      -2.531  -4.048  -9.556  0.00  0.00    -0.084 Cl
ENDBRANCH  20  23
ENDBRANCH   1  17
BRANCH   1  30
ATOM     30  C   UNL     1       0.157  -0.666  -1.140  0.00  0.00    +0.015 C 
ATOM     31  C   UNL     1      -1.084  -0.573  -0.250  0.00  0.00    +0.010 C 
BRANCH  30  33
ATOM     32  C   UNL     1      -0.409   1.455  -2.332  0.00  0.00    +0.004 C 
ATOM     33  C   UNL     1      -0.146  -0.042  -2.504  0.00  0.00    +0.002 C 
ENDBRANCH  30  33
ENDBRANCH   1  30
TORSDOF 6
