REMARK  Name = ZINC52094672
REMARK  6 active torsions:
REMARK  status: ('A' for Active; 'I' for Inactive)
REMARK    1  A    between atoms: C_1  and  C_2
REMARK    2  A    between atoms: C_2  and  C_3
REMARK    3  A    between atoms: C_3  and  N_4
REMARK    4  A    between atoms: N_4  and  C_5
REMARK    5  A    between atoms: C_5  and  C_7
REMARK    6  A    between atoms: C_5  and  C_12
REMARK                            x       y       z     vdW  Elec       q    Type
REMARK                         _______ _______ _______ _____ _____    ______ ____
ROOT
ATOM      1  C   UNL     1      -2.774  -4.012  -0.117  0.00  0.00    -0.041 A 
ATOM      2  C   UNL     1      -1.663  -4.726   0.290  0.00  0.00    +0.031 A 
ATOM      3  C   UNL     1      -1.647  -6.106   0.169  0.00  0.00    +0.067 A 
ATOM      4  C   UNL     1      -2.754  -6.771  -0.365  0.00  0.00    +0.068 A 
ATOM      5  C   UNL     1      -3.865  -6.047  -0.771  0.00  0.00    +0.043 A 
ATOM      6  C   UNL     1      -3.874  -4.671  -0.640  0.00  0.00    +0.022 A 
ATOM      7 BR   UNL     1      -5.391  -3.684  -1.187  0.00  0.00    -0.050 Br
ATOM      8  N   UNL     1      -2.448  -8.130  -0.360  0.00  0.00    -0.306 N 
ATOM      9  H   UNL     1      -3.027  -8.843  -0.674  0.00  0.00    +0.170 HD
ATOM     10  C   UNL     1      -1.213  -8.285   0.152  0.00  0.00    +0.325 A 
ATOM     11  O   UNL     1      -0.642  -9.350   0.295  0.00  0.00    -0.247 OA
ATOM     12  N   UNL     1      -0.704  -7.083   0.480  0.00  0.00    -0.306 N 
ATOM     13  H   UNL     1       0.171  -6.923   0.868  0.00  0.00    +0.170 HD
ENDROOT
BRANCH   1  14
ATOM     14  C   UNL     1      -2.792  -2.511   0.015  0.00  0.00    -0.002 C 
BRANCH  14  15
ATOM     15  C   UNL     1      -3.458  -2.128   1.311  0.00  0.00    -0.020 A 
ATOM     16  C   UNL     1      -4.729  -1.708   1.526  0.00  0.00    +0.010 A 
ATOM     17  C   UNL     1      -5.128  -1.410   2.816  0.00  0.00    +0.008 A 
ATOM     18  C   UNL     1      -4.236  -1.546   3.827  0.00  0.00    +0.045 A 
ATOM     19  S   UNL     1      -2.782  -2.118   2.963  0.00  0.00    -0.103 S 
ENDBRANCH  14  15
BRANCH  14  20
ATOM     20  N   UNL     1      -1.413  -2.002   0.005  0.00  0.00    +0.387 N 
ATOM     21  H   UNL     1      -0.941  -2.328  -0.825  0.00  0.00    -0.085 HD
ATOM     22  H   UNL     1      -0.925  -2.337   0.822  0.00  0.00    -0.085 HD
BRANCH  20  23
ATOM     23  C   UNL     1      -1.433  -0.534   0.013  0.00  0.00    -0.082 C 
BRANCH  23  25
ATOM     24  C   UNL     1      -0.019   1.526   0.010  0.00  0.00    +0.002 C 
ATOM     25  C   UNL     1       0.002  -0.004   0.002  0.00  0.00    -0.022 C 
ENDBRANCH  23  25
ENDBRANCH  20  23
ENDBRANCH  14  20
ENDBRANCH   1  14
TORSDOF 5
