REMARK  Name = ZINC66991053
REMARK  6 active torsions:
REMARK  status: ('A' for Active; 'I' for Inactive)
REMARK    1  A    between atoms: C_3  and  C_10
REMARK    2  A    between atoms: C_5  and  N_7
REMARK    3  A    between atoms: C_10  and  N_11
REMARK    4  A    between atoms: N_11  and  C_12
REMARK    5  A    between atoms: C_12  and  C_13
REMARK    6  A    between atoms: C_17  and  N_20
REMARK                            x       y       z     vdW  Elec       q    Type
REMARK                         _______ _______ _______ _____ _____    ______ ____
ROOT
ATOM      1  N   UNL     1       4.106   2.426   1.360  0.00  0.00    +0.384 N 
ATOM      2  H   UNL     1       3.401   2.959   1.845  0.00  0.00    -0.085 HD
ATOM      3  H   UNL     1       4.244   1.544   1.830  0.00  0.00    -0.085 HD
ENDROOT
BRANCH   1   4
ATOM      4  C   UNL     1       3.672   2.182  -0.022  0.00  0.00    -0.046 C 
BRANCH   4   7
ATOM      5  C   UNL     1      -0.017   1.378   0.010  0.00  0.00    +0.002 A 
ATOM      6  C   UNL     1       1.171   2.085   0.002  0.00  0.00    +0.002 A 
ATOM      7  C   UNL     1       2.377   1.411  -0.013  0.00  0.00    -0.062 A 
ATOM      8  C   UNL     1       2.396   0.028  -0.020  0.00  0.00    +0.034 A 
ATOM      9  C   UNL     1       1.209  -0.679  -0.012  0.00  0.00    +0.126 A 
ATOM     10  C   UNL     1       0.002  -0.004   0.002  0.00  0.00    +0.033 A 
BRANCH   9  11
ATOM     11  N   UNL     1       1.229  -2.159  -0.020  0.00  0.00    +0.056 N 
ATOM     12  O   UNL     1       2.284  -2.749  -0.035  0.00  0.00    -0.126 OA
ATOM     13  O   UNL     1       0.190  -2.778  -0.013  0.00  0.00    -0.126 OA
ENDBRANCH   9  11
ENDBRANCH   4   7
ENDBRANCH   1   4
BRANCH   1  14
ATOM     14  C   UNL     1       5.368   3.178   1.351  0.00  0.00    -0.042 C 
BRANCH  14  15
ATOM     15  C   UNL     1       5.814   3.428   2.768  0.00  0.00    -0.014 A 
ATOM     16  C   UNL     1       5.578   4.654   3.361  0.00  0.00    +0.025 A 
ATOM     17  C   UNL     1       5.987   4.884   4.662  0.00  0.00    +0.044 A 
ATOM     18  C   UNL     1       6.632   3.888   5.373  0.00  0.00    +0.056 A 
ATOM     19  C   UNL     1       6.870   2.661   4.785  0.00  0.00    +0.174 A 
ATOM     20  C   UNL     1       6.456   2.426   3.481  0.00  0.00    +0.210 A 
ATOM     21  O   UNL     1       6.684   1.218   2.902  0.00  0.00    -0.285 OA
ATOM     22 CL   UNL     1       5.690   6.425   5.404  0.00  0.00    -0.083 Cl
BRANCH  19  23
ATOM     23  N   UNL     1       7.560   1.596   5.545  0.00  0.00    +0.060 N 
ATOM     24  O   UNL     1       7.916   1.799   6.683  0.00  0.00    -0.126 OA
ATOM     25  O   UNL     1       7.768   0.522   5.030  0.00  0.00    -0.126 OA
ENDBRANCH  19  23
ENDBRANCH  14  15
ENDBRANCH   1  14
TORSDOF 6
