REMARK  Name = ZINC65963895
REMARK  5 active torsions:
REMARK  status: ('A' for Active; 'I' for Inactive)
REMARK    1  A    between atoms: C_4  and  C_7
REMARK    2  A    between atoms: N_9  and  C_10
REMARK    3  A    between atoms: N_13  and  C_16
REMARK    4  A    between atoms: C_16  and  C_17
REMARK    5  A    between atoms: N_22  and  C_23
REMARK                            x       y       z     vdW  Elec       q    Type
REMARK                         _______ _______ _______ _____ _____    ______ ____
ROOT
ATOM      1  C   UNL     1       3.684  -2.248  -3.935  0.00  0.00    +0.069 C 
ATOM      2  C   UNL     1       5.194  -2.291  -3.682  0.00  0.00    +0.003 C 
ATOM      3  C   UNL     1       5.896  -2.860  -4.916  0.00  0.00    -0.076 C 
ATOM      4  N   UNL     1       5.405  -4.217  -5.181  0.00  0.00    +0.386 N 
ATOM      5  C   UNL     1       3.972  -4.176  -5.495  0.00  0.00    -0.076 C 
ATOM      6  C   UNL     1       3.195  -3.657  -4.283  0.00  0.00    +0.003 C 
ATOM      7  H   UNL     1       5.553  -4.793  -4.365  0.00  0.00    -0.081 HD
ENDROOT
BRANCH   1  10
ATOM      8  C   UNL     1       2.859  -0.454  -2.507  0.00  0.00    +0.216 C 
ATOM      9  O   UNL     1       3.301   0.345  -3.306  0.00  0.00    -0.276 OA
ATOM     10  N   UNL     1       2.998  -1.776  -2.729  0.00  0.00    -0.312 N 
ATOM     11  H   UNL     1       2.644  -2.415  -2.091  0.00  0.00    +0.149 HD
BRANCH   8  15
ATOM     12  C   UNL     1      -0.019   1.526   0.010  0.00  0.00    +0.000 C 
ATOM     13  C   UNL     1       1.417   2.055  -0.000  0.00  0.00    +0.001 C 
ATOM     14  C   UNL     1       2.133   1.562  -1.259  0.00  0.00    +0.013 C 
ATOM     15  C   UNL     1       2.154   0.032  -1.268  0.00  0.00    +0.075 C 
ATOM     16  C   UNL     1       0.718  -0.497  -1.257  0.00  0.00    +0.013 C 
ATOM     17  C   UNL     1       0.002  -0.004   0.002  0.00  0.00    +0.001 C 
ENDBRANCH   8  15
ENDBRANCH   1  10
BRANCH   4  18
ATOM     18  C   UNL     1       6.138  -4.788  -6.319  0.00  0.00    +0.019 C 
BRANCH  18  19
ATOM     19  C   UNL     1       5.722  -6.224  -6.515  0.00  0.00    +0.204 C 
ATOM     20  O   UNL     1       4.896  -6.721  -5.779  0.00  0.00    -0.277 OA
ATOM     21  N   UNL     1       6.267  -6.954  -7.508  0.00  0.00    -0.242 N 
ATOM     22  C   UNL     1       5.895  -8.237  -7.683  0.00  0.00    +0.306 C 
ATOM     23  O   UNL     1       5.068  -8.736  -6.946  0.00  0.00    -0.252 OA
ATOM     24  N   UNL     1       6.441  -8.967  -8.676  0.00  0.00    -0.296 N 
ATOM     25  H   UNL     1       6.928  -6.555  -8.096  0.00  0.00    +0.159 HD
ATOM     26  H   UNL     1       7.101  -8.569  -9.265  0.00  0.00    +0.151 HD
BRANCH  24  27
ATOM     27  C   UNL     1       6.037 -10.362  -8.867  0.00  0.00    +0.074 C 
ATOM     28  C   UNL     1       4.801 -10.433  -9.788  0.00  0.00    +0.022 C 
ATOM     29  C   UNL     1       5.391 -10.695 -11.196  0.00  0.00    +0.002 C 
ATOM     30  C   UNL     1       6.564 -11.662 -10.900  0.00  0.00    +0.002 C 
ATOM     31  C   UNL     1       7.157 -11.144  -9.574  0.00  0.00    +0.022 C 
ENDBRANCH  24  27
ENDBRANCH  18  19
ENDBRANCH   4  18
TORSDOF 5
