REMARK  Name = ZINC36316094
REMARK  18 active torsions:
REMARK  status: ('A' for Active; 'I' for Inactive)
REMARK    1  A    between atoms: C_1  and  C_2
REMARK    2  A    between atoms: C_2  and  C_3
REMARK    3  A    between atoms: C_3  and  C_4
REMARK    4  A    between atoms: C_4  and  C_5
REMARK    5  A    between atoms: C_5  and  C_7
REMARK    6  A    between atoms: C_5  and  O_34
REMARK    7  A    between atoms: C_7  and  N_8
REMARK    8  A    between atoms: N_8  and  C_9
REMARK    9  A    between atoms: N_8  and  C_13
REMARK   10  A    between atoms: C_9  and  C_10
REMARK   11  A    between atoms: C_10  and  O_11
REMARK   12  A    between atoms: O_11  and  C_12
REMARK   13  A    between atoms: C_13  and  C_14
REMARK   14  A    between atoms: C_15  and  C_28
REMARK   15  A    between atoms: N_17  and  C_27
REMARK   16  A    between atoms: C_18  and  O_19
REMARK   17  A    between atoms: O_19  and  C_20
REMARK   18  A    between atoms: C_23  and  C_26
REMARK                            x       y       z     vdW  Elec       q    Type
REMARK                         _______ _______ _______ _____ _____    ______ ____
ROOT
ATOM      1  C   UNL     1       3.546  -6.934  -5.169  0.00  0.00    +0.025 A 
ATOM      2  C   UNL     1       3.043  -7.504  -6.353  0.00  0.00    +0.098 A 
ATOM      3  N   UNL     1       4.053  -8.016  -7.023  0.00  0.00    -0.168 NA
ATOM      4  N   UNL     1       5.226  -7.789  -6.291  0.00  0.00    -0.235 N 
ATOM      5  C   UNL     1       4.891  -7.118  -5.159  0.00  0.00    +0.221 A 
ATOM      6  C   UNL     1       6.577  -8.199  -6.681  0.00  0.00    +0.176 C 
ENDROOT
BRANCH   2   7
ATOM      7  C   UNL     1       1.619  -7.525  -6.774  0.00  0.00    +0.002 A 
ATOM      8  C   UNL     1       0.621  -7.822  -5.848  0.00  0.00    +0.010 A 
ATOM      9  C   UNL     1      -0.701  -7.840  -6.244  0.00  0.00    +0.001 A 
ATOM     10  C   UNL     1      -1.036  -7.563  -7.557  0.00  0.00    +0.000 A 
ATOM     11  C   UNL     1      -0.049  -7.268  -8.480  0.00  0.00    +0.001 A 
ATOM     12  C   UNL     1       1.276  -7.242  -8.094  0.00  0.00    +0.010 A 
ENDBRANCH   2   7
BRANCH   1  13
ATOM     13  C   UNL     1       2.737  -6.238  -4.105  0.00  0.00    -0.035 C 
BRANCH  13  14
ATOM     14  N   UNL     1       2.780  -4.787  -4.328  0.00  0.00    +0.386 N 
ATOM     15  H   UNL     1       3.740  -4.482  -4.376  0.00  0.00    -0.081 HD
BRANCH  14  16
ATOM     16  C   UNL     1       2.101  -4.466  -5.591  0.00  0.00    -0.047 C 
BRANCH  16  17
ATOM     17  C   UNL     1       2.253  -2.972  -5.886  0.00  0.00    +0.098 C 
BRANCH  17  18
ATOM     18  O   UNL     1       3.632  -2.669  -6.110  0.00  0.00    -0.394 OA
ATOM     19  H   UNL     1       4.024  -3.148  -6.852  0.00  0.00    +0.210 HD
ENDBRANCH  17  18
BRANCH  17  20
ATOM     20  C   UNL     1       1.443  -2.614  -7.134  0.00  0.00    +0.029 C 
BRANCH  20  21
ATOM     21  C   UNL     1       1.494  -1.101  -7.357  0.00  0.00    +0.002 C 
BRANCH  21  23
ATOM     22  C   UNL     1       0.734   0.770  -8.829  0.00  0.00    +0.004 C 
ATOM     23  C   UNL     1       0.684  -0.743  -8.605  0.00  0.00    -0.003 C 
ENDBRANCH  21  23
ENDBRANCH  20  21
ENDBRANCH  17  20
ENDBRANCH  16  17
ENDBRANCH  14  16
BRANCH  14  24
ATOM     24  C   UNL     1       2.102  -4.101  -3.220  0.00  0.00    -0.050 C 
BRANCH  24  25
ATOM     25  C   UNL     1       2.891  -4.318  -1.927  0.00  0.00    +0.141 C 
BRANCH  25  26
ATOM     26  O   UNL     1       4.178  -3.707  -2.046  0.00  0.00    -0.385 OA
ATOM     27  C   UNL     1       4.999  -3.852  -0.886  0.00  0.00    +0.193 C 
ENDBRANCH  25  26
ENDBRANCH  24  25
ENDBRANCH  14  24
ENDBRANCH  13  14
ENDBRANCH   1  13
BRANCH   5  28
ATOM     28  O   UNL     1       5.748  -6.708  -4.189  0.00  0.00    -0.438 OA
BRANCH  28  29
ATOM     29  C   UNL     1       6.084  -7.597  -3.217  0.00  0.00    +0.130 A 
ATOM     30  C   UNL     1       5.643  -8.910  -3.294  0.00  0.00    +0.046 A 
ATOM     31  C   UNL     1       5.987  -9.812  -2.305  0.00  0.00    +0.007 A 
ATOM     32  C   UNL     1       6.771  -9.406  -1.240  0.00  0.00    -0.050 A 
ATOM     33  C   UNL     1       7.211  -8.098  -1.162  0.00  0.00    +0.007 A 
ATOM     34  C   UNL     1       6.875  -7.194  -2.150  0.00  0.00    +0.046 A 
ATOM     35  C   UNL     1       7.144 -10.392  -0.164  0.00  0.00    +0.044 C 
ENDBRANCH  28  29
ENDBRANCH   5  28
TORSDOF 14
