REMARK  Name = ZINC06137026
REMARK  12 active torsions:
REMARK  status: ('A' for Active; 'I' for Inactive)
REMARK    1  A    between atoms: C_1  and  C_2
REMARK    2  A    between atoms: C_3  and  C_29
REMARK    3  A    between atoms: C_4  and  C_20
REMARK    4  A    between atoms: C_10  and  C_15
REMARK    5  A    between atoms: C_23  and  O_28
REMARK    6  A    between atoms: C_24  and  O_26
REMARK    7  A    between atoms: O_26  and  C_27
REMARK    8  A    between atoms: C_29  and  O_31
REMARK    9  A    between atoms: O_31  and  C_32
REMARK   10  A    between atoms: C_32  and  C_33
REMARK   11  A    between atoms: C_33  and  O_34
REMARK   12  A    between atoms: O_34  and  C_35
REMARK                            x       y       z     vdW  Elec       q    Type
REMARK                         _______ _______ _______ _____ _____    ______ ____
ROOT
ATOM      1  C   UNL     1       5.634   7.085   3.818  0.00  0.00    +0.061 C 
ATOM      2  C   UNL     1       4.947   7.058   2.477  0.00  0.00    +0.031 C 
ATOM      3  C   UNL     1       5.536   7.631   1.414  0.00  0.00    +0.154 C 
ATOM      4  C   UNL     1       4.876   7.633   0.065  0.00  0.00    +0.073 C 
ATOM      5  C   UNL     1       3.790   6.588  -0.005  0.00  0.00    +0.025 C 
ATOM      6  C   UNL     1       3.266   6.063   1.123  0.00  0.00    +0.049 C 
ATOM      7  N   UNL     1       3.728   6.452   2.351  0.00  0.00    -0.260 NA
ATOM      8  C   UNL     1       2.163   5.035   1.061  0.00  0.00    +0.065 C 
ATOM      9  C   UNL     1       2.319   4.194  -0.211  0.00  0.00    +0.039 C 
ATOM     10  C   UNL     1       2.270   5.134  -1.421  0.00  0.00    +0.088 C 
ATOM     11  C   UNL     1       3.341   6.179  -1.273  0.00  0.00    +0.162 C 
ATOM     12  O   UNL     1       3.827   6.680  -2.268  0.00  0.00    -0.292 OA
ENDROOT
BRANCH   4  13
ATOM     13  C   UNL     1       4.274   8.990  -0.197  0.00  0.00    -0.035 A 
ATOM     14  C   UNL     1       3.282   9.476   0.634  0.00  0.00    +0.008 A 
ATOM     15  C   UNL     1       2.727  10.720   0.398  0.00  0.00    +0.049 A 
ATOM     16  C   UNL     1       3.166  11.483  -0.672  0.00  0.00    +0.158 A 
ATOM     17  C   UNL     1       4.165  10.994  -1.508  0.00  0.00    +0.162 A 
ATOM     18  C   UNL     1       4.721   9.748  -1.263  0.00  0.00    +0.053 A 
BRANCH  17  19
ATOM     19  O   UNL     1       4.600  11.739  -2.559  0.00  0.00    -0.491 OA
ATOM     20  C   UNL     1       5.628  11.173  -3.374  0.00  0.00    +0.277 C 
ENDBRANCH  17  19
BRANCH  16  21
ATOM     21  O   UNL     1       2.622  12.707  -0.905  0.00  0.00    -0.503 OA
ATOM     22  H   UNL     1       3.078  13.432  -0.456  0.00  0.00    +0.292 HD
ENDBRANCH  16  21
ENDBRANCH   4  13
BRANCH   9  23
ATOM     23  C   UNL     1       1.192   3.197  -0.299  0.00  0.00    -0.006 A 
ATOM     24  C   UNL     1       1.253   1.844  -0.361  0.00  0.00    +0.011 A 
ATOM     25  C   UNL     1       0.076   1.123  -0.438  0.00  0.00    +0.008 A 
ATOM     26  C   UNL     1      -1.104   1.791  -0.455  0.00  0.00    +0.045 A 
ATOM     27  S   UNL     1      -0.568   3.491  -0.349  0.00  0.00    -0.101 S 
ENDBRANCH   9  23
BRANCH   3  28
ATOM     28  C   UNL     1       6.800   8.246   1.569  0.00  0.00    +0.317 C 
ATOM     29  O   UNL     1       7.295   8.351   2.676  0.00  0.00    -0.250 OA
BRANCH  28  30
ATOM     30  O   UNL     1       7.458   8.718   0.489  0.00  0.00    -0.462 OA
BRANCH  30  31
ATOM     31  C   UNL     1       8.730   9.327   0.719  0.00  0.00    +0.260 C 
BRANCH  31  32
ATOM     32  C   UNL     1       9.319   9.797  -0.613  0.00  0.00    +0.200 C 
BRANCH  32  33
ATOM     33  O   UNL     1       8.498  10.831  -1.159  0.00  0.00    -0.380 OA
ATOM     34  C   UNL     1       8.962  11.342  -2.410  0.00  0.00    +0.194 C 
ENDBRANCH  32  33
ENDBRANCH  31  32
ENDBRANCH  30  31
ENDBRANCH  28  30
ENDBRANCH   3  28
TORSDOF 9
