REMARK  Name = ZINC06193242
REMARK  16 active torsions:
REMARK  status: ('A' for Active; 'I' for Inactive)
REMARK    1  A    between atoms: C_1  and  C_2
REMARK    2  A    between atoms: C_2  and  N_64
REMARK    3  A    between atoms: C_3  and  C_4
REMARK    4  A    between atoms: C_3  and  N_64
REMARK    5  A    between atoms: C_5  and  C_6
REMARK    6  A    between atoms: C_5  and  N_64
REMARK    7  A    between atoms: C_6  and  C_7
REMARK    8  A    between atoms: C_7  and  N_8
REMARK    9  A    between atoms: N_8  and  C_9
REMARK   10  A    between atoms: C_9  and  N_11
REMARK   11  A    between atoms: N_11  and  C_12
REMARK   12  A    between atoms: N_11  and  C_18
REMARK   13  A    between atoms: C_12  and  C_13
REMARK   14  A    between atoms: C_18  and  C_19
REMARK   15  A    between atoms: C_24  and  O_31
REMARK   16  A    between atoms: O_31  and  C_32
REMARK                            x       y       z     vdW  Elec       q    Type
REMARK                         _______ _______ _______ _____ _____    ______ ____
ROOT
ATOM      1  N   UNL     1      -3.076  11.012   2.768  0.00  0.00    -0.301 N 
ENDROOT
BRANCH   1   2
ATOM      2  C   UNL     1      -4.206  10.808   3.475  0.00  0.00    +0.134 C 
ATOM      3  S   UNL     1      -4.114  10.369   5.127  0.00  0.00    -0.019 S 
BRANCH   2   4
ATOM      4  N   UNL     1      -5.407  10.950   2.881  0.00  0.00    -0.326 N 
ATOM      5  H   UNL     1      -5.459  11.199   1.945  0.00  0.00    +0.148 HD
BRANCH   4   6
ATOM      6  C   UNL     1      -6.635  10.729   3.649  0.00  0.00    +0.101 C 
BRANCH   6   7
ATOM      7  C   UNL     1      -7.849  10.953   2.745  0.00  0.00    +0.000 C 
BRANCH   7   8
ATOM      8  C   UNL     1      -9.131  10.722   3.547  0.00  0.00    -0.077 C 
BRANCH   8   9
ATOM      9  N   UNL     1     -10.294  10.963   2.667  0.00  0.00    +0.379 N 
ATOM     10  H   UNL     1     -10.188  11.881   2.219  0.00  0.00    -0.082 HD
BRANCH   9  12
ATOM     11  C   UNL     1     -10.371   8.527   2.250  0.00  0.00    -0.017 C 
ATOM     12  C   UNL     1     -10.360   9.922   1.620  0.00  0.00    -0.082 C 
ENDBRANCH   9  12
BRANCH   9  13
ATOM     13  C   UNL     1     -11.539  10.958   3.463  0.00  0.00    -0.082 C 
ATOM     14  C   UNL     1     -12.711  11.331   2.553  0.00  0.00    -0.017 C 
ENDBRANCH   9  13
ENDBRANCH   8   9
ENDBRANCH   7   8
ENDBRANCH   6   7
ENDBRANCH   4   6
ENDBRANCH   2   4
ENDBRANCH   1   2
BRANCH   1  15
ATOM     15  C   UNL     1      -3.153  11.501   1.389  0.00  0.00    +0.181 C 
BRANCH  15  16
ATOM     16  C   UNL     1      -3.232  10.329   0.445  0.00  0.00    +0.122 A 
ATOM     17  C   UNL     1      -4.363   9.737   0.020  0.00  0.00    +0.046 A 
ATOM     18  C   UNL     1      -3.975   8.689  -0.847  0.00  0.00    +0.041 A 
ATOM     19  C   UNL     1      -2.631   8.704  -0.899  0.00  0.00    +0.195 A 
ATOM     20  O   UNL     1      -2.187   9.703  -0.119  0.00  0.00    -0.466 OA
ENDBRANCH  15  16
ENDBRANCH   1  15
BRANCH   1  21
ATOM     21  C   UNL     1      -1.772  10.745   3.380  0.00  0.00    +0.147 C 
BRANCH  21  22
ATOM     22  C   UNL     1      -1.296   9.375   2.971  0.00  0.00    +0.035 A 
ATOM     23  C   UNL     1      -0.466   9.237   1.906  0.00  0.00    +0.020 A 
ATOM     24  C   UNL     1      -0.022   7.894   1.535  0.00  0.00    -0.001 A 
ATOM     25  C   UNL     1       0.835   7.691   0.446  0.00  0.00    +0.013 A 
ATOM     26  C   UNL     1       1.236   6.427   0.126  0.00  0.00    +0.046 A 
ATOM     27  C   UNL     1       0.791   5.333   0.868  0.00  0.00    +0.122 A 
ATOM     28  C   UNL     1      -0.056   5.513   1.948  0.00  0.00    +0.072 A 
ATOM     29  C   UNL     1      -0.471   6.793   2.292  0.00  0.00    +0.053 A 
ATOM     30  N   UNL     1      -1.315   7.002   3.362  0.00  0.00    -0.322 N 
ATOM     31  H   UNL     1      -1.632   6.220   3.899  0.00  0.00    +0.169 HD
ATOM     32  C   UNL     1      -1.716   8.241   3.696  0.00  0.00    +0.254 A 
ATOM     33  O   UNL     1      -2.463   8.387   4.648  0.00  0.00    -0.268 OA
BRANCH  27  34
ATOM     34  O   UNL     1       1.196   4.082   0.532  0.00  0.00    -0.495 OA
ATOM     35  C   UNL     1       2.071   3.964  -0.592  0.00  0.00    +0.277 C 
ENDBRANCH  27  34
ENDBRANCH  21  22
ENDBRANCH   1  21
TORSDOF 13
