REMARK  Name = ZINC09433328
REMARK  16 active torsions:
REMARK  status: ('A' for Active; 'I' for Inactive)
REMARK    1  A    between atoms: C_1  and  C_2
REMARK    2  A    between atoms: C_2  and  C_3
REMARK    3  A    between atoms: C_3  and  C_5
REMARK    4  A    between atoms: C_3  and  N_76
REMARK    5  A    between atoms: C_6  and  C_7
REMARK    6  A    between atoms: C_6  and  N_76
REMARK    7  A    between atoms: C_7  and  C_8
REMARK    8  A    between atoms: C_8  and  N_9
REMARK    9  A    between atoms: C_10  and  C_12
REMARK   10  A    between atoms: N_22  and  C_30
REMARK   11  A    between atoms: C_23  and  C_25
REMARK   12  A    between atoms: C_30  and  C_31
REMARK   13  A    between atoms: C_31  and  C_32
REMARK   14  A    between atoms: C_31  and  C_33
REMARK   15  A    between atoms: C_34  and  C_35
REMARK   16  A    between atoms: C_34  and  N_76
REMARK                            x       y       z     vdW  Elec       q    Type
REMARK                         _______ _______ _______ _____ _____    ______ ____
ROOT
ATOM      1  C   UNL     1      -0.027  -1.512  -3.456  0.00  0.00    +0.131 C 
ATOM      2  C   UNL     1      -1.037  -0.826  -2.575  0.00  0.00    -0.021 A 
ATOM      3  C   UNL     1      -1.145  -1.154  -1.240  0.00  0.00    +0.005 A 
ATOM      4  C   UNL     1      -2.070  -0.505  -0.441  0.00  0.00    +0.000 A 
ATOM      5  C   UNL     1      -2.888   0.476  -0.972  0.00  0.00    +0.001 A 
ATOM      6  C   UNL     1      -2.794   0.810  -2.308  0.00  0.00    +0.013 A 
ATOM      7  C   UNL     1      -1.870   0.154  -3.118  0.00  0.00    +0.041 A 
ATOM      8  C   UNL     1      -1.770   0.461  -4.561  0.00  0.00    +0.247 C 
ATOM      9  O   UNL     1      -2.307   1.453  -5.016  0.00  0.00    -0.270 OA
ATOM     10  N   UNL     1      -1.079  -0.368  -5.366  0.00  0.00    -0.289 N 
ATOM     11  C   UNL     1      -0.574  -1.648  -4.875  0.00  0.00    +0.129 C 
ENDROOT
BRANCH  11  12
ATOM     12  C   UNL     1      -1.694  -2.656  -4.878  0.00  0.00    +0.011 A 
ATOM     13  C   UNL     1      -1.663  -3.965  -5.230  0.00  0.00    +0.013 A 
ATOM     14  C   UNL     1      -2.825  -4.709  -5.150  0.00  0.00    +0.008 A 
ATOM     15  C   UNL     1      -3.964  -4.104  -4.732  0.00  0.00    +0.045 A 
ATOM     16  S   UNL     1      -3.407  -2.436  -4.428  0.00  0.00    -0.100 S 
ENDBRANCH  11  12
BRANCH   1  18
ATOM     17  N   UNL     1       1.524  -3.376  -2.968  0.00  0.00    -0.315 N 
ATOM     18  C   UNL     1       0.272  -2.881  -2.902  0.00  0.00    +0.223 C 
ATOM     19  O   UNL     1      -0.614  -3.537  -2.397  0.00  0.00    -0.275 OA
ATOM     20  H   UNL     1       2.247  -2.824  -3.305  0.00  0.00    +0.149 HD
BRANCH  17  21
ATOM     21  C   UNL     1       1.793  -4.748  -2.531  0.00  0.00    +0.102 C 
BRANCH  21  22
ATOM     22  C   UNL     1       3.281  -5.057  -2.708  0.00  0.00    +0.000 C 
BRANCH  22  23
ATOM     23  C   UNL     1       3.562  -6.490  -2.252  0.00  0.00    -0.076 C 
BRANCH  23  24
ATOM     24  N   UNL     1       4.953  -6.838  -2.610  0.00  0.00    +0.386 N 
ATOM     25  H   UNL     1       5.133  -6.543  -3.577  0.00  0.00    -0.081 HD
BRANCH  24  26
ATOM     26  C   UNL     1       5.896  -6.139  -1.712  0.00  0.00    -0.071 C 
ATOM     27  C   UNL     1       6.261  -4.793  -2.341  0.00  0.00    -0.013 C 
BRANCH  26  29
ATOM     28  C   UNL     1       5.024  -7.250   0.349  0.00  0.00    +0.002 C 
ATOM     29  C   UNL     1       5.254  -5.905  -0.343  0.00  0.00    -0.019 C 
ENDBRANCH  26  29
ENDBRANCH  24  26
BRANCH  24  30
ATOM     30  C   UNL     1       5.150  -8.300  -2.510  0.00  0.00    -0.003 C 
BRANCH  30  31
ATOM     31  C   UNL     1       6.414  -8.669  -3.243  0.00  0.00    +0.089 A 
ATOM     32  C   UNL     1       7.628  -8.828  -2.686  0.00  0.00    +0.042 A 
ATOM     33  C   UNL     1       8.516  -9.172  -3.731  0.00  0.00    +0.041 A 
ATOM     34  C   UNL     1       7.793  -9.195  -4.865  0.00  0.00    +0.195 A 
ATOM     35  O   UNL     1       6.521  -8.890  -4.563  0.00  0.00    -0.470 OA
ENDBRANCH  30  31
ENDBRANCH  24  30
ENDBRANCH  23  24
ENDBRANCH  22  23
ENDBRANCH  21  22
ENDBRANCH  17  21
ENDBRANCH   1  18
BRANCH  10  36
ATOM     36  C   UNL     1      -0.825   0.022  -6.755  0.00  0.00    +0.111 C 
BRANCH  36  37
ATOM     37  C   UNL     1      -1.964  -0.482  -7.643  0.00  0.00    +0.000 C 
ATOM     38  C   UNL     1      -3.264   0.225  -7.256  0.00  0.00    +0.009 C 
ATOM     39  C   UNL     1      -1.639  -0.184  -9.108  0.00  0.00    +0.009 C 
ENDBRANCH  36  37
ENDBRANCH  10  36
TORSDOF 12
