REMARK  Name = ZINC63761275
REMARK  5 active torsions:
REMARK  status: ('A' for Active; 'I' for Inactive)
REMARK    1  A    between atoms: C_1  and  C_2
REMARK    2  A    between atoms: C_5  and  C_33
REMARK    3  A    between atoms: C_6  and  N_8
REMARK    4  A    between atoms: C_9  and  S_32
REMARK    5  A    between atoms: C_13  and  C_16
REMARK                            x       y       z     vdW  Elec       q    Type
REMARK                         _______ _______ _______ _____ _____    ______ ____
ROOT
ATOM      1  N   UNL     1       0.245  -2.861   2.501  0.00  0.00    -0.242 N 
ATOM      2  C   UNL     1       1.465  -3.295   3.163  0.00  0.00    +0.225 C 
ATOM      3  N   UNL     1       1.230  -4.407   4.072  0.00  0.00    -0.288 N 
ATOM      4  C   UNL     1       0.027  -4.703   4.574  0.00  0.00    +0.229 C 
ATOM      5  C   UNL     1      -1.202  -3.914   4.225  0.00  0.00    +0.180 C 
ATOM      6  C   UNL     1      -0.979  -3.119   2.972  0.00  0.00    +0.235 C 
ATOM      7  O   UNL     1      -1.941  -2.700   2.364  0.00  0.00    -0.274 OA
ATOM      8  O   UNL     1      -0.075  -5.641   5.337  0.00  0.00    -0.275 OA
ATOM      9  H   UNL     1       1.984  -4.961   4.326  0.00  0.00    +0.151 HD
ENDROOT
BRANCH   5  10
ATOM     10  C   UNL     1      -1.531  -2.958   5.373  0.00  0.00    +0.101 C 
ATOM     11  C   UNL     1      -2.846  -2.232   5.079  0.00  0.00    +0.124 C 
ATOM     12  C   UNL     1      -3.011  -1.186   6.175  0.00  0.00    -0.036 C 
ATOM     13  C   UNL     1      -4.203  -1.393   6.716  0.00  0.00    -0.001 A 
ATOM     14  C   UNL     1      -4.954  -0.661   7.749  0.00  0.00    +0.010 A 
ATOM     15  C   UNL     1      -6.169  -1.171   8.082  0.00  0.00    +0.001 A 
ATOM     16  C   UNL     1      -6.707  -2.322   7.497  0.00  0.00    +0.002 A 
ATOM     17  C   UNL     1      -6.090  -3.054   6.536  0.00  0.00    +0.026 A 
ATOM     18  C   UNL     1      -4.807  -2.614   6.098  0.00  0.00    +0.043 A 
ATOM     19  N   UNL     1      -4.009  -3.114   5.174  0.00  0.00    -0.376 N 
ATOM     20  C   UNL     1      -1.898  -0.229   6.530  0.00  0.00    +0.048 C 
ATOM     21  C   UNL     1      -0.626  -1.084   6.673  0.00  0.00    +0.085 C 
ATOM     22  N   UNL     1      -0.466  -1.951   5.502  0.00  0.00    -0.310 NA
ATOM     23  H   UNL     1       0.445  -2.386   5.495  0.00  0.00    +0.122 HD
ATOM     24  H   UNL     1      -4.156  -3.918   4.653  0.00  0.00    +0.160 HD
ENDBRANCH   5  10
BRANCH   1  30
ATOM     25  C   UNL     1       0.646   1.478   0.222  0.00  0.00    +0.044 C 
ATOM     26  C   UNL     1       0.555  -0.026   0.179  0.00  0.00    -0.049 A 
ATOM     27  C   UNL     1       0.584  -0.685  -1.036  0.00  0.00    +0.004 A 
ATOM     28  C   UNL     1       0.501  -2.065  -1.080  0.00  0.00    +0.005 A 
ATOM     29  C   UNL     1       0.389  -2.789   0.091  0.00  0.00    -0.029 A 
ATOM     30  C   UNL     1       0.359  -2.130   1.313  0.00  0.00    +0.042 A 
ATOM     31  C   UNL     1       0.448  -0.745   1.353  0.00  0.00    +0.027 A 
ATOM     32  C   UNL     1       0.298  -4.292   0.042  0.00  0.00    +0.045 C 
ENDBRANCH   1  30
BRANCH   2  33
ATOM     33  S   UNL     1       2.667  -3.810   1.906  0.00  0.00    -0.136 S 
ATOM     34  H   UNL     1       3.743  -4.188   2.619  0.00  0.00    +0.105 HD
ENDBRANCH   2  33
TORSDOF 3
