REMARK  Name = ZINC39678776
REMARK  10 active torsions:
REMARK  status: ('A' for Active; 'I' for Inactive)
REMARK    1  A    between atoms: C_1  and  C_2
REMARK    2  A    between atoms: C_2  and  C_3
REMARK    3  A    between atoms: C_2  and  O_4
REMARK    4  A    between atoms: O_4  and  C_5
REMARK    5  A    between atoms: C_5  and  C_7
REMARK    6  A    between atoms: C_7  and  N_8
REMARK    7  A    between atoms: C_9  and  C_11
REMARK    8  A    between atoms: C_22  and  C_24
REMARK    9  A    between atoms: C_29  and  S_30
REMARK   10  A    between atoms: S_30  and  C_31
REMARK                            x       y       z     vdW  Elec       q    Type
REMARK                         _______ _______ _______ _____ _____    ______ ____
ROOT
ATOM      1  C   UNL     1      -3.955  -6.153  -2.014  0.00  0.00    +0.100 C 
ATOM      2  C   UNL     1      -3.630  -5.706  -3.457  0.00  0.00    +0.121 C 
ATOM      3  N   UNL     1      -4.533  -6.513  -4.311  0.00  0.00    -0.296 N 
ATOM      4  C   UNL     1      -5.811  -6.554  -3.561  0.00  0.00    +0.115 C 
ATOM      5  C   UNL     1      -5.388  -6.708  -2.086  0.00  0.00    -0.004 C 
ATOM      6  C   UNL     1      -6.314  -5.898  -1.185  0.00  0.00    -0.010 C 
ATOM      7  C   UNL     1      -7.720  -6.505  -1.228  0.00  0.00    -0.082 C 
ATOM      8  N   UNL     1      -7.666  -7.902  -0.779  0.00  0.00    +0.379 N 
ATOM      9  C   UNL     1      -6.847  -8.693  -1.705  0.00  0.00    -0.082 C 
ATOM     10  C   UNL     1      -5.405  -8.179  -1.682  0.00  0.00    -0.010 C 
ATOM     11  C   UNL     1      -4.255  -7.081  -5.502  0.00  0.00    +0.249 C 
ATOM     12  O   UNL     1      -5.135  -7.636  -6.131  0.00  0.00    -0.270 OA
ATOM     13  H   UNL     1      -7.261  -7.941   0.144  0.00  0.00    -0.086 HD
ATOM     14  H   UNL     1      -8.601  -8.280  -0.751  0.00  0.00    -0.086 HD
ENDROOT
BRANCH  11  15
ATOM     15  C   UNL     1      -2.884  -7.029  -6.041  0.00  0.00    +0.069 A 
ATOM     16  C   UNL     1      -2.077  -5.905  -5.830  0.00  0.00    +0.017 A 
ATOM     17  C   UNL     1      -0.798  -5.906  -6.356  0.00  0.00    +0.020 A 
ATOM     18  C   UNL     1      -0.355  -7.006  -7.070  0.00  0.00    +0.112 A 
ATOM     19  N   UNL     1      -1.130  -8.055  -7.258  0.00  0.00    -0.248 NA
ATOM     20  C   UNL     1      -2.361  -8.110  -6.772  0.00  0.00    +0.114 A 
BRANCH  20  21
ATOM     21  S   UNL     1      -3.350  -9.541  -7.049  0.00  0.00    -0.069 S 
BRANCH  21  22
ATOM     22  C   UNL     1      -2.369 -10.537  -8.120  0.00  0.00    +0.014 A 
ATOM     23  C   UNL     1      -1.553 -11.531  -7.593  0.00  0.00    +0.015 A 
ATOM     24  C   UNL     1      -0.785 -12.310  -8.436  0.00  0.00    +0.001 A 
ATOM     25  C   UNL     1      -0.827 -12.102  -9.803  0.00  0.00    +0.000 A 
ATOM     26  C   UNL     1      -1.637 -11.114 -10.330  0.00  0.00    +0.001 A 
ATOM     27  C   UNL     1      -2.413 -10.335  -9.494  0.00  0.00    +0.015 A 
ENDBRANCH  21  22
ENDBRANCH  20  21
ENDBRANCH  11  15
BRANCH   1  29
ATOM     28  N   UNL     1      -3.571  -5.164   0.221  0.00  0.00    -0.305 N 
ATOM     29  C   UNL     1      -3.895  -4.976  -1.074  0.00  0.00    +0.219 C 
ATOM     30  O   UNL     1      -4.138  -3.861  -1.483  0.00  0.00    -0.275 OA
ATOM     31  H   UNL     1      -3.377  -6.056   0.547  0.00  0.00    +0.149 HD
BRANCH  28  32
ATOM     32  C   UNL     1      -3.513  -4.020   1.134  0.00  0.00    +0.224 C 
BRANCH  32  33
ATOM     33  C   UNL     1      -3.131  -4.497   2.512  0.00  0.00    +0.325 C 
ATOM     34  O   UNL     1      -2.929  -5.671   2.710  0.00  0.00    -0.249 OA
BRANCH  33  35
ATOM     35  O   UNL     1      -3.016  -3.616   3.519  0.00  0.00    -0.461 OA
BRANCH  35  37
ATOM     36  C   UNL     1      -1.867  -3.079   5.575  0.00  0.00    +0.052 C 
ATOM     37  C   UNL     1      -2.651  -4.138   4.798  0.00  0.00    +0.170 C 
ATOM     38  C   UNL     1      -3.915  -4.510   5.576  0.00  0.00    +0.052 C 
ENDBRANCH  35  37
ENDBRANCH  33  35
ENDBRANCH  32  33
ENDBRANCH  28  32
ENDBRANCH   1  29
TORSDOF 8
