REMARK  Name = ZINC09007400
REMARK  12 active torsions:
REMARK  status: ('A' for Active; 'I' for Inactive)
REMARK    1  A    between atoms: C_1  and  C_2
REMARK    2  A    between atoms: C_2  and  C_3
REMARK    3  A    between atoms: C_2  and  C_4
REMARK    4  A    between atoms: C_7  and  S_10
REMARK    5  A    between atoms: S_10  and  C_13
REMARK    6  A    between atoms: C_13  and  C_15
REMARK    7  A    between atoms: C_13  and  C_32
REMARK    8  A    between atoms: C_15  and  N_16
REMARK    9  A    between atoms: N_16  and  S_17
REMARK   10  A    between atoms: S_17  and  C_20
REMARK   11  A    between atoms: C_23  and  O_26
REMARK   12  A    between atoms: O_26  and  C_27
REMARK                            x       y       z     vdW  Elec       q    Type
REMARK                         _______ _______ _______ _____ _____    ______ ____
ROOT
ATOM      1  C   UNL     1      -1.445   2.457  -1.768  0.00  0.00    +0.183 C 
ENDROOT
BRANCH   1   2
ATOM      2  C   UNL     1      -1.690   3.939  -1.890  0.00  0.00    -0.004 A 
ATOM      3  C   UNL     1      -2.980   4.445  -1.827  0.00  0.00    +0.008 A 
ATOM      4  C   UNL     1      -3.157   5.815  -1.944  0.00  0.00    +0.020 A 
ATOM      5  C   UNL     1      -2.051   6.625  -2.119  0.00  0.00    +0.111 A 
ATOM      6  N   UNL     1      -0.839   6.108  -2.175  0.00  0.00    -0.263 NA
ATOM      7  C   UNL     1      -0.632   4.811  -2.061  0.00  0.00    +0.116 A 
ENDBRANCH   1   2
BRANCH   1   8
ATOM      8  S   UNL     1      -0.379   2.136  -0.336  0.00  0.00    +0.005 S 
ATOM      9  O   UNL     1      -0.283   0.738  -0.100  0.00  0.00    -0.169 OA
ATOM     10  O   UNL     1       0.791   2.941  -0.407  0.00  0.00    -0.169 OA
BRANCH   8  14
ATOM     11  C   UNL     1      -2.678   3.752   3.213  0.00  0.00    -0.045 A 
ATOM     12  C   UNL     1      -2.848   2.438   2.820  0.00  0.00    +0.006 A 
ATOM     13  C   UNL     1      -2.145   1.944   1.736  0.00  0.00    +0.027 A 
ATOM     14  C   UNL     1      -1.274   2.765   1.045  0.00  0.00    +0.089 A 
ATOM     15  C   UNL     1      -1.100   4.078   1.442  0.00  0.00    +0.027 A 
ATOM     16  C   UNL     1      -1.806   4.573   2.523  0.00  0.00    +0.006 A 
BRANCH  11  18
ATOM     17  C   UNL     1      -2.462   4.768   5.465  0.00  0.00    +0.012 C 
ATOM     18  C   UNL     1      -3.444   4.290   4.394  0.00  0.00    +0.013 C 
ATOM     19  C   UNL     1      -4.317   5.463   3.943  0.00  0.00    +0.012 C 
ENDBRANCH  11  18
ENDBRANCH   8  14
ENDBRANCH   1   8
BRANCH   1  20
ATOM     20  C   UNL     1      -0.761   1.946  -3.038  0.00  0.00    +0.137 C 
BRANCH  20  21
ATOM     21  N   UNL     1      -0.523   0.506  -2.919  0.00  0.00    -0.188 NA
ATOM     22  H   UNL     1      -0.588   0.073  -2.053  0.00  0.00    +0.148 HD
BRANCH  21  23
ATOM     23  S   UNL     1      -0.144  -0.385  -4.263  0.00  0.00    +0.058 S 
ATOM     24  O   UNL     1       0.051  -1.722  -3.822  0.00  0.00    -0.153 OA
ATOM     25  O   UNL     1      -1.097  -0.042  -5.259  0.00  0.00    -0.153 OA
BRANCH  23  26
ATOM     26  C   UNL     1       1.419   0.187  -4.842  0.00  0.00    +0.105 A 
ATOM     27  C   UNL     1       1.479   1.216  -5.764  0.00  0.00    +0.032 A 
ATOM     28  C   UNL     1       2.703   1.670  -6.216  0.00  0.00    +0.047 A 
ATOM     29  C   UNL     1       3.873   1.085  -5.751  0.00  0.00    +0.121 A 
ATOM     30  C   UNL     1       3.810   0.050  -4.830  0.00  0.00    +0.047 A 
ATOM     31  C   UNL     1       2.583  -0.397  -4.377  0.00  0.00    +0.032 A 
BRANCH  29  32
ATOM     32  O   UNL     1       5.078   1.527  -6.198  0.00  0.00    -0.489 OA
BRANCH  32  33
ATOM     33  C   UNL     1       6.233   0.800  -5.773  0.00  0.00    +0.173 C 
ATOM     34  C   UNL     1       6.726   1.339  -4.414  0.00  0.00    +0.044 C 
ATOM     35  C   UNL     1       8.271   1.266  -4.516  0.00  0.00    +0.004 C 
ATOM     36  C   UNL     1       8.537   1.667  -5.988  0.00  0.00    +0.004 C 
ATOM     37  C   UNL     1       7.383   1.008  -6.773  0.00  0.00    +0.044 C 
ENDBRANCH  32  33
ENDBRANCH  29  32
ENDBRANCH  23  26
ENDBRANCH  21  23
ENDBRANCH  20  21
ENDBRANCH   1  20
TORSDOF 10
