REMARK  Name = ZINC49542803
REMARK  8 active torsions:
REMARK  status: ('A' for Active; 'I' for Inactive)
REMARK    1  A    between atoms: C_1  and  C_2
REMARK    2  A    between atoms: C_2  and  C_3
REMARK    3  A    between atoms: C_3  and  C_5
REMARK    4  A    between atoms: C_3  and  N_13
REMARK    5  A    between atoms: N_13  and  C_14
REMARK    6  A    between atoms: C_19  and  C_20
REMARK    7  A    between atoms: C_20  and  C_22
REMARK    8  A    between atoms: C_20  and  O_23
REMARK                            x       y       z     vdW  Elec       q    Type
REMARK                         _______ _______ _______ _____ _____    ______ ____
ROOT
ATOM      1  N   UNL     1       2.111   0.009   1.181  0.00  0.00    -0.337 N 
ATOM      2  H   UNL     1       2.812  -0.520   0.769  0.00  0.00    +0.147 HD
ENDROOT
BRANCH   1   3
ATOM      3  C   UNL     1       2.405   1.265   1.715  0.00  0.00    +0.033 A 
ATOM      4  C   UNL     1       1.402   2.021   2.309  0.00  0.00    +0.023 A 
ATOM      5  C   UNL     1       1.696   3.263   2.837  0.00  0.00    +0.002 A 
ATOM      6  C   UNL     1       2.988   3.754   2.774  0.00  0.00    +0.000 A 
ATOM      7  C   UNL     1       3.988   3.005   2.182  0.00  0.00    +0.008 A 
ATOM      8  C   UNL     1       3.701   1.759   1.658  0.00  0.00    +0.001 A 
BRANCH   8   9
ATOM      9  C   UNL     1       4.794   0.940   1.020  0.00  0.00    +0.143 C 
ATOM     10  C   UNL     1       4.793   1.179  -0.491  0.00  0.00    +0.043 C 
BRANCH   9  11
ATOM     11  O   UNL     1       6.058   1.326   1.563  0.00  0.00    -0.387 OA
ATOM     12  H   UNL     1       6.809   0.839   1.196  0.00  0.00    +0.210 HD
ENDBRANCH   9  11
ENDBRANCH   8   9
ENDBRANCH   1   3
BRANCH   1  13
ATOM     13  C   UNL     1       0.742  -0.511   1.242  0.00  0.00    +0.102 C 
BRANCH  13  14
ATOM     14  C   UNL     1       0.776  -1.976   1.592  0.00  0.00    -0.009 A 
ATOM     15  C   UNL     1       1.887  -2.736   1.278  0.00  0.00    +0.008 A 
ATOM     16  C   UNL     1       1.919  -4.080   1.600  0.00  0.00    +0.020 A 
ATOM     17  C   UNL     1       0.839  -4.665   2.237  0.00  0.00    +0.042 A 
ATOM     18  C   UNL     1      -0.273  -3.905   2.551  0.00  0.00    +0.040 A 
ATOM     19  C   UNL     1      -0.302  -2.559   2.234  0.00  0.00    +0.047 A 
ATOM     20 CL   UNL     1      -1.695  -1.603   2.634  0.00  0.00    -0.083 Cl
ATOM     21 CL   UNL     1       0.880  -6.353   2.640  0.00  0.00    -0.083 Cl
ENDBRANCH  13  14
BRANCH  13  23
ATOM     22  C   UNL     1      -0.081   1.165  -0.418  0.00  0.00    +0.006 C 
ATOM     23  C   UNL     1       0.066  -0.328  -0.119  0.00  0.00    +0.024 C 
ENDBRANCH  13  23
ENDBRANCH   1  13
TORSDOF 6
