REMARK  Name = ZINC46809622
REMARK  14 active torsions:
REMARK  status: ('A' for Active; 'I' for Inactive)
REMARK    1  A    between atoms: C_1  and  C_2
REMARK    2  A    between atoms: C_2  and  N_3
REMARK    3  A    between atoms: N_3  and  C_4
REMARK    4  A    between atoms: N_3  and  C_6
REMARK    5  A    between atoms: C_4  and  C_5
REMARK    6  A    between atoms: C_6  and  C_8
REMARK    7  A    between atoms: C_6  and  C_29
REMARK    8  A    between atoms: C_8  and  N_9
REMARK    9  A    between atoms: C_10  and  C_12
REMARK   10  A    between atoms: C_12  and  C_14
REMARK   11  A    between atoms: C_12  and  N_15
REMARK   12  A    between atoms: N_15  and  S_16
REMARK   13  A    between atoms: S_16  and  C_19
REMARK   14  A    between atoms: C_24  and  C_25
REMARK                            x       y       z     vdW  Elec       q    Type
REMARK                         _______ _______ _______ _____ _____    ______ ____
ROOT
ATOM      1  N   UNL     1       1.034   0.282   2.280  0.00  0.00    -0.315 N 
ATOM      2  C   UNL     1       0.924   1.576   2.641  0.00  0.00    +0.231 C 
ATOM      3  O   UNL     1       1.314   1.937   3.731  0.00  0.00    -0.274 OA
ATOM      4  H   UNL     1       0.789   0.006   1.383  0.00  0.00    +0.149 HD
ENDROOT
BRANCH   2   5
ATOM      5  C   UNL     1       0.316   2.574   1.690  0.00  0.00    +0.159 C 
ATOM      6  C   UNL     1       1.142   2.621   0.403  0.00  0.00    +0.035 C 
BRANCH   5   7
ATOM      7  N   UNL     1       0.306   3.900   2.313  0.00  0.00    -0.178 NA
ATOM      8  H   UNL     1       1.036   4.168   2.894  0.00  0.00    +0.149 HD
BRANCH   7   9
ATOM      9  S   UNL     1      -0.950   4.941   2.027  0.00  0.00    +0.060 S 
ATOM     10  O   UNL     1      -0.698   6.104   2.803  0.00  0.00    -0.153 OA
ATOM     11  O   UNL     1      -1.125   4.988   0.618  0.00  0.00    -0.153 OA
BRANCH   9  12
ATOM     12  C   UNL     1      -2.403   4.198   2.691  0.00  0.00    +0.117 A 
ATOM     13  C   UNL     1      -3.423   3.800   1.847  0.00  0.00    +0.029 A 
ATOM     14  C   UNL     1      -4.563   3.217   2.367  0.00  0.00    +0.002 A 
ATOM     15  C   UNL     1      -4.684   3.032   3.732  0.00  0.00    +0.001 A 
ATOM     16  C   UNL     1      -3.664   3.430   4.576  0.00  0.00    +0.014 A 
ATOM     17  C   UNL     1      -2.521   4.008   4.055  0.00  0.00    +0.081 A 
BRANCH  17  18
ATOM     18  C   UNL     1      -1.407   4.437   4.974  0.00  0.00    +0.419 C 
ATOM     19  F   UNL     1      -1.675   3.989   6.272  0.00  0.00    -0.166 F 
ATOM     20  F   UNL     1      -0.199   3.887   4.532  0.00  0.00    -0.166 F 
ATOM     21  F   UNL     1      -1.312   5.833   4.973  0.00  0.00    -0.166 F 
ENDBRANCH  17  18
ENDBRANCH   9  12
ENDBRANCH   7   9
ENDBRANCH   5   7
ENDBRANCH   2   5
BRANCH   1  22
ATOM     22  C   UNL     1       1.523  -0.708   3.244  0.00  0.00    +0.093 C 
BRANCH  22  23
ATOM     23  C   UNL     1       1.675  -2.063   2.550  0.00  0.00    -0.020 C 
BRANCH  23  24
ATOM     24  C   UNL     1       2.096  -3.100   3.559  0.00  0.00    -0.052 A 
ATOM     25  C   UNL     1       3.029  -4.064   3.227  0.00  0.00    +0.009 A 
ATOM     26  C   UNL     1       3.386  -4.982   4.158  0.00  0.00    +0.045 A 
ATOM     27  S   UNL     1       2.389  -4.495   5.557  0.00  0.00    -0.105 S 
ATOM     28  C   UNL     1       1.569  -3.098   4.808  0.00  0.00    +0.047 A 
ENDBRANCH  23  24
BRANCH  23  29
ATOM     29  N   UNL     1       0.391  -2.454   1.952  0.00  0.00    +0.385 N 
ATOM     30  H   UNL     1       0.091  -1.742   1.303  0.00  0.00    -0.081 HD
BRANCH  29  32
ATOM     31  C   UNL     1       1.479  -3.533   0.042  0.00  0.00    -0.017 C 
ATOM     32  C   UNL     1       0.550  -3.729   1.241  0.00  0.00    -0.081 C 
ENDBRANCH  29  32
BRANCH  29  33
ATOM     33  C   UNL     1      -0.616  -2.605   3.011  0.00  0.00    -0.081 C 
ATOM     34  C   UNL     1      -1.326  -1.269   3.236  0.00  0.00    -0.017 C 
ENDBRANCH  29  33
ENDBRANCH  23  29
ENDBRANCH  22  23
ENDBRANCH   1  22
TORSDOF 11
