REMARK  Name = ZINC03372076
REMARK  11 active torsions:
REMARK  status: ('A' for Active; 'I' for Inactive)
REMARK    1  A    between atoms: C_1  and  C_2
REMARK    2  A    between atoms: C_2  and  C_3
REMARK    3  A    between atoms: C_3  and  C_4
REMARK    4  A    between atoms: C_4  and  N_5
REMARK    5  A    between atoms: C_9  and  S_29
REMARK    6  A    between atoms: C_13  and  S_14
REMARK    7  A    between atoms: S_14  and  C_15
REMARK    8  A    between atoms: C_15  and  C_16
REMARK    9  A    between atoms: N_18  and  C_19
REMARK   10  A    between atoms: C_20  and  C_27
REMARK   11  A    between atoms: S_29  and  N_32
REMARK                            x       y       z     vdW  Elec       q    Type
REMARK                         _______ _______ _______ _____ _____    ______ ____
ROOT
ATOM      1  N   UNL     1      -3.044   5.776   0.053  0.00  0.00    -0.319 N 
ATOM      2  C   UNL     1      -4.429   5.822   0.054  0.00  0.00    +0.070 A 
ATOM      3  C   UNL     1      -5.356   6.853   0.064  0.00  0.00    +0.030 A 
ATOM      4  C   UNL     1      -6.705   6.563   0.069  0.00  0.00    +0.030 A 
ATOM      5  C   UNL     1      -7.141   5.247   0.065  0.00  0.00    +0.107 A 
ATOM      6  C   UNL     1      -6.234   4.210   0.055  0.00  0.00    +0.058 A 
ATOM      7  C   UNL     1      -4.865   4.487   0.050  0.00  0.00    +0.092 A 
ATOM      8  N   UNL     1      -3.754   3.704   0.040  0.00  0.00    -0.222 NA
ATOM      9  C   UNL     1      -2.683   4.458   0.039  0.00  0.00    +0.170 A 
ENDROOT
BRANCH   5  10
ATOM     10  S   UNL     1      -8.868   4.897   0.071  0.00  0.00    +0.056 S 
ATOM     11  O   UNL     1      -9.016   3.593   0.617  0.00  0.00    -0.153 OA
ATOM     12  O   UNL     1      -9.510   6.034   0.631  0.00  0.00    -0.153 OA
BRANCH  10  13
ATOM     13  N   UNL     1      -9.356   4.808  -1.509  0.00  0.00    -0.204 NA
ATOM     14  H   UNL     1      -8.713   4.942  -2.223  0.00  0.00    +0.144 HD
ATOM     15  H   UNL     1     -10.284   4.621  -1.720  0.00  0.00    +0.144 HD
ENDBRANCH  10  13
ENDBRANCH   5  10
BRANCH   1  16
ATOM     16  C   UNL     1      -2.136   6.926   0.062  0.00  0.00    +0.124 C 
BRANCH  16  17
ATOM     17  C   UNL     1      -1.825   7.341  -1.377  0.00  0.00    +0.021 C 
BRANCH  17  19
ATOM     18  C   UNL     1      -0.566   8.957  -2.808  0.00  0.00    +0.004 C 
ATOM     19  C   UNL     1      -0.877   8.542  -1.368  0.00  0.00    -0.002 C 
ENDBRANCH  17  19
ENDBRANCH  16  17
ENDBRANCH   1  16
BRANCH   9  20
ATOM     20  S   UNL     1      -1.025   3.863   0.028  0.00  0.00    -0.078 S 
BRANCH  20  21
ATOM     21  C   UNL     1      -1.331   2.079   0.020  0.00  0.00    +0.173 C 
BRANCH  21  22
ATOM     22  C   UNL     1      -0.016   1.344   0.009  0.00  0.00    +0.228 C 
ATOM     23  O   UNL     1       1.026   1.964   0.003  0.00  0.00    -0.275 OA
ATOM     24  N   UNL     1       0.002  -0.004   0.002  0.00  0.00    -0.278 N 
ATOM     25  H   UNL     1      -0.831  -0.500   0.007  0.00  0.00    +0.155 HD
BRANCH  24  26
ATOM     26  C   UNL     1       1.213  -0.682  -0.013  0.00  0.00    +0.090 A 
ATOM     27  C   UNL     1       1.435  -2.047  -0.017  0.00  0.00    +0.084 A 
ATOM     28  C   UNL     1       2.821  -2.509  -0.038  0.00  0.00    -0.018 A 
ATOM     29  C   UNL     1       3.748  -1.534  -0.042  0.00  0.00    -0.004 A 
ATOM     30  S   UNL     1       2.814  -0.023  -0.024  0.00  0.00    -0.077 S 
ATOM     31  C   UNL     1       5.148  -2.086  -0.061  0.00  0.00    +0.043 C 
ATOM     32  C   UNL     1       4.981  -3.555  -0.506  0.00  0.00    +0.010 C 
ATOM     33  C   UNL     1       3.539  -3.859  -0.051  0.00  0.00    +0.037 C 
BRANCH  27  34
ATOM     34  C   UNL     1       0.344  -2.975  -0.005  0.00  0.00    +0.102 C 
ATOM     35  N   UNL     1      -0.521  -3.711   0.005  0.00  0.00    -0.191 NA
ENDBRANCH  27  34
ENDBRANCH  24  26
ENDBRANCH  21  22
ENDBRANCH  20  21
ENDBRANCH   9  20
TORSDOF 10
