REMARK  Name = ZINC21367961
REMARK  12 active torsions:
REMARK  status: ('A' for Active; 'I' for Inactive)
REMARK    1  A    between atoms: C_1  and  C_2
REMARK    2  A    between atoms: C_8  and  N_10
REMARK    3  A    between atoms: C_11  and  C_13
REMARK    4  A    between atoms: C_13  and  O_14
REMARK    5  A    between atoms: O_14  and  C_15
REMARK    6  A    between atoms: C_15  and  C_17
REMARK    7  A    between atoms: C_20  and  C_23
REMARK    8  A    between atoms: C_23  and  O_25
REMARK    9  A    between atoms: O_25  and  C_26
REMARK   10  A    between atoms: C_26  and  C_27
REMARK   11  A    between atoms: N_29  and  C_30
REMARK   12  A    between atoms: C_36  and  C_38
REMARK                            x       y       z     vdW  Elec       q    Type
REMARK                         _______ _______ _______ _____ _____    ______ ____
ROOT
ATOM      1  C   UNL     1       6.553   1.220   5.238  0.00  0.00    +0.059 A 
ATOM      2  C   UNL     1       5.802   0.824   6.346  0.00  0.00    +0.016 A 
ATOM      3  C   UNL     1       6.346   0.895   7.609  0.00  0.00    +0.016 A 
ATOM      4  C   UNL     1       7.650   1.364   7.782  0.00  0.00    +0.059 A 
ATOM      5  C   UNL     1       8.402   1.759   6.675  0.00  0.00    +0.016 A 
ATOM      6  C   UNL     1       7.859   1.683   5.410  0.00  0.00    +0.016 A 
ENDROOT
BRANCH   1   7
ATOM      7  C   UNL     1       5.969   1.144   3.881  0.00  0.00    +0.340 C 
ATOM      8  O   UNL     1       6.625   1.484   2.917  0.00  0.00    -0.245 OA
BRANCH   7   9
ATOM      9  O   UNL     1       4.709   0.697   3.715  0.00  0.00    -0.452 OA
BRANCH   9  10
ATOM     10  C   UNL     1       4.209   0.649   2.377  0.00  0.00    +0.328 C 
BRANCH  10  12
ATOM     11  N   UNL     1       2.116  -0.004   1.231  0.00  0.00    -0.309 N 
ATOM     12  C   UNL     1       2.795   0.128   2.388  0.00  0.00    +0.251 C 
ATOM     13  O   UNL     1       2.268  -0.174   3.438  0.00  0.00    -0.272 OA
ATOM     14  H   UNL     1       2.538   0.237   0.392  0.00  0.00    +0.149 HD
BRANCH  11  21
ATOM     15  C   UNL     1      -0.019   1.526   0.010  0.00  0.00    +0.009 C 
ATOM     16  C   UNL     1       0.002  -0.004   0.002  0.00  0.00    +0.006 C 
ATOM     17  C   UNL     1       0.718  -0.497  -1.257  0.00  0.00    +0.005 C 
ATOM     18  C   UNL     1       0.739  -2.027  -1.265  0.00  0.00    +0.000 C 
ATOM     19  C   UNL     1       1.479  -2.534  -0.026  0.00  0.00    +0.002 C 
ATOM     20  C   UNL     1       0.763  -2.041   1.233  0.00  0.00    +0.022 C 
ATOM     21  C   UNL     1       0.742  -0.511   1.242  0.00  0.00    +0.076 C 
ENDBRANCH  11  21
ENDBRANCH  10  12
ENDBRANCH   9  10
ENDBRANCH   7   9
ENDBRANCH   1   7
BRANCH   4  22
ATOM     22  C   UNL     1       8.235   1.441   9.139  0.00  0.00    +0.340 C 
ATOM     23  O   UNL     1       7.580   1.098  10.103  0.00  0.00    -0.245 OA
BRANCH  22  24
ATOM     24  O   UNL     1       9.492   1.893   9.306  0.00  0.00    -0.452 OA
BRANCH  24  25
ATOM     25  C   UNL     1       9.992   1.941  10.644  0.00  0.00    +0.328 C 
BRANCH  25  26
ATOM     26  C   UNL     1      11.404   2.468  10.633  0.00  0.00    +0.251 C 
ATOM     27  O   UNL     1      11.930   2.772   9.584  0.00  0.00    -0.272 OA
ATOM     28  N   UNL     1      12.082   2.601  11.791  0.00  0.00    -0.309 N 
ATOM     29  H   UNL     1      11.662   2.357  12.630  0.00  0.00    +0.149 HD
BRANCH  28  30
ATOM     30  C   UNL     1      13.455   3.114  11.781  0.00  0.00    +0.076 C 
ATOM     31  C   UNL     1      13.428   4.643  11.791  0.00  0.00    +0.022 C 
ATOM     32  C   UNL     1      14.861   5.178  11.781  0.00  0.00    +0.002 C 
ATOM     33  C   UNL     1      15.603   4.673  13.020  0.00  0.00    +0.000 C 
ATOM     34  C   UNL     1      15.630   3.143  13.010  0.00  0.00    +0.005 C 
ATOM     35  C   UNL     1      14.197   2.608  13.020  0.00  0.00    +0.006 C 
ATOM     36  C   UNL     1      14.223   1.079  13.010  0.00  0.00    +0.009 C 
ENDBRANCH  28  30
ENDBRANCH  25  26
ENDBRANCH  24  25
ENDBRANCH  22  24
ENDBRANCH   4  22
TORSDOF 10
