REMARK  Name = ZINC08917697
REMARK  12 active torsions:
REMARK  status: ('A' for Active; 'I' for Inactive)
REMARK    1  A    between atoms: C_1  and  C_2
REMARK    2  A    between atoms: C_16  and  O_33
REMARK    3  A    between atoms: C_18  and  O_23
REMARK    4  A    between atoms: O_23  and  C_24
REMARK    5  A    between atoms: C_24  and  C_25
REMARK    6  A    between atoms: C_25  and  C_27
REMARK    7  A    between atoms: C_25  and  O_32
REMARK    8  A    between atoms: C_27  and  N_28
REMARK    9  A    between atoms: N_28  and  C_29
REMARK   10  A    between atoms: C_29  and  C_30
REMARK   11  A    between atoms: C_29  and  C_31
REMARK   12  A    between atoms: O_33  and  C_34
REMARK                            x       y       z     vdW  Elec       q    Type
REMARK                         _______ _______ _______ _____ _____    ______ ____
ROOT
ATOM      1  C   UNL     1      -0.019   1.527   0.010  0.00  0.00    +0.052 C 
ATOM      2  C   UNL     1       0.002  -0.004   0.002  0.00  0.00    +0.174 C 
ATOM      3  C   UNL     1       0.721  -0.507  -1.248  0.00  0.00    +0.045 C 
ATOM      4  C   UNL     1      -0.206  -0.452  -2.464  0.00  0.00    +0.011 C 
ATOM      5  C   UNL     1       0.444  -1.234  -3.611  0.00  0.00    +0.074 C 
ATOM      6  C   UNL     1       1.739  -0.564  -4.000  0.00  0.00    +0.133 C 
ATOM      7  O   UNL     1       1.717   0.513  -4.546  0.00  0.00    -0.297 OA
ATOM      8  C   UNL     1       3.055  -1.233  -3.711  0.00  0.00    +0.074 C 
ATOM      9  C   UNL     1       4.169  -0.188  -3.672  0.00  0.00    +0.012 C 
ATOM     10  C   UNL     1       5.327  -0.701  -2.804  0.00  0.00    +0.027 C 
ATOM     11  C   UNL     1       5.307   0.043  -1.484  0.00  0.00    -0.026 C 
ATOM     12  C   UNL     1       4.250  -0.118  -0.699  0.00  0.00    +0.005 C 
ATOM     13  C   UNL     1       4.145   0.580   0.588  0.00  0.00    -0.004 A 
ATOM     14  C   UNL     1       5.143   1.436   1.027  0.00  0.00    +0.054 A 
ATOM     15  C   UNL     1       5.002   2.137   2.214  0.00  0.00    +0.124 A 
ATOM     16  C   UNL     1       3.846   1.987   2.975  0.00  0.00    +0.092 A 
ATOM     17  C   UNL     1       2.849   1.115   2.572  0.00  0.00    +0.139 A 
ATOM     18  C   UNL     1       2.999   0.377   1.392  0.00  0.00    +0.108 A 
ATOM     19  C   UNL     1       2.028  -0.642   0.997  0.00  0.00    +0.344 C 
ATOM     20  O   UNL     1       2.417  -1.670   0.483  0.00  0.00    -0.245 OA
ATOM     21  O   UNL     1       0.698  -0.488   1.163  0.00  0.00    -0.458 OA
ENDROOT
BRANCH  15  22
ATOM     22  O   UNL     1       5.990   2.967   2.635  0.00  0.00    -0.495 OA
ATOM     23  C   UNL     1       5.777   3.657   3.868  0.00  0.00    +0.277 C 
ENDBRANCH  15  22
BRANCH  17  24
ATOM     24  O   UNL     1       1.727   0.975   3.322  0.00  0.00    -0.489 OA
BRANCH  24  25
ATOM     25  C   UNL     1       1.642   1.759   4.514  0.00  0.00    +0.258 C 
BRANCH  25  26
ATOM     26  C   UNL     1       0.317   1.469   5.222  0.00  0.00    +0.135 C 
BRANCH  26  27
ATOM     27  O   UNL     1       0.299   0.109   5.661  0.00  0.00    -0.390 OA
ATOM     28  H   UNL     1       1.008  -0.113   6.281  0.00  0.00    +0.210 HD
ENDBRANCH  26  27
BRANCH  26  29
ATOM     29  C   UNL     1       0.169   2.397   6.429  0.00  0.00    -0.047 C 
BRANCH  29  30
ATOM     30  N   UNL     1      -1.103   2.119   7.108  0.00  0.00    +0.382 N 
ATOM     31  H   UNL     1      -1.867   2.276   6.468  0.00  0.00    -0.085 HD
ATOM     32  H   UNL     1      -1.116   1.159   7.419  0.00  0.00    -0.085 HD
BRANCH  30  33
ATOM     33  C   UNL     1      -1.245   3.010   8.267  0.00  0.00    -0.078 C 
ATOM     34  C   UNL     1      -2.623   2.808   8.901  0.00  0.00    -0.014 C 
ATOM     35  C   UNL     1      -0.158   2.687   9.295  0.00  0.00    -0.014 C 
ENDBRANCH  30  33
ENDBRANCH  29  30
ENDBRANCH  26  29
ENDBRANCH  25  26
ENDBRANCH  24  25
ENDBRANCH  17  24
TORSDOF 8
