REMARK  Name = ZINC14113758
REMARK  2 active torsions:
REMARK  status: ('A' for Active; 'I' for Inactive)
REMARK    1  A    between atoms: C_10  and  S_11
REMARK    2  A    between atoms: S_11  and  N_14
REMARK                            x       y       z     vdW  Elec       q    Type
REMARK                         _______ _______ _______ _____ _____    ______ ____
ROOT
ATOM      1  S   UNL     1      -2.845   3.930   0.051  0.00  0.00    +0.076 S 
ATOM      2  O   UNL     1      -3.032   4.965  -0.905  0.00  0.00    -0.150 OA
ATOM      3  O   UNL     1      -3.640   2.752   0.065  0.00  0.00    -0.150 OA
ENDROOT
BRANCH   1   4
ATOM      4  N   UNL     1      -3.010   4.630   1.544  0.00  0.00    -0.192 N 
ATOM      5  C   UNL     1      -3.540   3.868   2.684  0.00  0.00    +0.227 C 
ATOM      6  C   UNL     1      -4.492   4.736   3.459  0.00  0.00    +0.236 C 
ATOM      7  O   UNL     1      -5.406   4.224   4.071  0.00  0.00    -0.274 OA
ATOM      8  N   UNL     1      -4.345   6.074   3.480  0.00  0.00    -0.283 N 
ATOM      9  C   UNL     1      -3.329   6.693   2.742  0.00  0.00    +0.056 A 
ATOM     10  C   UNL     1      -2.653   5.968   1.758  0.00  0.00    +0.073 A 
ATOM     11  C   UNL     1      -1.652   6.569   1.016  0.00  0.00    +0.026 A 
ATOM     12  C   UNL     1      -1.319   7.891   1.255  0.00  0.00    +0.002 A 
ATOM     13  C   UNL     1      -1.985   8.610   2.230  0.00  0.00    +0.002 A 
ATOM     14  C   UNL     1      -2.989   8.015   2.975  0.00  0.00    +0.025 A 
ATOM     15  H   UNL     1      -4.949   6.615   4.011  0.00  0.00    +0.155 HD
ENDBRANCH   1   4
BRANCH   1  25
ATOM     16  C   UNL     1       0.346   0.358   2.328  0.00  0.00    +0.001 A 
ATOM     17  C   UNL     1      -0.982   0.760   2.460  0.00  0.00    +0.001 A 
ATOM     18  C   UNL     1      -1.495   1.751   1.680  0.00  0.00    +0.010 A 
ATOM     19  C   UNL     1      -0.676   2.380   0.727  0.00  0.00    +0.009 A 
ATOM     20  C   UNL     1       0.675   1.971   0.593  0.00  0.00    -0.016 A 
ATOM     21  C   UNL     1       1.169   0.944   1.417  0.00  0.00    +0.008 A 
ATOM     22  C   UNL     1       1.494   2.600  -0.359  0.00  0.00    +0.008 A 
ATOM     23  C   UNL     1       0.981   3.591  -1.139  0.00  0.00    +0.003 A 
ATOM     24  C   UNL     1      -0.345   3.997  -1.004  0.00  0.00    +0.029 A 
ATOM     25  C   UNL     1      -1.169   3.406  -0.096  0.00  0.00    +0.116 A 
ENDBRANCH   1  25
TORSDOF 2
