REMARK  Name = ZINC14746834
REMARK  12 active torsions:
REMARK  status: ('A' for Active; 'I' for Inactive)
REMARK    1  A    between atoms: C_1  and  C_2
REMARK    2  A    between atoms: C_2  and  C_3
REMARK    3  A    between atoms: C_3  and  C_5
REMARK    4  A    between atoms: C_3  and  N_64
REMARK    5  A    between atoms: N_13  and  C_27
REMARK    6  A    between atoms: N_16  and  C_17
REMARK    7  A    between atoms: C_17  and  C_18
REMARK    8  A    between atoms: C_18  and  C_19
REMARK    9  A    between atoms: C_22  and  O_25
REMARK   10  A    between atoms: O_25  and  C_26
REMARK   11  A    between atoms: C_27  and  C_28
REMARK   12  A    between atoms: C_27  and  C_29
REMARK                            x       y       z     vdW  Elec       q    Type
REMARK                         _______ _______ _______ _____ _____    ______ ____
ROOT
ATOM      1  C   UNL     1      -0.982   7.640   2.470  0.00  0.00    -0.076 C 
ATOM      2  C   UNL     1      -1.302   6.191   2.846  0.00  0.00    +0.017 C 
ATOM      3  C   UNL     1      -0.837   5.264   1.727  0.00  0.00    +0.112 C 
ATOM      4  C   UNL     1      -1.477   5.666   0.402  0.00  0.00    +0.017 C 
ATOM      5  C   UNL     1      -1.151   7.133   0.105  0.00  0.00    -0.076 C 
ATOM      6  C   UNL     1      -1.166   3.826   2.054  0.00  0.00    +0.247 C 
ATOM      7  O   UNL     1      -2.265   3.346   2.230  0.00  0.00    -0.273 OA
ATOM      8  N   UNL     1       0.022   3.190   2.111  0.00  0.00    -0.222 N 
ATOM      9  C   UNL     1       1.040   4.022   1.860  0.00  0.00    +0.312 C 
ATOM     10  O   UNL     1       2.207   3.680   1.850  0.00  0.00    -0.252 OA
ATOM     11  N   UNL     1       0.627   5.281   1.619  0.00  0.00    -0.271 N 
ATOM     12  N   UNL     1      -1.674   7.971   1.206  0.00  0.00    +0.382 N 
ATOM     13  H   UNL     1      -2.677   7.785   1.318  0.00  0.00    -0.081 HD
ENDROOT
BRANCH   8  14
ATOM     14  C   UNL     1       0.179   1.763   2.406  0.00  0.00    +0.080 C 
ATOM     15  C   UNL     1       0.862   1.071   1.225  0.00  0.00    +0.028 C 
ATOM     16  C   UNL     1       1.036   1.593   3.662  0.00  0.00    +0.028 C 
ENDBRANCH   8  14
BRANCH  12  17
ATOM     17  C   UNL     1      -1.483   9.400   0.886  0.00  0.00    -0.072 C 
ATOM     18  C   UNL     1       0.005   9.727   0.748  0.00  0.00    -0.013 C 
BRANCH  17  20
ATOM     19  C   UNL     1      -3.596   9.992   2.079  0.00  0.00    +0.002 C 
ATOM     20  C   UNL     1      -2.089  10.244   2.009  0.00  0.00    -0.019 C 
ENDBRANCH  17  20
ENDBRANCH  12  17
BRANCH  11  21
ATOM     21  C   UNL     1       1.471   6.438   1.310  0.00  0.00    +0.115 C 
BRANCH  21  22
ATOM     22  C   UNL     1       2.348   6.768   2.519  0.00  0.00    +0.054 C 
BRANCH  22  23
ATOM     23  C   UNL     1       3.166   7.999   2.226  0.00  0.00    -0.046 A 
ATOM     24  C   UNL     1       4.350   7.889   1.521  0.00  0.00    +0.007 A 
ATOM     25  C   UNL     1       5.099   9.017   1.246  0.00  0.00    +0.046 A 
ATOM     26  C   UNL     1       4.668  10.259   1.688  0.00  0.00    +0.120 A 
ATOM     27  C   UNL     1       3.482  10.366   2.400  0.00  0.00    +0.046 A 
ATOM     28  C   UNL     1       2.733   9.236   2.667  0.00  0.00    +0.007 A 
BRANCH  26  29
ATOM     29  O   UNL     1       5.405  11.369   1.423  0.00  0.00    -0.495 OA
ATOM     30  C   UNL     1       6.615  11.184   0.685  0.00  0.00    +0.277 C 
ENDBRANCH  26  29
ENDBRANCH  22  23
ENDBRANCH  21  22
ENDBRANCH  11  21
TORSDOF 7
