REMARK  Name = ZINC12547167
REMARK  11 active torsions:
REMARK  status: ('A' for Active; 'I' for Inactive)
REMARK    1  A    between atoms: C_1  and  C_2
REMARK    2  A    between atoms: C_2  and  N_3
REMARK    3  A    between atoms: N_3  and  C_4
REMARK    4  A    between atoms: N_3  and  S_10
REMARK    5  A    between atoms: S_10  and  C_13
REMARK    6  A    between atoms: N_19  and  C_20
REMARK    7  A    between atoms: C_20  and  C_22
REMARK    8  A    between atoms: C_20  and  C_30
REMARK    9  A    between atoms: C_27  and  O_28
REMARK   10  A    between atoms: O_28  and  C_29
REMARK   11  A    between atoms: N_34  and  C_35
REMARK                            x       y       z     vdW  Elec       q    Type
REMARK                         _______ _______ _______ _____ _____    ______ ____
ROOT
ATOM      1  C   UNL     1       2.073   1.422  -0.364  0.00  0.00    +0.127 A 
ATOM      2  C   UNL     1       2.019   0.044  -0.534  0.00  0.00    +0.034 A 
ATOM      3  C   UNL     1       0.785  -0.549  -0.728  0.00  0.00    +0.045 A 
ATOM      4  C   UNL     1      -0.354   0.249  -0.748  0.00  0.00    +0.120 A 
ATOM      5  N   UNL     1      -0.262   1.560  -0.583  0.00  0.00    -0.239 NA
ATOM      6  C   UNL     1       0.902   2.153  -0.395  0.00  0.00    +0.141 A 
ATOM      7  N   UNL     1      -1.601  -0.334  -0.943  0.00  0.00    -0.315 N 
ATOM      8  H   UNL     1      -2.505   0.292  -0.960  0.00  0.00    +0.148 HD
ENDROOT
BRANCH   1   9
ATOM      9  S   UNL     1       3.619   2.228  -0.112  0.00  0.00    +0.076 S 
ATOM     10  O   UNL     1       3.337   3.447   0.562  0.00  0.00    -0.150 OA
ATOM     11  O   UNL     1       4.504   1.252   0.418  0.00  0.00    -0.150 OA
BRANCH   9  12
ATOM     12  N   UNL     1       4.206   2.638  -1.605  0.00  0.00    -0.203 N 
BRANCH  12  13
ATOM     13  C   UNL     1       5.113   1.797  -2.254  0.00  0.00    +0.051 A 
ATOM     14  C   UNL     1       4.792   1.248  -3.489  0.00  0.00    +0.025 A 
ATOM     15  C   UNL     1       5.693   0.420  -4.130  0.00  0.00    +0.002 A 
ATOM     16  C   UNL     1       6.910   0.130  -3.539  0.00  0.00    +0.000 A 
ATOM     17  C   UNL     1       7.230   0.671  -2.308  0.00  0.00    +0.002 A 
ATOM     18  C   UNL     1       6.336   1.504  -1.663  0.00  0.00    +0.025 A 
ENDBRANCH  12  13
BRANCH  12  20
ATOM     19  C   UNL     1       4.789   4.989  -1.946  0.00  0.00    +0.026 C 
ATOM     20  C   UNL     1       3.775   3.883  -2.245  0.00  0.00    +0.128 C 
ENDBRANCH  12  20
ENDBRANCH   9  12
ENDBRANCH   1   9
BRANCH   7  21
ATOM     21  C   UNL     1      -1.710  -1.784  -1.127  0.00  0.00    +0.170 C 
BRANCH  21  22
ATOM     22  C   UNL     1      -1.484  -2.125  -2.577  0.00  0.00    +0.112 A 
ATOM     23  N   UNL     1      -2.005  -1.497  -3.596  0.00  0.00    -0.348 N 
ATOM     24  C   UNL     1      -1.585  -2.074  -4.732  0.00  0.00    +0.102 A 
ATOM     25  C   UNL     1      -0.773  -3.098  -4.404  0.00  0.00    +0.104 A 
ATOM     26  N   UNL     1      -0.705  -3.127  -3.038  0.00  0.00    -0.337 N 
ATOM     27  C   UNL     1       0.068  -4.070  -2.226  0.00  0.00    +0.150 C 
ATOM     28  H   UNL     1      -2.673  -0.639  -3.431  0.00  0.00    +0.167 HD
ENDBRANCH  21  22
BRANCH  21  29
ATOM     29  C   UNL     1      -3.086  -2.240  -0.712  0.00  0.00    +0.022 A 
ATOM     30  C   UNL     1      -4.146  -1.355  -0.744  0.00  0.00    +0.009 A 
ATOM     31  C   UNL     1      -5.408  -1.773  -0.364  0.00  0.00    +0.001 A 
ATOM     32  C   UNL     1      -5.612  -3.077   0.049  0.00  0.00    +0.004 A 
ATOM     33  C   UNL     1      -4.555  -3.965   0.083  0.00  0.00    +0.046 A 
ATOM     34  C   UNL     1      -3.289  -3.550  -0.303  0.00  0.00    +0.125 A 
BRANCH  34  35
ATOM     35  O   UNL     1      -2.248  -4.423  -0.276  0.00  0.00    -0.495 OA
ATOM     36  C   UNL     1      -2.531  -5.756   0.155  0.00  0.00    +0.277 C 
ENDBRANCH  34  35
ENDBRANCH  21  29
ENDBRANCH   7  21
TORSDOF 8
