REMARK  Name = ZINC38597778
REMARK  7 active torsions:
REMARK  status: ('A' for Active; 'I' for Inactive)
REMARK    1  A    between atoms: C_3  and  C_6
REMARK    2  A    between atoms: C_6  and  C_8
REMARK    3  A    between atoms: C_6  and  N_19
REMARK    4  A    between atoms: C_8  and  N_9
REMARK    5  A    between atoms: N_9  and  S_10
REMARK    6  A    between atoms: S_10  and  C_13
REMARK    7  A    between atoms: N_22  and  C_25
REMARK                            x       y       z     vdW  Elec       q    Type
REMARK                         _______ _______ _______ _____ _____    ______ ____
ROOT
ATOM      1  C   UNL     1       3.786   0.638  -0.057  0.00  0.00    +0.015 C 
ENDROOT
BRANCH   1   2
ATOM      2  N   UNL     1       4.488  -0.288   0.842  0.00  0.00    +0.389 N 
ATOM      3  C   UNL     1       5.937  -0.121   0.681  0.00  0.00    -0.059 C 
ATOM      4  C   UNL     1       6.669  -1.164   1.532  0.00  0.00    +0.086 C 
ATOM      5  N   UNL     1       6.195  -1.048   2.920  0.00  0.00    -0.333 N 
ATOM      6  C   UNL     1       4.743  -1.043   3.159  0.00  0.00    +0.086 C 
ATOM      7  C   UNL     1       4.103  -0.005   2.231  0.00  0.00    -0.059 C 
ATOM      8  H   UNL     1       4.233  -1.237   0.611  0.00  0.00    -0.081 HD
BRANCH   5   9
ATOM      9  C   UNL     1       7.098  -0.947   3.982  0.00  0.00    +0.030 A 
ATOM     10  C   UNL     1       6.637  -0.962   5.292  0.00  0.00    +0.026 A 
ATOM     11  C   UNL     1       7.531  -0.862   6.340  0.00  0.00    +0.040 A 
ATOM     12  C   UNL     1       8.887  -0.746   6.085  0.00  0.00    +0.124 A 
ATOM     13  C   UNL     1       9.350  -0.731   4.780  0.00  0.00    +0.040 A 
ATOM     14  C   UNL     1       8.460  -0.836   3.730  0.00  0.00    +0.026 A 
ATOM     15  F   UNL     1       9.760  -0.648   7.112  0.00  0.00    -0.205 F 
ENDBRANCH   5   9
ENDBRANCH   1   2
BRANCH   1  18
ATOM     16  C   UNL     1       4.921   4.143   0.042  0.00  0.00    +0.041 A 
ATOM     17  C   UNL     1       4.605   2.963  -0.670  0.00  0.00    +0.043 A 
ATOM     18  C   UNL     1       4.219   2.050   0.240  0.00  0.00    +0.093 A 
ATOM     19  O   UNL     1       4.284   2.612   1.458  0.00  0.00    -0.469 OA
ATOM     20  C   UNL     1       4.709   3.881   1.344  0.00  0.00    +0.195 A 
ENDBRANCH   1  18
BRANCH   1  21
ATOM     21  C   UNL     1       2.277   0.511   0.157  0.00  0.00    +0.098 C 
BRANCH  21  22
ATOM     22  N   UNL     1       1.872  -0.884  -0.031  0.00  0.00    -0.191 NA
ATOM     23  H   UNL     1       2.470  -1.507  -0.474  0.00  0.00    +0.148 HD
BRANCH  22  24
ATOM     24  S   UNL     1       0.395  -1.399   0.513  0.00  0.00    +0.065 S 
ATOM     25  O   UNL     1       0.289  -2.772   0.163  0.00  0.00    -0.153 OA
ATOM     26  O   UNL     1       0.275  -0.943   1.854  0.00  0.00    -0.153 OA
BRANCH  24  27
ATOM     27  C   UNL     1      -0.831  -0.544  -0.420  0.00  0.00    +0.144 A 
ATOM     28  C   UNL     1      -1.422  -0.906  -1.585  0.00  0.00    +0.038 A 
ATOM     29  C   UNL     1      -2.370  -0.069  -2.144  0.00  0.00    +0.030 A 
ATOM     30  C   UNL     1      -2.679   1.090  -1.510  0.00  0.00    +0.080 A 
ATOM     31  S   UNL     1      -1.621   1.019  -0.074  0.00  0.00    -0.057 S 
ATOM     32 CL   UNL     1      -3.814   2.319  -1.972  0.00  0.00    -0.076 Cl
ENDBRANCH  24  27
ENDBRANCH  22  24
ENDBRANCH  21  22
ENDBRANCH   1  21
TORSDOF 7
