REMARK  Name = ZINC66392493
REMARK  6 active torsions:
REMARK  status: ('A' for Active; 'I' for Inactive)
REMARK    1  A    between atoms: C_3  and  C_9
REMARK    2  A    between atoms: C_9  and  C_11
REMARK    3  A    between atoms: C_9  and  N_13
REMARK    4  A    between atoms: C_14  and  C_16
REMARK    5  A    between atoms: C_18  and  S_21
REMARK    6  A    between atoms: S_21  and  N_24
REMARK                            x       y       z     vdW  Elec       q    Type
REMARK                         _______ _______ _______ _____ _____    ______ ____
ROOT
ATOM      1  N   UNL     1       3.454   3.508   0.570  0.00  0.00    -0.292 N 
ATOM      2  C   UNL     1       4.485   4.173   1.129  0.00  0.00    +0.246 C 
ATOM      3  O   UNL     1       5.595   3.675   1.142  0.00  0.00    -0.270 OA
ATOM      4  H   UNL     1       2.570   3.905   0.560  0.00  0.00    +0.151 HD
ENDROOT
BRANCH   2   5
ATOM      5  C   UNL     1       4.267   5.502   1.725  0.00  0.00    +0.046 A 
ATOM      6  C   UNL     1       5.346   6.245   2.328  0.00  0.00    +0.049 A 
ATOM      7  C   UNL     1       5.016   7.449   2.837  0.00  0.00    +0.143 A 
ATOM      8  S   UNL     1       3.272   7.564   2.501  0.00  0.00    -0.076 S 
ATOM      9  C   UNL     1       3.025   6.095   1.727  0.00  0.00    +0.060 A 
BRANCH   7  10
ATOM     10  S   UNL     1       6.056   8.623   3.639  0.00  0.00    +0.062 S 
ATOM     11  O   UNL     1       5.213   9.419   4.460  0.00  0.00    -0.153 OA
ATOM     12  O   UNL     1       7.161   7.897   4.160  0.00  0.00    -0.153 OA
BRANCH  10  13
ATOM     13  N   UNL     1       6.659   9.625   2.466  0.00  0.00    -0.203 NA
ATOM     14  H   UNL     1       6.410   9.490   1.539  0.00  0.00    +0.144 HD
ATOM     15  H   UNL     1       7.260  10.347   2.708  0.00  0.00    +0.144 HD
ENDBRANCH  10  13
ENDBRANCH   7  10
ENDBRANCH   2   5
BRANCH   1  16
ATOM     16  C   UNL     1       3.671   2.186  -0.023  0.00  0.00    +0.208 C 
BRANCH  16  19
ATOM     17  C   UNL     1      -0.017   1.378   0.010  0.00  0.00    +0.002 A 
ATOM     18  C   UNL     1       1.171   2.086   0.002  0.00  0.00    +0.008 A 
ATOM     19  C   UNL     1       2.378   1.413  -0.013  0.00  0.00    +0.006 A 
ATOM     20  C   UNL     1       2.398   0.030  -0.021  0.00  0.00    +0.065 A 
ATOM     21  C   UNL     1       1.209  -0.679  -0.013  0.00  0.00    +0.060 A 
ATOM     22  C   UNL     1       0.002  -0.004   0.002  0.00  0.00    +0.021 A 
ATOM     23 CL   UNL     1       1.234  -2.415  -0.023  0.00  0.00    -0.082 Cl
ATOM     24 CL   UNL     1       3.914  -0.816  -0.041  0.00  0.00    -0.082 Cl
ENDBRANCH  16  19
BRANCH  16  25
ATOM     25  C   UNL     1       4.141   2.341  -1.409  0.00  0.00    +0.090 C 
ATOM     26  N   UNL     1       4.503   2.460  -2.479  0.00  0.00    -0.194 NA
ENDBRANCH  16  25
ENDBRANCH   1  16
TORSDOF 6
