REMARK  Name = ZINC11855738
REMARK  7 active torsions:
REMARK  status: ('A' for Active; 'I' for Inactive)
REMARK    1  A    between atoms: C_1  and  O_2
REMARK    2  A    between atoms: O_2  and  C_3
REMARK    3  A    between atoms: C_7  and  C_11
REMARK    4  A    between atoms: C_8  and  O_9
REMARK    5  A    between atoms: O_9  and  C_10
REMARK    6  A    between atoms: N_13  and  C_14
REMARK    7  A    between atoms: C_16  and  C_30
REMARK                            x       y       z     vdW  Elec       q    Type
REMARK                         _______ _______ _______ _____ _____    ______ ____
ROOT
ATOM      1  C   UNL     1      -2.387   1.157   0.020  0.00  0.00    +0.132 A 
ATOM      2  C   UNL     1      -2.514  -0.194   0.007  0.00  0.00    +0.074 A 
ATOM      3  C   UNL     1      -3.892  -0.497   0.018  0.00  0.00    +0.102 A 
ATOM      4  N   UNL     1      -4.564   0.636   0.027  0.00  0.00    -0.162 NA
ATOM      5  N   UNL     1      -3.644   1.692   0.029  0.00  0.00    -0.185 N 
ATOM      6  C   UNL     1      -3.953   3.038   0.037  0.00  0.00    +0.234 A 
ATOM      7  N   UNL     1      -5.257   3.423   0.040  0.00  0.00    -0.291 N 
ATOM      8  H   UNL     1      -5.962   2.757   0.036  0.00  0.00    +0.172 HD
ATOM      9  C   UNL     1      -5.566   4.737   0.052  0.00  0.00    +0.256 A 
ATOM     10  O   UNL     1      -6.730   5.102   0.059  0.00  0.00    -0.267 OA
ATOM     11  C   UNL     1      -4.519   5.679   0.052  0.00  0.00    +0.038 A 
ATOM     12  C   UNL     1      -3.230   5.236   0.044  0.00  0.00    +0.053 A 
ATOM     13  N   UNL     1      -2.982   3.924   0.037  0.00  0.00    -0.217 NA
ATOM     14  C   UNL     1      -2.279   6.413   0.045  0.00  0.00    +0.056 C 
ATOM     15  C   UNL     1      -3.136   7.624  -0.382  0.00  0.00    +0.011 C 
ATOM     16  C   UNL     1      -4.551   7.191   0.059  0.00  0.00    +0.043 C 
ENDROOT
BRANCH   3  17
ATOM     17  C   UNL     1      -4.481  -1.854   0.013  0.00  0.00    +0.039 A 
ATOM     18  C   UNL     1      -5.799  -2.222   0.018  0.00  0.00    +0.018 A 
ATOM     19  C   UNL     1      -6.112  -3.563   0.011  0.00  0.00    +0.008 A 
ATOM     20  C   UNL     1      -5.108  -4.477   0.000  0.00  0.00    +0.046 A 
ATOM     21  S   UNL     1      -3.657  -3.438  -0.008  0.00  0.00    -0.095 S 
ENDBRANCH   3  17
BRANCH   1  24
ATOM     22  C   UNL     1      -0.014   1.212   0.009  0.00  0.00    +0.253 C 
ATOM     23  O   UNL     1       0.002  -0.004   0.002  0.00  0.00    -0.270 OA
ATOM     24  N   UNL     1      -1.191   1.870   0.018  0.00  0.00    -0.266 N 
ATOM     25  H   UNL     1      -1.204   2.840   0.023  0.00  0.00    +0.157 HD
BRANCH  22  30
ATOM     26  C   UNL     1       3.666   2.009  -0.022  0.00  0.00    +0.162 A 
ATOM     27  C   UNL     1       3.635   3.394  -0.015  0.00  0.00    +0.049 A 
ATOM     28  C   UNL     1       2.424   4.066   0.001  0.00  0.00    +0.005 A 
ATOM     29  C   UNL     1       1.238   3.364   0.008  0.00  0.00    +0.017 A 
ATOM     30  C   UNL     1       1.253   1.967   0.001  0.00  0.00    +0.082 A 
ATOM     31  C   UNL     1       2.477   1.287  -0.009  0.00  0.00    +0.174 A 
BRANCH  26  33
ATOM     32  C   UNL     1       6.039   2.161  -0.043  0.00  0.00    +0.277 C 
ATOM     33  O   UNL     1       4.859   1.356  -0.037  0.00  0.00    -0.491 OA
ENDBRANCH  26  33
BRANCH  31  34
ATOM     34  O   UNL     1       2.503  -0.071  -0.011  0.00  0.00    -0.491 OA
ATOM     35  C   UNL     1       2.507  -0.718  -1.285  0.00  0.00    +0.277 C 
ENDBRANCH  31  34
ENDBRANCH  22  30
ENDBRANCH   1  24
TORSDOF 5
