REMARK  Name = ZINC22059841
REMARK  8 active torsions:
REMARK  status: ('A' for Active; 'I' for Inactive)
REMARK    1  A    between atoms: C_1  and  C_2
REMARK    2  A    between atoms: C_2  and  N_3
REMARK    3  A    between atoms: N_3  and  C_4
REMARK    4  A    between atoms: N_3  and  C_18
REMARK    5  A    between atoms: C_4  and  C_5
REMARK    6  A    between atoms: N_7  and  C_8
REMARK    7  A    between atoms: C_18  and  C_19
REMARK    8  A    between atoms: C_29  and  C_31
REMARK                            x       y       z     vdW  Elec       q    Type
REMARK                         _______ _______ _______ _____ _____    ______ ____
ROOT
ATOM      1  N   UNL     1      -7.272  -0.141   0.473  0.00  0.00    +0.391 N 
ATOM      2  H   UNL     1      -7.051   0.415  -0.450  0.00  0.00    -0.080 HD
ENDROOT
BRANCH   1   4
ATOM      3  C   UNL     1      -8.067   2.059   1.198  0.00  0.00    -0.017 C 
ATOM      4  C   UNL     1      -7.267   0.815   1.589  0.00  0.00    -0.081 C 
ENDBRANCH   1   4
BRANCH   1   5
ATOM      5  C   UNL     1      -6.229  -1.160   0.647  0.00  0.00    +0.020 C 
BRANCH   5   6
ATOM      6  C   UNL     1      -4.872  -0.510   0.555  0.00  0.00    +0.201 C 
ATOM      7  O   UNL     1      -4.784   0.685   0.363  0.00  0.00    -0.278 OA
ATOM      8  N   UNL     1      -3.757  -1.256   0.686  0.00  0.00    -0.287 N 
ATOM      9  H   UNL     1      -3.835  -2.348   0.787  0.00  0.00    +0.155 HD
BRANCH   8  10
ATOM     10  C   UNL     1      -2.499  -0.639   0.692  0.00  0.00    +0.037 A 
ATOM     11  C   UNL     1      -2.266   0.472  -0.106  0.00  0.00    +0.027 A 
ATOM     12  C   UNL     1      -1.024   1.077  -0.103  0.00  0.00    +0.051 A 
ATOM     13  C   UNL     1      -0.009   0.582   0.702  0.00  0.00    +0.162 A 
ATOM     14  C   UNL     1      -0.240  -0.529   1.504  0.00  0.00    +0.164 A 
ATOM     15  C   UNL     1      -1.485  -1.139   1.497  0.00  0.00    +0.072 A 
ATOM     16  O   UNL     1       0.743  -1.030   2.301  0.00  0.00    -0.485 OA
ATOM     17  C   UNL     1       2.083  -0.625   2.001  0.00  0.00    +0.270 C 
ATOM     18  C   UNL     1       2.087   0.894   1.781  0.00  0.00    +0.270 C 
ATOM     19  O   UNL     1       1.209   1.192   0.691  0.00  0.00    -0.485 OA
ENDBRANCH   8  10
ENDBRANCH   5   6
ENDBRANCH   1   5
BRANCH   1  20
ATOM     20  C   UNL     1      -8.595  -0.763   0.320  0.00  0.00    +0.019 C 
BRANCH  20  21
ATOM     21  C   UNL     1      -8.727  -1.325  -1.073  0.00  0.00    +0.200 C 
ATOM     22  O   UNL     1      -7.808  -1.223  -1.858  0.00  0.00    -0.278 OA
ATOM     23  N   UNL     1      -9.866  -1.940  -1.445  0.00  0.00    -0.291 N 
ATOM     24  C   UNL     1     -10.987  -2.070  -0.502  0.00  0.00    +0.114 C 
ATOM     25  C   UNL     1     -12.172  -1.256  -1.045  0.00  0.00    +0.062 C 
ATOM     26  C   UNL     1     -12.290  -1.504  -2.514  0.00  0.00    -0.003 A 
ATOM     27  C   UNL     1     -11.361  -2.045  -3.348  0.00  0.00    -0.012 A 
ATOM     28  C   UNL     1     -11.718  -2.164  -4.690  0.00  0.00    +0.013 A 
ATOM     29  C   UNL     1     -12.940  -1.756  -5.104  0.00  0.00    +0.046 A 
ATOM     30  S   UNL     1     -13.665  -1.165  -3.581  0.00  0.00    -0.101 S 
ATOM     31  C   UNL     1     -10.009  -2.486  -2.802  0.00  0.00    +0.144 C 
BRANCH  31  32
ATOM     32  C   UNL     1      -9.949  -3.991  -2.755  0.00  0.00    +0.015 A 
ATOM     33  C   UNL     1      -9.338  -4.848  -3.610  0.00  0.00    +0.013 A 
ATOM     34  C   UNL     1      -9.415  -6.207  -3.366  0.00  0.00    +0.008 A 
ATOM     35  C   UNL     1     -10.099  -6.642  -2.280  0.00  0.00    +0.045 A 
ATOM     36  S   UNL     1     -10.657  -5.108  -1.556  0.00  0.00    -0.099 S 
ENDBRANCH  31  32
ENDBRANCH  20  21
ENDBRANCH   1  20
TORSDOF 7
