REMARK  Name = ZINC64652834
REMARK  5 active torsions:
REMARK  status: ('A' for Active; 'I' for Inactive)
REMARK    1  A    between atoms: C_7  and  C_10
REMARK    2  A    between atoms: C_10  and  C_11
REMARK    3  A    between atoms: C_11  and  N_12
REMARK    4  A    between atoms: C_13  and  C_15
REMARK    5  A    between atoms: C_15  and  C_16
REMARK                            x       y       z     vdW  Elec       q    Type
REMARK                         _______ _______ _______ _____ _____    ______ ____
ROOT
ATOM      1  N   UNL     1      -0.201  -5.018  -1.462  0.00  0.00    -0.315 N 
ATOM      2  C   UNL     1      -0.737  -5.444  -2.623  0.00  0.00    +0.215 C 
ATOM      3  O   UNL     1      -0.402  -4.930  -3.670  0.00  0.00    -0.276 OA
ATOM      4  H   UNL     1      -0.469  -5.429  -0.625  0.00  0.00    +0.149 HD
ENDROOT
BRANCH   1   5
ATOM      5  C   UNL     1       0.786  -3.936  -1.464  0.00  0.00    +0.108 C 
BRANCH   5   6
ATOM      6  C   UNL     1       1.231  -3.649  -0.028  0.00  0.00    +0.052 C 
BRANCH   6  13
ATOM      7  C   UNL     1       0.860   0.885   0.577  0.00  0.00    +0.001 A 
ATOM      8  C   UNL     1       2.083   1.565   0.493  0.00  0.00    +0.002 A 
ATOM      9  C   UNL     1       3.253   0.935   0.257  0.00  0.00    +0.026 A 
ATOM     10  C   UNL     1       3.287  -0.476   0.080  0.00  0.00    +0.043 A 
ATOM     11  N   UNL     1       4.276  -1.303  -0.156  0.00  0.00    -0.380 N 
ATOM     12  C   UNL     1       3.737  -2.664  -0.249  0.00  0.00    +0.144 C 
ATOM     13  C   UNL     1       2.246  -2.535  -0.029  0.00  0.00    -0.040 C 
ATOM     14  C   UNL     1       2.008  -1.218   0.164  0.00  0.00    -0.001 A 
ATOM     15  C   UNL     1       0.780  -0.457   0.424  0.00  0.00    +0.010 A 
ATOM     16  H   UNL     1       5.209  -1.056  -0.253  0.00  0.00    +0.160 HD
ENDBRANCH   6  13
ENDBRANCH   5   6
ENDBRANCH   1   5
BRANCH   2  17
ATOM     17  C   UNL     1      -1.752  -6.557  -2.622  0.00  0.00    +0.119 C 
BRANCH  17  18
ATOM     18  C   UNL     1      -2.084  -6.947  -4.064  0.00  0.00    +0.098 C 
ATOM     19  C   UNL     1      -0.787  -7.440  -4.748  0.00  0.00    +0.095 C 
ATOM     20  S   UNL     1      -1.460  -8.852  -5.733  0.00  0.00    -0.117 S 
ATOM     21  C   UNL     1      -2.839  -9.263  -4.582  0.00  0.00    +0.222 C 
ATOM     22  N   UNL     1      -3.167  -7.918  -4.039  0.00  0.00    -0.266 N 
ATOM     23  C   UNL     1      -4.422  -7.673  -3.578  0.00  0.00    +0.246 C 
ATOM     24  O   UNL     1      -4.652  -6.685  -2.904  0.00  0.00    -0.270 OA
ATOM     25  C   UNL     1      -5.465  -8.590  -3.896  0.00  0.00    +0.031 C 
ATOM     26  C   UNL     1      -5.242  -9.578  -4.778  0.00  0.00    +0.014 C 
ATOM     27  N   UNL     1      -3.998  -9.710  -5.363  0.00  0.00    -0.320 N 
ATOM     28  C   UNL     1      -6.293 -10.577  -5.180  0.00  0.00    +0.051 C 
ATOM     29  C   UNL     1      -7.443 -10.583  -4.174  0.00  0.00    +0.006 C 
ATOM     30  C   UNL     1      -7.900  -9.134  -3.962  0.00  0.00    +0.005 C 
ATOM     31  C   UNL     1      -6.795  -8.388  -3.218  0.00  0.00    +0.042 C 
ATOM     32  H   UNL     1      -3.892 -10.076  -6.255  0.00  0.00    +0.148 HD
ENDBRANCH  17  18
ENDBRANCH   2  17
TORSDOF 5
