REMARK  Name = ZINC20704029
REMARK  5 active torsions:
REMARK  status: ('A' for Active; 'I' for Inactive)
REMARK    1  A    between atoms: C_1  and  C_2
REMARK    2  A    between atoms: N_4  and  C_5
REMARK    3  A    between atoms: N_4  and  C_6
REMARK    4  A    between atoms: C_19  and  C_22
REMARK    5  A    between atoms: C_26  and  N_28
REMARK                            x       y       z     vdW  Elec       q    Type
REMARK                         _______ _______ _______ _____ _____    ______ ____
ROOT
ATOM      1  C   UNL     1       1.259   5.322  -1.363  0.00  0.00    +0.036 A 
ATOM      2  C   UNL     1       2.562   5.429  -1.833  0.00  0.00    +0.025 A 
ATOM      3  C   UNL     1       3.436   4.371  -1.694  0.00  0.00    +0.025 A 
ATOM      4  C   UNL     1       3.023   3.193  -1.083  0.00  0.00    +0.031 A 
ATOM      5  C   UNL     1       1.714   3.094  -0.600  0.00  0.00    -0.018 A 
ATOM      6  C   UNL     1       0.842   4.150  -0.748  0.00  0.00    +0.029 A 
ATOM      7  C   UNL     1       1.330   1.839   0.082  0.00  0.00    +0.049 C 
ATOM      8  C   UNL     1      -0.079   1.371   0.128  0.00  0.00    -0.023 C 
ATOM      9  C   UNL     1      -0.085   0.043   0.151  0.00  0.00    -0.030 C 
ATOM     10  C   UNL     1       1.349  -0.487   0.086  0.00  0.00    +0.033 C 
ATOM     11  C   UNL     1       2.072   0.665  -0.625  0.00  0.00    +0.029 C 
ATOM     12  C   UNL     1       3.543   0.864  -0.304  0.00  0.00    +0.105 C 
ATOM     13  N   UNL     1       3.928   2.127  -0.970  0.00  0.00    -0.336 N 
ATOM     14  H   UNL     1       4.940   2.243  -1.386  0.00  0.00    +0.147 HD
ENDROOT
BRANCH  12  15
ATOM     15  C   UNL     1       4.354  -0.282  -0.852  0.00  0.00    -0.025 A 
ATOM     16  C   UNL     1       4.695  -0.309  -2.191  0.00  0.00    +0.007 A 
ATOM     17  C   UNL     1       5.439  -1.360  -2.694  0.00  0.00    +0.022 A 
ATOM     18  C   UNL     1       5.844  -2.384  -1.856  0.00  0.00    +0.071 A 
ATOM     19  C   UNL     1       5.503  -2.356  -0.516  0.00  0.00    +0.145 A 
ATOM     20  C   UNL     1       4.763  -1.302  -0.013  0.00  0.00    +0.039 A 
ATOM     21 CL   UNL     1       6.779  -3.704  -2.486  0.00  0.00    -0.081 Cl
BRANCH  19  22
ATOM     22  N   UNL     1       5.934  -3.452   0.381  0.00  0.00    +0.058 N 
ATOM     23  O   UNL     1       5.634  -3.427   1.561  0.00  0.00    -0.126 OA
ATOM     24  O   UNL     1       6.590  -4.378  -0.061  0.00  0.00    -0.126 OA
ENDBRANCH  19  22
ENDBRANCH  12  15
BRANCH   1  28
ATOM     25  C   UNL     1      -0.115   8.767  -2.019  0.00  0.00    +0.109 C 
ATOM     26  C   UNL     1       0.813   7.580  -1.974  0.00  0.00    +0.216 C 
ATOM     27  O   UNL     1       1.959   7.692  -2.355  0.00  0.00    -0.276 OA
ATOM     28  N   UNL     1       0.369   6.395  -1.510  0.00  0.00    -0.275 N 
ATOM     29  C   UNL     1      -1.043   6.228  -1.159  0.00  0.00    +0.138 C 
ENDBRANCH   1  28
TORSDOF 3
