REMARK  Name = ZINC36431088
REMARK  7 active torsions:
REMARK  status: ('A' for Active; 'I' for Inactive)
REMARK    1  A    between atoms: C_1  and  C_2
REMARK    2  A    between atoms: C_7  and  C_12
REMARK    3  A    between atoms: C_10  and  C_11
REMARK    4  A    between atoms: C_12  and  O_14
REMARK    5  A    between atoms: O_14  and  C_15
REMARK    6  A    between atoms: C_15  and  C_16
REMARK    7  A    between atoms: C_15  and  C_17
REMARK                            x       y       z     vdW  Elec       q    Type
REMARK                         _______ _______ _______ _____ _____    ______ ____
ROOT
ATOM      1  C   UNL     1      -2.793  -2.076   3.342  0.00  0.00    +0.343 C 
ATOM      2  O   UNL     1      -1.851  -1.967   4.102  0.00  0.00    -0.245 OA
ENDROOT
BRANCH   1   9
ATOM      3  C   UNL     1       0.013   1.448  -0.029  0.00  0.00    +0.016 C 
ATOM      4  C   UNL     1       0.019  -0.082  -0.028  0.00  0.00    +0.060 C 
ATOM      5  C   UNL     1      -1.381  -0.630   0.173  0.00  0.00    +0.001 A 
ATOM      6  C   UNL     1      -2.455  -0.755  -0.679  0.00  0.00    +0.007 A 
ATOM      7  C   UNL     1      -3.643  -1.310  -0.231  0.00  0.00    +0.001 A 
ATOM      8  C   UNL     1      -3.753  -1.740   1.073  0.00  0.00    +0.018 A 
ATOM      9  C   UNL     1      -2.672  -1.615   1.947  0.00  0.00    +0.101 A 
ATOM     10  C   UNL     1      -1.466  -1.049   1.494  0.00  0.00    +0.138 A 
ATOM     11  O   UNL     1      -0.307  -0.815   2.162  0.00  0.00    -0.487 OA
ATOM     12  C   UNL     1       0.758  -0.631   1.215  0.00  0.00    +0.178 C 
ATOM     13  C   UNL     1       1.437  -1.965   0.897  0.00  0.00    +0.052 C 
ENDBRANCH   1   9
BRANCH   1  14
ATOM     14  O   UNL     1      -3.948  -2.618   3.775  0.00  0.00    -0.449 OA
BRANCH  14  15
ATOM     15  C   UNL     1      -3.995  -3.043   5.138  0.00  0.00    +0.259 C 
ATOM     16  C   UNL     1      -3.544  -4.502   5.234  0.00  0.00    +0.062 C 
BRANCH  15  17
ATOM     17  C   UNL     1      -5.405  -2.918   5.656  0.00  0.00    +0.256 C 
ATOM     18  O   UNL     1      -6.312  -2.671   4.890  0.00  0.00    -0.272 OA
ATOM     19  N   UNL     1      -5.657  -3.081   6.970  0.00  0.00    -0.298 N 
ATOM     20  C   UNL     1      -7.032  -3.079   7.416  0.00  0.00    +0.108 C 
ATOM     21  C   UNL     1      -7.468  -1.631   7.751  0.00  0.00    +0.019 C 
ATOM     22  C   UNL     1      -6.809  -1.171   8.982  0.00  0.00    +0.002 C 
ATOM     23  C   UNL     1      -5.287  -1.096   8.891  0.00  0.00    +0.002 C 
ATOM     24  C   UNL     1      -4.701  -2.452   9.195  0.00  0.00    +0.019 C 
ATOM     25  C   UNL     1      -4.519  -3.260   7.892  0.00  0.00    +0.108 C 
ENDBRANCH  15  17
ENDBRANCH  14  15
ENDBRANCH   1  14
TORSDOF 4
