REMARK  Name = ZINC32734745
REMARK  14 active torsions:
REMARK  status: ('A' for Active; 'I' for Inactive)
REMARK    1  A    between atoms: C_1  and  C_2
REMARK    2  A    between atoms: C_2  and  C_3
REMARK    3  A    between atoms: C_6  and  C_9
REMARK    4  A    between atoms: C_9  and  C_11
REMARK    5  A    between atoms: C_9  and  N_30
REMARK    6  A    between atoms: C_11  and  N_12
REMARK    7  A    between atoms: C_13  and  C_15
REMARK    8  A    between atoms: C_15  and  S_16
REMARK    9  A    between atoms: S_16  and  C_17
REMARK   10  A    between atoms: C_20  and  C_22
REMARK   11  A    between atoms: C_25  and  O_28
REMARK   12  A    between atoms: O_28  and  C_29
REMARK   13  A    between atoms: N_30  and  C_31
REMARK   14  A    between atoms: N_30  and  C_32
REMARK                            x       y       z     vdW  Elec       q    Type
REMARK                         _______ _______ _______ _____ _____    ______ ____
ROOT
ATOM      1  N   UNL     1      -1.258   1.249  -0.786  0.00  0.00    -0.316 N 
ATOM      2  C   UNL     1      -1.018   0.887  -2.062  0.00  0.00    +0.223 C 
ATOM      3  O   UNL     1       0.091   0.522  -2.390  0.00  0.00    -0.275 OA
ATOM      4  H   UNL     1      -2.264   1.580  -0.489  0.00  0.00    +0.149 HD
ENDROOT
BRANCH   1   5
ATOM      5  C   UNL     1      -0.179   1.203   0.204  0.00  0.00    +0.093 C 
BRANCH   5   6
ATOM      6  C   UNL     1      -0.666   1.819   1.517  0.00  0.00    -0.021 C 
BRANCH   6  10
ATOM      7  C   UNL     1       2.411   1.502   4.463  0.00  0.00    -0.048 A 
ATOM      8  C   UNL     1       1.319   0.656   4.511  0.00  0.00    +0.004 A 
ATOM      9  C   UNL     1       0.323   0.758   3.558  0.00  0.00    +0.002 A 
ATOM     10  C   UNL     1       0.419   1.707   2.557  0.00  0.00    -0.059 A 
ATOM     11  C   UNL     1       1.514   2.549   2.506  0.00  0.00    +0.002 A 
ATOM     12  C   UNL     1       2.507   2.450   3.462  0.00  0.00    +0.004 A 
BRANCH   7  14
ATOM     13  C   UNL     1       4.563   0.403   5.022  0.00  0.00    +0.009 C 
ATOM     14  C   UNL     1       3.497   1.390   5.502  0.00  0.00    +0.032 C 
ENDBRANCH   7  14
ENDBRANCH   6  10
BRANCH   6  15
ATOM     15  N   UNL     1      -0.995   3.234   1.302  0.00  0.00    +0.382 N 
ATOM     16  C   UNL     1      -0.207   3.796   0.197  0.00  0.00    -0.096 C 
ATOM     17  C   UNL     1      -2.434   3.410   1.067  0.00  0.00    -0.096 C 
ATOM     18  H   UNL     1      -0.732   3.784   2.218  0.00  0.00    -0.082 HD
ENDBRANCH   6  15
ENDBRANCH   5   6
ENDBRANCH   1   5
BRANCH   2  19
ATOM     19  C   UNL     1      -2.127   0.934  -3.081  0.00  0.00    +0.174 C 
BRANCH  19  20
ATOM     20  S   UNL     1      -1.495   0.392  -4.688  0.00  0.00    -0.056 S 
BRANCH  20  21
ATOM     21  C   UNL     1      -2.958   0.542  -5.659  0.00  0.00    +0.278 A 
ATOM     22  N   UNL     1      -4.133   0.947  -5.236  0.00  0.00    -0.101 NA
ATOM     23  N   UNL     1      -4.968   0.933  -6.214  0.00  0.00    -0.106 NA
ATOM     24  C   UNL     1      -4.361   0.519  -7.300  0.00  0.00    +0.249 A 
ATOM     25  O   UNL     1      -3.074   0.269  -6.972  0.00  0.00    -0.411 OA
BRANCH  24  26
ATOM     26  C   UNL     1      -4.970   0.362  -8.636  0.00  0.00    +0.039 A 
ATOM     27  C   UNL     1      -4.197  -0.086  -9.710  0.00  0.00    +0.017 A 
ATOM     28  C   UNL     1      -4.771  -0.236 -10.954  0.00  0.00    +0.046 A 
ATOM     29  C   UNL     1      -6.113   0.066 -11.143  0.00  0.00    +0.120 A 
ATOM     30  C   UNL     1      -6.884   0.517 -10.080  0.00  0.00    +0.046 A 
ATOM     31  C   UNL     1      -6.319   0.665  -8.831  0.00  0.00    +0.017 A 
BRANCH  29  32
ATOM     32  O   UNL     1      -6.673  -0.078 -12.373  0.00  0.00    -0.495 OA
ATOM     33  C   UNL     1      -5.823  -0.546 -13.422  0.00  0.00    +0.277 C 
ENDBRANCH  29  32
ENDBRANCH  24  26
ENDBRANCH  20  21
ENDBRANCH  19  20
ENDBRANCH   2  19
TORSDOF 10
