REMARK  Name = ZINC00334700
REMARK  4 active torsions:
REMARK  status: ('A' for Active; 'I' for Inactive)
REMARK    1  A    between atoms: C_4  and  N_21
REMARK    2  A    between atoms: C_5  and  C_7
REMARK    3  A    between atoms: N_9  and  C_10
REMARK    4  A    between atoms: C_11  and  C_19
REMARK                            x       y       z     vdW  Elec       q    Type
REMARK                         _______ _______ _______ _____ _____    ______ ____
ROOT
ATOM      1  C   UNL     1      -2.247   7.214  -2.981  0.00  0.00    +0.251 C 
ATOM      2  O   UNL     1      -2.238   6.344  -3.830  0.00  0.00    -0.270 OA
ATOM      3  N   UNL     1      -1.910   6.918  -1.710  0.00  0.00    -0.275 N 
ATOM      4  H   UNL     1      -1.917   7.612  -1.032  0.00  0.00    +0.156 HD
ENDROOT
BRANCH   3   5
ATOM      5  C   UNL     1      -1.554   5.621  -1.371  0.00  0.00    +0.090 A 
ATOM      6  C   UNL     1      -1.181   5.126  -0.130  0.00  0.00    +0.084 A 
ATOM      7  C   UNL     1      -0.852   3.714  -0.041  0.00  0.00    -0.018 A 
ATOM      8  C   UNL     1      -0.948   3.027  -1.200  0.00  0.00    -0.004 A 
ATOM      9  S   UNL     1      -1.466   4.226  -2.395  0.00  0.00    -0.077 S 
ATOM     10  C   UNL     1      -0.671   1.570  -1.412  0.00  0.00    +0.043 C 
ATOM     11  C   UNL     1       0.101   1.042  -0.194  0.00  0.00    +0.005 C 
ATOM     12  C   UNL     1      -0.603   1.513   1.082  0.00  0.00    +0.005 C 
ATOM     13  C   UNL     1      -0.426   3.022   1.248  0.00  0.00    +0.037 C 
BRANCH   6  14
ATOM     14  C   UNL     1      -1.121   5.976   1.021  0.00  0.00    +0.102 C 
ATOM     15  N   UNL     1      -1.074   6.651   1.934  0.00  0.00    -0.191 NA
ENDBRANCH   6  14
ENDBRANCH   3   5
BRANCH   1  20
ATOM     16  C   UNL     1      -2.120  10.943  -3.407  0.00  0.00    +0.001 A 
ATOM     17  C   UNL     1      -3.337  11.185  -4.019  0.00  0.00    +0.002 A 
ATOM     18  C   UNL     1      -4.201  10.140  -4.294  0.00  0.00    +0.033 A 
ATOM     19  C   UNL     1      -3.853   8.847  -3.959  0.00  0.00    +0.138 A 
ATOM     20  C   UNL     1      -2.626   8.596  -3.342  0.00  0.00    +0.067 A 
ATOM     21  C   UNL     1      -1.762   9.656  -3.063  0.00  0.00    +0.015 A 
BRANCH  19  22
ATOM     22  N   UNL     1      -4.778   7.730  -4.254  0.00  0.00    +0.057 N 
ATOM     23  O   UNL     1      -5.792   7.932  -4.897  0.00  0.00    -0.126 OA
ATOM     24  O   UNL     1      -4.525   6.608  -3.853  0.00  0.00    -0.126 OA
ENDBRANCH  19  22
ENDBRANCH   1  20
TORSDOF 4
