REMARK  Name = ZINC20515387
REMARK  11 active torsions:
REMARK  status: ('A' for Active; 'I' for Inactive)
REMARK    1  A    between atoms: C_1  and  C_2
REMARK    2  A    between atoms: C_2  and  C_3
REMARK    3  A    between atoms: N_6  and  C_15
REMARK    4  A    between atoms: C_16  and  C_17
REMARK    5  A    between atoms: C_16  and  C_22
REMARK    6  A    between atoms: C_17  and  O_19
REMARK    7  A    between atoms: O_19  and  C_20
REMARK    8  A    between atoms: C_20  and  C_21
REMARK    9  A    between atoms: C_22  and  O_24
REMARK   10  A    between atoms: O_24  and  C_25
REMARK   11  A    between atoms: C_25  and  C_26
REMARK                            x       y       z     vdW  Elec       q    Type
REMARK                         _______ _______ _______ _____ _____    ______ ____
ROOT
ATOM      1  C   UNL     1      -0.601  -2.811   3.165  0.00  0.00    +0.191 C 
ATOM      2  C   UNL     1      -0.369  -2.432   1.695  0.00  0.00    +0.155 C 
ATOM      3  N   UNL     1       0.069  -1.027   1.662  0.00  0.00    -0.299 N 
ATOM      4  C   UNL     1       1.000  -0.611   2.627  0.00  0.00    +0.077 A 
ATOM      5  C   UNL     1       1.655   0.602   2.485  0.00  0.00    +0.047 A 
ATOM      6  C   UNL     1       2.565   1.010   3.443  0.00  0.00    +0.043 A 
ATOM      7  C   UNL     1       2.816   0.211   4.545  0.00  0.00    +0.024 A 
ATOM      8  C   UNL     1       2.162  -0.997   4.694  0.00  0.00    +0.049 A 
ATOM      9  C   UNL     1       1.249  -1.415   3.737  0.00  0.00    +0.142 A 
ATOM     10  O   UNL     1       0.613  -2.607   3.891  0.00  0.00    -0.485 OA
ATOM     11 CL   UNL     1       3.392   2.526   3.264  0.00  0.00    -0.083 Cl
ENDROOT
BRANCH   1  13
ATOM     12  C   UNL     1      -1.366  -4.623   4.706  0.00  0.00    +0.007 C 
ATOM     13  C   UNL     1      -1.016  -4.281   3.256  0.00  0.00    +0.043 C 
ENDBRANCH   1  13
BRANCH   3  14
ATOM     14  C   UNL     1      -0.403  -0.170   0.734  0.00  0.00    +0.097 C 
ATOM     15  C   UNL     1      -0.849  -0.648  -0.484  0.00  0.00    +0.156 C 
BRANCH  15  16
ATOM     16  C   UNL     1      -0.587  -2.040  -0.866  0.00  0.00    +0.347 C 
ATOM     17  O   UNL     1       0.506  -2.531  -0.662  0.00  0.00    -0.245 OA
BRANCH  16  18
ATOM     18  O   UNL     1      -1.559  -2.774  -1.444  0.00  0.00    -0.461 OA
BRANCH  18  19
ATOM     19  C   UNL     1      -1.196  -4.103  -1.904  0.00  0.00    +0.229 C 
ATOM     20  C   UNL     1      -2.390  -4.739  -2.620  0.00  0.00    +0.048 C 
ENDBRANCH  18  19
ENDBRANCH  16  18
ENDBRANCH  15  16
BRANCH  15  21
ATOM     21  C   UNL     1      -1.588   0.235  -1.393  0.00  0.00    +0.347 C 
ATOM     22  O   UNL     1      -1.810   1.387  -1.074  0.00  0.00    -0.245 OA
BRANCH  21  23
ATOM     23  O   UNL     1      -2.023  -0.232  -2.581  0.00  0.00    -0.461 OA
BRANCH  23  24
ATOM     24  C   UNL     1      -2.748   0.698  -3.428  0.00  0.00    +0.229 C 
ATOM     25  C   UNL     1      -3.158  -0.006  -4.723  0.00  0.00    +0.048 C 
ENDBRANCH  23  24
ENDBRANCH  21  23
ENDBRANCH  15  21
ENDBRANCH   3  14
TORSDOF 8
