REMARK  Name = ZINC20907085
REMARK  8 active torsions:
REMARK  status: ('A' for Active; 'I' for Inactive)
REMARK    1  A    between atoms: C_1  and  N_2
REMARK    2  A    between atoms: C_4  and  C_7
REMARK    3  A    between atoms: C_7  and  N_8
REMARK    4  A    between atoms: N_8  and  C_9
REMARK    5  A    between atoms: N_20  and  C_23
REMARK    6  A    between atoms: C_23  and  C_24
REMARK    7  A    between atoms: C_33  and  O_34
REMARK    8  A    between atoms: O_34  and  C_35
REMARK                            x       y       z     vdW  Elec       q    Type
REMARK                         _______ _______ _______ _____ _____    ______ ____
ROOT
ATOM      1  C   UNL     1      -5.237   3.712  -6.299  0.00  0.00    +0.059 C 
ATOM      2  C   UNL     1      -5.724   3.615  -4.850  0.00  0.00    +0.024 C 
ATOM      3  C   UNL     1      -4.557   3.858  -3.892  0.00  0.00    +0.038 C 
ATOM      4  C   UNL     1      -3.873   5.168  -4.271  0.00  0.00    -0.023 A 
ATOM      5  C   UNL     1      -4.059   5.715  -5.491  0.00  0.00    -0.003 A 
ATOM      6  S   UNL     1      -3.090   7.199  -5.482  0.00  0.00    -0.073 S 
ATOM      7  C   UNL     1      -2.437   7.081  -3.836  0.00  0.00    +0.116 A 
ATOM      8  C   UNL     1      -2.996   5.889  -3.348  0.00  0.00    +0.076 A 
ATOM      9  C   UNL     1      -2.632   5.536  -2.008  0.00  0.00    +0.263 A 
ATOM     10  O   UNL     1      -3.067   4.520  -1.494  0.00  0.00    -0.267 OA
ATOM     11  N   UNL     1      -1.802   6.347  -1.325  0.00  0.00    -0.294 N 
ATOM     12  C   UNL     1      -1.313   7.486  -1.878  0.00  0.00    +0.203 A 
ATOM     13  N   UNL     1      -1.623   7.831  -3.099  0.00  0.00    -0.230 NA
ATOM     14  C   UNL     1      -4.901   5.178  -6.608  0.00  0.00    +0.061 C 
ENDROOT
BRANCH   1  15
ATOM     15  N   UNL     1      -6.295   3.247  -7.206  0.00  0.00    -0.309 NA
ATOM     16  H   UNL     1      -6.988   4.079  -7.395  0.00  0.00    +0.123 HD
BRANCH  15  17
ATOM     17  C   UNL     1      -5.729   2.781  -8.479  0.00  0.00    +0.119 C 
BRANCH  17  21
ATOM     18  C   UNL     1      -9.123  -0.110 -10.768  0.00  0.00    +0.172 C 
ATOM     19  N   UNL     1      -8.317   1.049 -10.375  0.00  0.00    -0.274 N 
ATOM     20  C   UNL     1      -7.332   1.054  -9.453  0.00  0.00    +0.112 A 
ATOM     21  C   UNL     1      -6.841   2.313  -9.382  0.00  0.00    +0.004 A 
ATOM     22  C   UNL     1      -7.543   3.102 -10.299  0.00  0.00    +0.139 A 
ATOM     23  N   UNL     1      -8.428   2.345 -10.895  0.00  0.00    -0.180 NA
ENDBRANCH  17  21
ENDBRANCH  15  17
ENDBRANCH   1  15
BRANCH  11  24
ATOM     24  C   UNL     1      -1.423   5.995   0.046  0.00  0.00    +0.165 C 
BRANCH  24  25
ATOM     25  C   UNL     1      -0.101   5.273   0.033  0.00  0.00    +0.022 A 
ATOM     26  C   UNL     1       1.097   5.990   0.183  0.00  0.00    -0.010 A 
ATOM     27  C   UNL     1       1.096   7.386   0.348  0.00  0.00    +0.009 A 
ATOM     28  C   UNL     1       2.275   8.048   0.497  0.00  0.00    +0.001 A 
ATOM     29  C   UNL     1       3.489   7.364   0.477  0.00  0.00    +0.001 A 
ATOM     30  C   UNL     1       3.530   6.013   0.319  0.00  0.00    +0.008 A 
ATOM     31  C   UNL     1       2.332   5.294   0.168  0.00  0.00    -0.017 A 
ATOM     32  C   UNL     1       2.336   3.897   0.004  0.00  0.00    +0.012 A 
ATOM     33  C   UNL     1       1.159   3.232  -0.140  0.00  0.00    +0.046 A 
ATOM     34  C   UNL     1      -0.061   3.917  -0.125  0.00  0.00    +0.126 A 
BRANCH  34  35
ATOM     35  O   UNL     1      -1.220   3.224  -0.271  0.00  0.00    -0.495 OA
ATOM     36  C   UNL     1      -1.115   1.808  -0.433  0.00  0.00    +0.277 C 
ENDBRANCH  34  35
ENDBRANCH  24  25
ENDBRANCH  11  24
TORSDOF 6
