REMARK  Name = ZINC39680860
REMARK  7 active torsions:
REMARK  status: ('A' for Active; 'I' for Inactive)
REMARK    1  A    between atoms: C_1  and  C_2
REMARK    2  A    between atoms: C_2  and  C_4
REMARK    3  A    between atoms: C_2  and  N_10
REMARK    4  A    between atoms: C_11  and  C_13
REMARK    5  A    between atoms: C_24  and  C_26
REMARK    6  A    between atoms: C_29  and  O_32
REMARK    7  A    between atoms: O_32  and  C_33
REMARK                            x       y       z     vdW  Elec       q    Type
REMARK                         _______ _______ _______ _____ _____    ______ ____
ROOT
ATOM      1  C   UNL     1       0.566  -0.420  -3.527  0.00  0.00    +0.100 C 
ATOM      2  C   UNL     1       1.785   0.343  -4.091  0.00  0.00    +0.121 C 
ATOM      3  N   UNL     1       1.673   0.194  -5.561  0.00  0.00    -0.296 N 
ATOM      4  C   UNL     1       0.221   0.322  -5.835  0.00  0.00    +0.115 C 
ATOM      5  C   UNL     1      -0.459  -0.431  -4.674  0.00  0.00    -0.004 C 
ATOM      6  C   UNL     1      -1.733   0.292  -4.251  0.00  0.00    -0.010 C 
ATOM      7  C   UNL     1      -2.758   0.218  -5.387  0.00  0.00    -0.082 C 
ATOM      8  N   UNL     1      -3.049  -1.188  -5.694  0.00  0.00    +0.379 N 
ATOM      9  C   UNL     1      -1.837  -1.853  -6.189  0.00  0.00    -0.082 C 
ATOM     10  C   UNL     1      -0.773  -1.866  -5.088  0.00  0.00    -0.010 C 
ATOM     11  C   UNL     1       2.666  -0.012  -6.449  0.00  0.00    +0.247 C 
ATOM     12  O   UNL     1       3.797  -0.224  -6.057  0.00  0.00    -0.270 OA
ATOM     13  H   UNL     1      -3.369  -1.654  -4.859  0.00  0.00    -0.086 HD
ATOM     14  H   UNL     1      -3.768  -1.235  -6.400  0.00  0.00    -0.086 HD
ENDROOT
BRANCH  11  15
ATOM     15  C   UNL     1       2.380   0.020  -7.896  0.00  0.00    +0.037 A 
ATOM     16  C   UNL     1       1.239   0.671  -8.371  0.00  0.00    +0.016 A 
ATOM     17  C   UNL     1       0.976   0.699  -9.722  0.00  0.00    +0.047 A 
ATOM     18  C   UNL     1       1.844   0.080 -10.614  0.00  0.00    +0.130 A 
ATOM     19  C   UNL     1       2.980  -0.569 -10.146  0.00  0.00    +0.047 A 
ATOM     20  C   UNL     1       3.253  -0.597  -8.797  0.00  0.00    +0.016 A 
BRANCH  18  21
ATOM     21  O   UNL     1       1.581   0.109 -11.945  0.00  0.00    -0.406 OA
BRANCH  21  22
ATOM     22  C   UNL     1       2.514  -0.547 -12.805  0.00  0.00    +0.575 C 
ATOM     23  F   UNL     1       2.588  -1.902 -12.466  0.00  0.00    -0.133 F 
ATOM     24  F   UNL     1       2.093  -0.421 -14.133  0.00  0.00    -0.133 F 
ATOM     25  F   UNL     1       3.776   0.040 -12.659  0.00  0.00    -0.133 F 
ENDBRANCH  21  22
ENDBRANCH  18  21
ENDBRANCH  11  15
BRANCH   1  27
ATOM     26  N   UNL     1      -0.605  -0.395  -1.348  0.00  0.00    -0.308 N 
ATOM     27  C   UNL     1       0.004   0.300  -2.329  0.00  0.00    +0.219 C 
ATOM     28  O   UNL     1       0.100   1.507  -2.247  0.00  0.00    -0.275 OA
ATOM     29  H   UNL     1      -0.682  -1.360  -1.414  0.00  0.00    +0.149 HD
BRANCH  26  31
ATOM     30  C   UNL     1      -0.044   0.513   0.852  0.00  0.00    +0.033 C 
ATOM     31  C   UNL     1      -1.151   0.305  -0.183  0.00  0.00    +0.100 C 
BRANCH  31  32
ATOM     32  C   UNL     1      -2.259  -0.517   0.423  0.00  0.00    -0.025 A 
ATOM     33  C   UNL     1      -2.147  -1.895   0.525  0.00  0.00    +0.025 A 
ATOM     34  C   UNL     1      -3.183  -2.615   1.088  0.00  0.00    +0.111 A 
ATOM     35  N   UNL     1      -4.269  -2.007   1.523  0.00  0.00    -0.263 NA
ATOM     36  C   UNL     1      -4.411  -0.699   1.442  0.00  0.00    +0.111 A 
ATOM     37  C   UNL     1      -3.413   0.088   0.898  0.00  0.00    +0.025 A 
ENDBRANCH  31  32
ENDBRANCH  26  31
ENDBRANCH   1  27
TORSDOF 6
