REMARK  Name = ZINC04354931
REMARK  6 active torsions:
REMARK  status: ('A' for Active; 'I' for Inactive)
REMARK    1  A    between atoms: C_1  and  C_2
REMARK    2  A    between atoms: C_10  and  C_22
REMARK    3  A    between atoms: C_12  and  C_18
REMARK    4  A    between atoms: C_12  and  C_20
REMARK    5  A    between atoms: C_13  and  N_17
REMARK    6  A    between atoms: C_14  and  C_15
REMARK                            x       y       z     vdW  Elec       q    Type
REMARK                         _______ _______ _______ _____ _____    ______ ____
ROOT
ATOM      1  C   UNL     1      -0.811   1.503   0.050  0.00  0.00    +0.008 C 
ATOM      2  C   UNL     1      -0.564  -0.007   0.023  0.00  0.00    -0.010 C 
ATOM      3  C   UNL     1       0.133  -0.393  -1.289  0.00  0.00    +0.030 C 
ATOM      4  C   UNL     1       0.320  -1.889  -1.284  0.00  0.00    -0.021 C 
ATOM      5  C   UNL     1       0.534  -2.540  -0.158  0.00  0.00    -0.029 C 
ATOM      6  C   UNL     1       0.664  -1.875   1.181  0.00  0.00    +0.031 C 
ATOM      7  C   UNL     1       0.346  -0.400   1.186  0.00  0.00    +0.012 C 
ATOM      8  C   UNL     1      -0.186  -2.652   2.187  0.00  0.00    +0.066 C 
ATOM      9  C   UNL     1       0.374  -4.069   2.317  0.00  0.00    +0.188 C 
ATOM     10  C   UNL     1       0.567  -4.715   0.979  0.00  0.00    +0.054 C 
ATOM     11  C   UNL     1       0.656  -4.022  -0.184  0.00  0.00    +0.074 C 
ENDROOT
BRANCH   8  12
ATOM     12  C   UNL     1      -0.139  -1.963   3.526  0.00  0.00    -0.039 A 
ATOM     13  C   UNL     1      -1.300  -1.790   4.256  0.00  0.00    +0.004 A 
ATOM     14  C   UNL     1      -1.258  -1.158   5.484  0.00  0.00    +0.002 A 
ATOM     15  C   UNL     1      -0.054  -0.698   5.984  0.00  0.00    +0.020 A 
ATOM     16  C   UNL     1       1.109  -0.871   5.254  0.00  0.00    +0.041 A 
ATOM     17  C   UNL     1       1.067  -1.509   4.027  0.00  0.00    +0.024 A 
ATOM     18 CL   UNL     1       2.622  -0.294   5.881  0.00  0.00    -0.084 Cl
ENDBRANCH   8  12
BRANCH  10  19
ATOM     19  N   UNL     1       0.658  -6.078   0.926  0.00  0.00    -0.358 N 
ATOM     20  H   UNL     1       0.597  -6.600   1.742  0.00  0.00    +0.142 HD
ATOM     21  H   UNL     1       0.783  -6.523   0.074  0.00  0.00    +0.142 HD
ENDBRANCH  10  19
BRANCH  11  22
ATOM     22  C   UNL     1       0.865  -4.709  -1.423  0.00  0.00    +0.101 C 
ATOM     23  N   UNL     1       1.031  -5.254  -2.406  0.00  0.00    -0.191 NA
ENDBRANCH  11  22
BRANCH   9  24
ATOM     24  C   UNL     1       1.669  -4.012   3.014  0.00  0.00    +0.091 C 
ATOM     25  N   UNL     1       2.669  -3.967   3.551  0.00  0.00    -0.194 NA
ENDBRANCH   9  24
BRANCH   9  26
ATOM     26  C   UNL     1      -0.560  -4.883   3.112  0.00  0.00    +0.091 C 
ATOM     27  N   UNL     1      -1.281  -5.511   3.726  0.00  0.00    -0.194 NA
ENDBRANCH   9  26
TORSDOF 5
