REMARK  Name = ZINC39673982
REMARK  8 active torsions:
REMARK  status: ('A' for Active; 'I' for Inactive)
REMARK    1  A    between atoms: C_1  and  C_2
REMARK    2  A    between atoms: C_4  and  C_12
REMARK    3  A    between atoms: C_12  and  C_13
REMARK    4  A    between atoms: C_13  and  N_14
REMARK    5  A    between atoms: C_15  and  C_17
REMARK    6  A    between atoms: C_28  and  C_30
REMARK    7  A    between atoms: C_33  and  O_36
REMARK    8  A    between atoms: O_36  and  C_37
REMARK                            x       y       z     vdW  Elec       q    Type
REMARK                         _______ _______ _______ _____ _____    ______ ____
ROOT
ATOM      1  C   UNL     1      -5.590   3.964   3.097  0.00  0.00    +0.100 C 
ATOM      2  C   UNL     1      -7.050   3.564   2.788  0.00  0.00    +0.121 C 
ATOM      3  N   UNL     1      -7.856   4.273   3.810  0.00  0.00    -0.296 N 
ATOM      4  C   UNL     1      -7.206   5.600   3.937  0.00  0.00    +0.115 C 
ATOM      5  C   UNL     1      -5.696   5.300   3.850  0.00  0.00    -0.004 C 
ATOM      6  C   UNL     1      -4.984   6.403   3.073  0.00  0.00    -0.010 C 
ATOM      7  C   UNL     1      -5.053   7.709   3.870  0.00  0.00    -0.082 C 
ATOM      8  N   UNL     1      -4.420   7.519   5.181  0.00  0.00    +0.379 N 
ATOM      9  C   UNL     1      -5.168   6.523   5.958  0.00  0.00    -0.082 C 
ATOM     10  C   UNL     1      -5.103   5.167   5.250  0.00  0.00    -0.010 C 
ATOM     11  C   UNL     1      -8.935   3.815   4.474  0.00  0.00    +0.247 C 
ATOM     12  O   UNL     1      -9.275   2.654   4.355  0.00  0.00    -0.270 OA
ATOM     13  H   UNL     1      -3.472   7.201   5.051  0.00  0.00    -0.086 HD
ATOM     14  H   UNL     1      -4.413   8.396   5.679  0.00  0.00    -0.086 HD
ENDROOT
BRANCH  11  15
ATOM     15  C   UNL     1      -9.706   4.723   5.347  0.00  0.00    +0.037 A 
ATOM     16  C   UNL     1      -9.617   6.106   5.170  0.00  0.00    +0.016 A 
ATOM     17  C   UNL     1     -10.337   6.950   5.986  0.00  0.00    +0.047 A 
ATOM     18  C   UNL     1     -11.151   6.428   6.984  0.00  0.00    +0.130 A 
ATOM     19  C   UNL     1     -11.242   5.052   7.163  0.00  0.00    +0.047 A 
ATOM     20  C   UNL     1     -10.529   4.202   6.348  0.00  0.00    +0.016 A 
BRANCH  18  21
ATOM     21  O   UNL     1     -11.859   7.263   7.786  0.00  0.00    -0.406 OA
BRANCH  21  22
ATOM     22  C   UNL     1     -12.675   6.659   8.792  0.00  0.00    +0.575 C 
ATOM     23  F   UNL     1     -11.873   5.902   9.652  0.00  0.00    -0.133 F 
ATOM     24  F   UNL     1     -13.330   7.657   9.522  0.00  0.00    -0.133 F 
ATOM     25  F   UNL     1     -13.623   5.827   8.186  0.00  0.00    -0.133 F 
ENDBRANCH  21  22
ENDBRANCH  18  21
ENDBRANCH  11  15
BRANCH   1  27
ATOM     26  N   UNL     1      -3.489   3.893   1.794  0.00  0.00    -0.315 N 
ATOM     27  C   UNL     1      -4.813   4.143   1.818  0.00  0.00    +0.218 C 
ATOM     28  O   UNL     1      -5.379   4.511   0.811  0.00  0.00    -0.275 OA
ATOM     29  H   UNL     1      -3.035   3.599   2.599  0.00  0.00    +0.149 HD
BRANCH  26  30
ATOM     30  C   UNL     1      -2.733   4.067   0.550  0.00  0.00    +0.109 C 
BRANCH  30  31
ATOM     31  C   UNL     1      -1.263   3.721   0.794  0.00  0.00    +0.056 C 
BRANCH  31  35
ATOM     32  C   UNL     1       0.140   6.326  -0.143  0.00  0.00    +0.063 C 
ATOM     33  C   UNL     1       0.124   5.022  -0.898  0.00  0.00    +0.017 A 
ATOM     34  H   UNL     1       1.222   5.473  -2.609  0.00  0.00    +0.166 HD
ATOM     35  C   UNL     1      -0.486   3.900  -0.485  0.00  0.00    -0.018 A 
ATOM     36  C   UNL     1      -0.254   2.882  -1.513  0.00  0.00    +0.003 A 
ATOM     37  C   UNL     1      -0.625   1.545  -1.656  0.00  0.00    +0.010 A 
ATOM     38  C   UNL     1      -0.239   0.848  -2.766  0.00  0.00    +0.001 A 
ATOM     39  C   UNL     1       0.521   1.459  -3.753  0.00  0.00    +0.002 A 
ATOM     40  C   UNL     1       0.899   2.779  -3.632  0.00  0.00    +0.026 A 
ATOM     41  C   UNL     1       0.517   3.507  -2.511  0.00  0.00    +0.047 A 
ATOM     42  N   UNL     1       0.724   4.808  -2.110  0.00  0.00    -0.358 N 
ENDBRANCH  31  35
ENDBRANCH  30  31
ENDBRANCH  26  30
ENDBRANCH   1  27
TORSDOF 7
