REMARK  Name = ZINC06501111
REMARK  13 active torsions:
REMARK  status: ('A' for Active; 'I' for Inactive)
REMARK    1  A    between atoms: C_1  and  C_2
REMARK    2  A    between atoms: C_2  and  C_3
REMARK    3  A    between atoms: C_3  and  C_4
REMARK    4  A    between atoms: C_4  and  C_6
REMARK    5  A    between atoms: C_4  and  N_14
REMARK    6  A    between atoms: N_8  and  C_9
REMARK    7  A    between atoms: N_14  and  C_15
REMARK    8  A    between atoms: C_19  and  C_22
REMARK    9  A    between atoms: C_20  and  C_21
REMARK   10  A    between atoms: C_23  and  C_25
REMARK   11  A    between atoms: C_26  and  N_39
REMARK   12  A    between atoms: C_27  and  C_30
REMARK   13  A    between atoms: N_32  and  C_33
REMARK                            x       y       z     vdW  Elec       q    Type
REMARK                         _______ _______ _______ _____ _____    ______ ____
ROOT
ATOM      1  N   UNL     1      -1.144   2.009   0.200  0.00  0.00    -0.255 N 
ATOM      2  C   UNL     1      -1.566   2.337  -1.037  0.00  0.00    +0.261 C 
ATOM      3  O   UNL     1      -2.589   2.982  -1.180  0.00  0.00    -0.269 OA
ENDROOT
BRANCH   1   4
ATOM      4  C   UNL     1       0.066   1.327   0.368  0.00  0.00    +0.041 A 
ATOM      5  C   UNL     1       0.064  -0.013   0.732  0.00  0.00    +0.024 A 
ATOM      6  C   UNL     1       1.260  -0.682   0.902  0.00  0.00    +0.002 A 
ATOM      7  C   UNL     1       2.459  -0.019   0.710  0.00  0.00    +0.004 A 
ATOM      8  C   UNL     1       2.463   1.316   0.348  0.00  0.00    -0.046 A 
ATOM      9  C   UNL     1       1.270   1.990   0.176  0.00  0.00    -0.026 A 
ATOM     10  C   UNL     1       1.277   3.445  -0.220  0.00  0.00    +0.046 C 
ATOM     11  C   UNL     1       3.772   2.035   0.140  0.00  0.00    +0.044 C 
ENDBRANCH   1   4
BRANCH   2  12
ATOM     12  C   UNL     1      -0.795   1.919  -2.209  0.00  0.00    +0.116 A 
ATOM     13  C   UNL     1      -1.002   2.218  -3.557  0.00  0.00    +0.076 A 
ATOM     14  C   UNL     1      -0.046   1.631  -4.387  0.00  0.00    +0.156 A 
ATOM     15  N   UNL     1       0.903   0.894  -3.854  0.00  0.00    -0.203 NA
ATOM     16  S   UNL     1       0.663   0.900  -2.296  0.00  0.00    +0.019 S 
BRANCH  14  17
ATOM     17  C   UNL     1      -0.101   1.834  -5.846  0.00  0.00    +0.265 C 
ATOM     18  O   UNL     1      -0.983   2.516  -6.332  0.00  0.00    -0.268 OA
ATOM     19  N   UNL     1       0.825   1.263  -6.641  0.00  0.00    -0.307 N 
ATOM     20  H   UNL     1       1.528   0.719  -6.253  0.00  0.00    +0.149 HD
BRANCH  19  21
ATOM     21  C   UNL     1       0.771   1.464  -8.091  0.00  0.00    +0.073 C 
ATOM     22  C   UNL     1      -0.181   0.440  -8.713  0.00  0.00    +0.022 C 
ATOM     23  C   UNL     1      -0.238   0.651 -10.227  0.00  0.00    +0.002 C 
ATOM     24  C   UNL     1       1.161   0.472 -10.820  0.00  0.00    +0.000 C 
ATOM     25  C   UNL     1       2.113   1.496 -10.198  0.00  0.00    +0.002 C 
ATOM     26  C   UNL     1       2.170   1.286  -8.684  0.00  0.00    +0.022 C 
ENDBRANCH  19  21
ENDBRANCH  14  17
BRANCH  13  27
ATOM     27  N   UNL     1      -2.042   3.013  -4.021  0.00  0.00    -0.355 N 
ATOM     28  H   UNL     1      -2.676   3.395  -3.394  0.00  0.00    +0.142 HD
ATOM     29  H   UNL     1      -2.134   3.185  -4.971  0.00  0.00    +0.142 HD
ENDBRANCH  13  27
ENDBRANCH   2  12
BRANCH   1  30
ATOM     30  C   UNL     1      -1.952   2.366   1.369  0.00  0.00    +0.167 C 
BRANCH  30  31
ATOM     31  C   UNL     1      -1.110   3.154   2.339  0.00  0.00    +0.234 C 
ATOM     32  O   UNL     1       0.050   3.393   2.080  0.00  0.00    -0.274 OA
ATOM     33  N   UNL     1      -1.647   3.592   3.495  0.00  0.00    -0.311 N 
ATOM     34  H   UNL     1      -2.575   3.401   3.702  0.00  0.00    +0.149 HD
BRANCH  33  35
ATOM     35  C   UNL     1      -0.829   4.358   4.439  0.00  0.00    +0.073 C 
ATOM     36  C   UNL     1      -0.091   3.400   5.397  0.00  0.00    +0.022 C 
ATOM     37  C   UNL     1      -0.106   4.140   6.758  0.00  0.00    +0.002 C 
ATOM     38  C   UNL     1      -1.506   4.802   6.773  0.00  0.00    +0.002 C 
ATOM     39  C   UNL     1      -1.728   5.249   5.314  0.00  0.00    +0.022 C 
ENDBRANCH  33  35
ENDBRANCH  30  31
BRANCH  30  40
ATOM     40  C   UNL     1      -2.456   1.092   2.049  0.00  0.00    +0.032 C 
BRANCH  40  42
ATOM     41  C   UNL     1      -4.023  -0.843   1.839  0.00  0.00    +0.004 C 
ATOM     42  C   UNL     1      -3.424   0.364   1.114  0.00  0.00    -0.001 C 
ENDBRANCH  40  42
ENDBRANCH  30  40
ENDBRANCH   1  30
TORSDOF 10
