REMARK  Name = ZINC66641501
REMARK  6 active torsions:
REMARK  status: ('A' for Active; 'I' for Inactive)
REMARK    1  A    between atoms: C_1  and  C_2
REMARK    2  A    between atoms: C_2  and  C_3
REMARK    3  A    between atoms: C_2  and  N_4
REMARK    4  A    between atoms: N_7  and  N_8
REMARK    5  A    between atoms: C_9  and  C_11
REMARK    6  A    between atoms: C_23  and  C_25
REMARK                            x       y       z     vdW  Elec       q    Type
REMARK                         _______ _______ _______ _____ _____    ______ ____
ROOT
ATOM      1  C   UNL     1       3.937  -2.043   4.609  0.00  0.00    +0.164 C 
ATOM      2  C   UNL     1       4.690  -0.706   4.786  0.00  0.00    +0.037 C 
ATOM      3  C   UNL     1       6.001  -1.145   5.508  0.00  0.00    +0.012 C 
ATOM      4  C   UNL     1       6.924  -1.716   4.430  0.00  0.00    +0.005 C 
ATOM      5  C   UNL     1       8.042  -2.543   5.060  0.00  0.00    +0.000 C 
ATOM      6  C   UNL     1       7.417  -3.724   5.810  0.00  0.00    +0.002 C 
ATOM      7  C   UNL     1       6.551  -3.173   6.943  0.00  0.00    +0.023 C 
ATOM      8  C   UNL     1       5.458  -2.257   6.424  0.00  0.00    +0.080 C 
ATOM      9  N   UNL     1       4.459  -2.977   5.623  0.00  0.00    -0.283 N 
ATOM     10  C   UNL     1       4.084  -4.262   5.784  0.00  0.00    +0.247 C 
ATOM     11  O   UNL     1       4.642  -4.959   6.609  0.00  0.00    -0.270 OA
ENDROOT
BRANCH  10  12
ATOM     12  C   UNL     1       2.994  -4.823   4.958  0.00  0.00    +0.037 A 
ATOM     13  C   UNL     1       2.938  -4.547   3.591  0.00  0.00    +0.013 A 
ATOM     14  C   UNL     1       1.918  -5.074   2.825  0.00  0.00    +0.001 A 
ATOM     15  C   UNL     1       0.953  -5.875   3.410  0.00  0.00    +0.000 A 
ATOM     16  C   UNL     1       1.003  -6.152   4.764  0.00  0.00    +0.001 A 
ATOM     17  C   UNL     1       2.021  -5.636   5.540  0.00  0.00    +0.013 A 
ENDBRANCH  10  12
BRANCH   1  19
ATOM     18  N   UNL     1       1.704  -1.327   3.824  0.00  0.00    -0.232 N 
ATOM     19  C   UNL     1       2.460  -1.831   4.819  0.00  0.00    +0.250 C 
ATOM     20  O   UNL     1       1.952  -2.115   5.883  0.00  0.00    -0.272 OA
ATOM     21  H   UNL     1       2.111  -1.099   2.973  0.00  0.00    +0.173 HD
BRANCH  18  25
ATOM     22  N   UNL     1       0.139  -0.309   1.841  0.00  0.00    -0.296 N 
ATOM     23  C   UNL     1      -0.426  -0.625   3.024  0.00  0.00    +0.316 C 
ATOM     24  O   UNL     1      -1.618  -0.454   3.193  0.00  0.00    -0.251 OA
ATOM     25  N   UNL     1       0.331  -1.130   4.019  0.00  0.00    -0.218 N 
ATOM     26  H   UNL     1       1.090  -0.446   1.706  0.00  0.00    +0.151 HD
ATOM     27  H   UNL     1      -0.076  -1.357   4.869  0.00  0.00    +0.174 HD
BRANCH  22  29
ATOM     28  C   UNL     1      -0.812   1.754   0.936  0.00  0.00    +0.027 C 
ATOM     29  C   UNL     1      -0.683   0.239   0.760  0.00  0.00    +0.068 C 
ATOM     30  C   UNL     1      -0.022  -0.063  -0.587  0.00  0.00    +0.027 C 
ENDBRANCH  22  29
ENDBRANCH  18  25
ENDBRANCH   1  19
TORSDOF 4
