REMARK  Name = ZINC12637313
REMARK  4 active torsions:
REMARK  status: ('A' for Active; 'I' for Inactive)
REMARK    1  A    between atoms: C_6  and  S_7
REMARK    2  A    between atoms: S_7  and  N_10
REMARK    3  A    between atoms: C_13  and  C_16
REMARK    4  A    between atoms: N_18  and  C_19
REMARK                            x       y       z     vdW  Elec       q    Type
REMARK                         _______ _______ _______ _____ _____    ______ ____
ROOT
ATOM      1  N   UNL     1       4.337  -1.074  -1.641  0.00  0.00    -0.177 NA
ATOM      2  C   UNL     1       3.904  -2.281  -2.357  0.00  0.00    +0.110 C 
ATOM      3  C   UNL     1       3.174  -1.854  -3.639  0.00  0.00    +0.030 C 
ATOM      4  C   UNL     1       4.085  -0.933  -4.455  0.00  0.00    +0.077 C 
ATOM      5  C   UNL     1       4.403   0.323  -3.641  0.00  0.00    +0.030 C 
ATOM      6  C   UNL     1       5.143  -0.077  -2.360  0.00  0.00    +0.110 C 
ENDROOT
BRANCH   4   7
ATOM      7  C   UNL     1       3.388  -0.541  -5.732  0.00  0.00    +0.217 C 
ATOM      8  O   UNL     1       3.167   0.628  -5.968  0.00  0.00    -0.275 OA
ATOM      9  N   UNL     1       3.009  -1.489  -6.612  0.00  0.00    -0.310 N 
ATOM     10  H   UNL     1       3.185  -2.424  -6.423  0.00  0.00    +0.149 HD
BRANCH   9  11
ATOM     11  C   UNL     1       2.332  -1.108  -7.853  0.00  0.00    +0.035 C 
ATOM     12  C   UNL     1       3.242  -0.188  -8.670  0.00  0.00    +0.029 C 
ATOM     13  C   UNL     1       2.535   0.210  -9.966  0.00  0.00    -0.008 C 
ATOM     14  C   UNL     1       2.216  -1.046 -10.780  0.00  0.00    +0.007 C 
ATOM     15  C   UNL     1       1.305  -1.965  -9.964  0.00  0.00    -0.008 C 
ATOM     16  C   UNL     1       2.013  -2.364  -8.667  0.00  0.00    +0.029 C 
ATOM     17  C   UNL     1       0.005  -1.230  -9.630  0.00  0.00    +0.007 C 
ATOM     18  C   UNL     1       0.324   0.026  -8.816  0.00  0.00    -0.008 C 
ATOM     19  C   UNL     1       1.235   0.945  -9.633  0.00  0.00    +0.007 C 
ATOM     20  C   UNL     1       1.032  -0.373  -7.520  0.00  0.00    +0.029 C 
ENDBRANCH   9  11
ENDBRANCH   4   7
BRANCH   1  21
ATOM     21  S   UNL     1       3.931  -0.843  -0.052  0.00  0.00    +0.061 S 
ATOM     22  O   UNL     1       4.904   0.038   0.492  0.00  0.00    -0.153 OA
ATOM     23  O   UNL     1       3.679  -2.131   0.494  0.00  0.00    -0.153 OA
BRANCH  21  29
ATOM     24  C   UNL     1       1.208  -0.680  -0.016  0.00  0.00    +0.032 A 
ATOM     25  C   UNL     1       0.002  -0.004   0.002  0.00  0.00    +0.051 A 
ATOM     26  C   UNL     1      -0.017   1.382   0.010  0.00  0.00    +0.162 A 
ATOM     27  C   UNL     1       1.180   2.090   0.002  0.00  0.00    +0.164 A 
ATOM     28  C   UNL     1       2.385   1.406  -0.018  0.00  0.00    +0.078 A 
ATOM     29  C   UNL     1       2.397   0.023  -0.027  0.00  0.00    +0.109 A 
ATOM     30  O   UNL     1       1.184   3.451   0.018  0.00  0.00    -0.485 OA
ATOM     31  C   UNL     1      -0.040   4.103  -0.340  0.00  0.00    +0.270 C 
ATOM     32  C   UNL     1      -1.188   3.413   0.408  0.00  0.00    +0.270 C 
ATOM     33  O   UNL     1      -1.211   2.034   0.019  0.00  0.00    -0.485 OA
ENDBRANCH  21  29
ENDBRANCH   1  21
TORSDOF 4
