REMARK  Name = ZINC06885291
REMARK  3 active torsions:
REMARK  status: ('A' for Active; 'I' for Inactive)
REMARK    1  A    between atoms: C_4  and  C_7
REMARK    2  A    between atoms: N_9  and  C_24
REMARK    3  A    between atoms: C_13  and  C_14
REMARK                            x       y       z     vdW  Elec       q    Type
REMARK                         _______ _______ _______ _____ _____    ______ ____
ROOT
ATOM      1  C   UNL     1       3.701  -0.689  -0.044  0.00  0.00    +0.102 C 
ATOM      2  N   UNL     1       4.886  -0.151  -0.172  0.00  0.00    -0.171 NA
ATOM      3  N   UNL     1       5.882  -1.127  -0.195  0.00  0.00    -0.156 N 
ATOM      4  C   UNL     1       5.336  -2.354  -0.079  0.00  0.00    +0.273 C 
ATOM      5  O   UNL     1       5.928  -3.420  -0.064  0.00  0.00    -0.268 OA
ATOM      6  C   UNL     1       3.887  -2.150   0.033  0.00  0.00    +0.067 C 
ATOM      7  C   UNL     1       2.903  -3.123   0.177  0.00  0.00    +0.022 C 
ENDROOT
BRANCH   7   8
ATOM      8  C   UNL     1       3.264  -4.462   0.359  0.00  0.00    -0.009 C 
ATOM      9  C   UNL     1       4.088  -4.818   1.391  0.00  0.00    +0.018 C 
ATOM     10  C   UNL     1       4.449  -6.234   1.520  0.00  0.00    +0.017 A 
ATOM     11  C   UNL     1       4.996  -6.743   2.700  0.00  0.00    +0.011 A 
ATOM     12  C   UNL     1       5.321  -8.081   2.777  0.00  0.00    +0.001 A 
ATOM     13  C   UNL     1       5.106  -8.917   1.692  0.00  0.00    +0.004 A 
ATOM     14  C   UNL     1       4.566  -8.426   0.518  0.00  0.00    +0.046 A 
ATOM     15  C   UNL     1       4.233  -7.087   0.420  0.00  0.00    +0.128 A 
ATOM     16  O   UNL     1       3.702  -6.575  -0.717  0.00  0.00    -0.487 OA
ATOM     17  C   UNL     1       2.743  -5.522  -0.576  0.00  0.00    +0.264 C 
ENDBRANCH   7   8
BRANCH   1  21
ATOM     18  C   UNL     1      -0.002   1.391   0.134  0.00  0.00    +0.000 A 
ATOM     19  C   UNL     1       0.050   0.123  -0.417  0.00  0.00    +0.001 A 
ATOM     20  C   UNL     1       1.249  -0.557  -0.477  0.00  0.00    +0.010 A 
ATOM     21  C   UNL     1       2.410   0.037   0.017  0.00  0.00    +0.003 A 
ATOM     22  C   UNL     1       2.352   1.315   0.571  0.00  0.00    +0.010 A 
ATOM     23  C   UNL     1       1.147   1.985   0.626  0.00  0.00    +0.001 A 
ENDBRANCH   1  21
BRANCH   3  24
ATOM     24  C   UNL     1       7.252  -0.870  -0.321  0.00  0.00    +0.060 A 
ATOM     25  C   UNL     1       8.159  -1.922  -0.339  0.00  0.00    +0.025 A 
ATOM     26  C   UNL     1       9.510  -1.664  -0.464  0.00  0.00    +0.002 A 
ATOM     27  C   UNL     1       9.960  -0.361  -0.571  0.00  0.00    +0.000 A 
ATOM     28  C   UNL     1       9.060   0.688  -0.553  0.00  0.00    +0.002 A 
ATOM     29  C   UNL     1       7.707   0.437  -0.435  0.00  0.00    +0.025 A 
ENDBRANCH   3  24
TORSDOF 3
