REMARK  Name = ZINC09171662
REMARK  2 active torsions:
REMARK  status: ('A' for Active; 'I' for Inactive)
REMARK    1  A    between atoms: C_6  and  N_7
REMARK    2  A    between atoms: C_8  and  C_10
REMARK                            x       y       z     vdW  Elec       q    Type
REMARK                         _______ _______ _______ _____ _____    ______ ____
ROOT
ATOM      1  N   UNL     1      -2.112   5.794  -0.958  0.00  0.00    -0.285 N 
ATOM      2  C   UNL     1      -1.367   5.138  -0.046  0.00  0.00    +0.223 C 
ATOM      3  O   UNL     1      -0.715   5.760   0.766  0.00  0.00    -0.275 OA
ATOM      4  H   UNL     1      -2.572   5.300  -1.654  0.00  0.00    +0.155 HD
ENDROOT
BRANCH   1  10
ATOM      5  C   UNL     1      -2.339   7.927  -2.072  0.00  0.00    +0.027 A 
ATOM      6  C   UNL     1      -2.456   9.302  -2.026  0.00  0.00    +0.048 A 
ATOM      7  C   UNL     1      -2.449   9.957  -0.806  0.00  0.00    +0.133 A 
ATOM      8  C   UNL     1      -2.324   9.219   0.382  0.00  0.00    +0.080 A 
ATOM      9  C   UNL     1      -2.213   7.832   0.330  0.00  0.00    +0.040 A 
ATOM     10  C   UNL     1      -2.224   7.190  -0.898  0.00  0.00    +0.034 A 
ATOM     11  C   UNL     1      -2.308   9.937   1.671  0.00  0.00    +0.248 C 
ATOM     12  O   UNL     1      -1.462   9.688   2.507  0.00  0.00    -0.270 OA
ATOM     13  N   UNL     1      -3.254  10.878   1.905  0.00  0.00    -0.308 N 
ATOM     14  C   UNL     1      -4.326  11.084   0.930  0.00  0.00    +0.145 C 
ATOM     15  C   UNL     1      -3.808  11.833  -0.291  0.00  0.00    +0.247 C 
ATOM     16  O   UNL     1      -2.564  11.308  -0.739  0.00  0.00    -0.490 OA
ATOM     17  H   UNL     1      -3.221  11.412   2.715  0.00  0.00    +0.149 HD
ENDBRANCH   1  10
BRANCH   2  18
ATOM     18  C   UNL     1      -1.342   3.631  -0.037  0.00  0.00    +0.048 C 
ATOM     19  C   UNL     1      -0.817   3.121  -1.381  0.00  0.00    +0.019 C 
ATOM     20  C   UNL     1      -0.792   1.592  -1.371  0.00  0.00    -0.009 C 
ATOM     21  C   UNL     1       0.124   1.104  -0.247  0.00  0.00    +0.007 C 
ATOM     22  C   UNL     1      -0.400   1.613   1.097  0.00  0.00    -0.009 C 
ATOM     23  C   UNL     1      -0.425   3.143   1.087  0.00  0.00    +0.019 C 
ATOM     24  C   UNL     1      -1.816   1.082   1.326  0.00  0.00    +0.007 C 
ATOM     25  C   UNL     1      -2.733   1.570   0.202  0.00  0.00    -0.009 C 
ATOM     26  C   UNL     1      -2.208   1.060  -1.142  0.00  0.00    +0.007 C 
ATOM     27  C   UNL     1      -2.758   3.099   0.192  0.00  0.00    +0.019 C 
ENDBRANCH   2  18
TORSDOF 2
