REMARK  Name = ZINC35898338
REMARK  15 active torsions:
REMARK  status: ('A' for Active; 'I' for Inactive)
REMARK    1  A    between atoms: C_1  and  C_2
REMARK    2  A    between atoms: C_2  and  C_3
REMARK    3  A    between atoms: C_3  and  C_5
REMARK    4  A    between atoms: C_3  and  O_6
REMARK    5  A    between atoms: O_6  and  C_7
REMARK    6  A    between atoms: C_7  and  C_9
REMARK    7  A    between atoms: C_10  and  C_37
REMARK    8  A    between atoms: C_14  and  C_16
REMARK    9  A    between atoms: C_19  and  O_24
REMARK   10  A    between atoms: C_20  and  O_22
REMARK   11  A    between atoms: O_22  and  C_23
REMARK   12  A    between atoms: C_27  and  C_33
REMARK   13  A    between atoms: C_29  and  C_32
REMARK   14  A    between atoms: C_33  and  O_35
REMARK   15  A    between atoms: O_35  and  C_36
REMARK                            x       y       z     vdW  Elec       q    Type
REMARK                         _______ _______ _______ _____ _____    ______ ____
ROOT
ATOM      1  C   UNL     1      -4.134   0.576  -2.266  0.00  0.00    +0.065 C 
ATOM      2  C   UNL     1      -5.476   0.502  -2.254  0.00  0.00    +0.016 C 
ATOM      3  N   UNL     1      -6.190   0.682  -3.406  0.00  0.00    -0.321 N 
ATOM      4  C   UNL     1      -5.588   0.543  -4.628  0.00  0.00    +0.016 C 
ATOM      5  C   UNL     1      -4.245   0.623  -4.743  0.00  0.00    +0.025 C 
ATOM      6  C   UNL     1      -3.381   0.871  -3.530  0.00  0.00    +0.092 C 
ATOM      7  C   UNL     1      -3.614   0.486  -5.992  0.00  0.00    +0.176 C 
ATOM      8  O   UNL     1      -2.403   0.546  -6.059  0.00  0.00    -0.291 OA
ATOM      9  C   UNL     1      -4.413   0.266  -7.248  0.00  0.00    +0.171 C 
ATOM     10  C   UNL     1      -5.797   0.901  -7.077  0.00  0.00    +0.013 C 
ATOM     11  C   UNL     1      -6.458   0.298  -5.836  0.00  0.00    +0.055 C 
ATOM     12  C   UNL     1      -5.649   2.414  -6.901  0.00  0.00    +0.009 C 
ATOM     13  C   UNL     1      -6.199   0.218  -0.963  0.00  0.00    +0.061 C 
ATOM     14  H   UNL     1      -7.131   0.909  -3.358  0.00  0.00    +0.152 HD
ENDROOT
BRANCH   6  15
ATOM     15  C   UNL     1      -2.939   2.312  -3.518  0.00  0.00    -0.032 A 
ATOM     16  C   UNL     1      -3.880   3.321  -3.434  0.00  0.00    +0.008 A 
ATOM     17  C   UNL     1      -3.480   4.644  -3.423  0.00  0.00    +0.049 A 
ATOM     18  C   UNL     1      -2.133   4.961  -3.495  0.00  0.00    +0.158 A 
ATOM     19  C   UNL     1      -1.186   3.945  -3.579  0.00  0.00    +0.162 A 
ATOM     20  C   UNL     1      -1.593   2.621  -3.585  0.00  0.00    +0.054 A 
BRANCH  19  21
ATOM     21  O   UNL     1       0.138   4.251  -3.650  0.00  0.00    -0.491 OA
ATOM     22  C   UNL     1       1.053   3.156  -3.734  0.00  0.00    +0.277 C 
ENDBRANCH  19  21
BRANCH  18  23
ATOM     23  O   UNL     1      -1.737   6.262  -3.485  0.00  0.00    -0.503 OA
ATOM     24  H   UNL     1      -1.570   6.615  -2.600  0.00  0.00    +0.292 HD
ENDBRANCH  18  23
ENDBRANCH   6  15
BRANCH   1  25
ATOM     25  C   UNL     1      -3.418   0.378  -1.062  0.00  0.00    +0.338 C 
ATOM     26  O   UNL     1      -2.815  -0.662  -0.877  0.00  0.00    -0.245 OA
BRANCH  25  27
ATOM     27  O   UNL     1      -3.403   1.343  -0.119  0.00  0.00    -0.458 OA
BRANCH  27  28
ATOM     28  C   UNL     1      -2.660   1.076   1.071  0.00  0.00    +0.173 C 
ATOM     29  C   UNL     1      -1.218   1.555   0.890  0.00  0.00    +0.052 C 
BRANCH  28  31
ATOM     30  C   UNL     1      -4.696   1.250   2.508  0.00  0.00    +0.007 C 
ATOM     31  C   UNL     1      -3.299   1.815   2.248  0.00  0.00    +0.041 C 
ENDBRANCH  28  31
ENDBRANCH  27  28
ENDBRANCH  25  27
ENDBRANCH   1  25
BRANCH   9  32
ATOM     32  C   UNL     1      -3.704   0.904  -8.415  0.00  0.00    +0.318 C 
ATOM     33  O   UNL     1      -4.250   1.773  -9.052  0.00  0.00    -0.250 OA
BRANCH  32  34
ATOM     34  O   UNL     1      -2.465   0.507  -8.746  0.00  0.00    -0.467 OA
ATOM     35  C   UNL     1      -1.853   1.155  -9.863  0.00  0.00    +0.280 C 
ENDBRANCH  32  34
ENDBRANCH   9  32
TORSDOF 9
