REMARK  Name = ZINC29923390
REMARK  11 active torsions:
REMARK  status: ('A' for Active; 'I' for Inactive)
REMARK    1  A    between atoms: C_1  and  C_2
REMARK    2  A    between atoms: C_5  and  N_8
REMARK    3  A    between atoms: N_8  and  S_9
REMARK    4  A    between atoms: S_9  and  C_12
REMARK    5  A    between atoms: C_15  and  C_34
REMARK    6  A    between atoms: C_16  and  C_18
REMARK    7  A    between atoms: N_20  and  N_21
REMARK    8  A    between atoms: N_21  and  C_22
REMARK    9  A    between atoms: C_22  and  N_24
REMARK   10  A    between atoms: N_24  and  C_25
REMARK   11  A    between atoms: C_31  and  C_33
REMARK                            x       y       z     vdW  Elec       q    Type
REMARK                         _______ _______ _______ _____ _____    ______ ____
ROOT
ATOM      1  C   UNL     1       0.509  -4.410   2.684  0.00  0.00    +0.109 A 
ATOM      2  C   UNL     1       0.972  -3.419   3.532  0.00  0.00    +0.029 A 
ATOM      3  C   UNL     1       0.416  -3.260   4.789  0.00  0.00    +0.006 A 
ATOM      4  C   UNL     1      -0.606  -4.089   5.205  0.00  0.00    -0.038 A 
ATOM      5  C   UNL     1      -1.077  -5.090   4.354  0.00  0.00    +0.043 A 
ATOM      6  C   UNL     1      -0.515  -5.242   3.086  0.00  0.00    +0.042 A 
ATOM      7  C   UNL     1      -1.210  -3.914   6.574  0.00  0.00    +0.044 C 
ENDROOT
BRANCH   5   8
ATOM      8  C   UNL     1      -2.171  -5.982   4.793  0.00  0.00    +0.260 C 
ATOM      9  O   UNL     1      -2.729  -5.784   5.855  0.00  0.00    -0.269 OA
ATOM     10  N   UNL     1      -2.551  -7.016   4.016  0.00  0.00    -0.231 N 
ATOM     11  H   UNL     1      -2.107  -7.174   3.168  0.00  0.00    +0.173 HD
BRANCH  10  12
ATOM     12  N   UNL     1      -3.588  -7.861   4.431  0.00  0.00    -0.246 N 
ATOM     13  H   UNL     1      -4.033  -7.703   5.279  0.00  0.00    +0.172 HD
BRANCH  12  14
ATOM     14  C   UNL     1      -3.968  -8.895   3.654  0.00  0.00    +0.147 C 
ATOM     15  S   UNL     1      -5.235  -9.928   4.162  0.00  0.00    -0.017 S 
BRANCH  14  16
ATOM     16  N   UNL     1      -3.350  -9.115   2.477  0.00  0.00    -0.322 N 
ATOM     17  H   UNL     1      -2.632  -8.529   2.189  0.00  0.00    +0.148 HD
BRANCH  16  18
ATOM     18  C   UNL     1      -3.763 -10.238   1.632  0.00  0.00    +0.075 C 
ATOM     19  C   UNL     1      -3.038 -11.508   2.082  0.00  0.00    +0.022 C 
ATOM     20  C   UNL     1      -3.469 -12.681   1.200  0.00  0.00    +0.002 C 
ATOM     21  C   UNL     1      -3.113 -12.381  -0.258  0.00  0.00    +0.000 C 
ATOM     22  C   UNL     1      -3.838 -11.111  -0.708  0.00  0.00    +0.005 C 
ATOM     23  C   UNL     1      -3.407  -9.937   0.174  0.00  0.00    +0.006 C 
ATOM     24  C   UNL     1      -4.131  -8.667  -0.276  0.00  0.00    +0.009 C 
ENDBRANCH  16  18
ENDBRANCH  14  16
ENDBRANCH  12  14
ENDBRANCH  10  12
ENDBRANCH   5   8
BRANCH   1  25
ATOM     25  S   UNL     1       1.225  -4.604   1.086  0.00  0.00    +0.072 S 
ATOM     26  O   UNL     1       0.860  -5.901   0.633  0.00  0.00    -0.150 OA
ATOM     27  O   UNL     1       2.580  -4.188   1.195  0.00  0.00    -0.150 OA
BRANCH  25  28
ATOM     28  N   UNL     1       0.477  -3.523   0.080  0.00  0.00    -0.216 N 
ATOM     29  H   UNL     1       0.990  -2.813  -0.337  0.00  0.00    +0.174 HD
BRANCH  28  34
ATOM     30  C   UNL     1      -5.085  -3.970  -0.933  0.00  0.00    +0.044 C 
ATOM     31  C   UNL     1      -3.607  -3.851  -0.664  0.00  0.00    -0.050 A 
ATOM     32  C   UNL     1      -3.055  -2.617  -0.374  0.00  0.00    +0.005 A 
ATOM     33  C   UNL     1      -1.701  -2.504  -0.127  0.00  0.00    +0.025 A 
ATOM     34  C   UNL     1      -0.893  -3.633  -0.170  0.00  0.00    +0.048 A 
ATOM     35  C   UNL     1      -1.450  -4.872  -0.461  0.00  0.00    +0.025 A 
ATOM     36  C   UNL     1      -2.806  -4.978  -0.702  0.00  0.00    +0.005 A 
ENDBRANCH  28  34
ENDBRANCH  25  28
ENDBRANCH   1  25
TORSDOF 8
