REMARK  Name = ZINC09018865
REMARK  7 active torsions:
REMARK  status: ('A' for Active; 'I' for Inactive)
REMARK    1  A    between atoms: C_1  and  C_2
REMARK    2  A    between atoms: C_2  and  C_3
REMARK    3  A    between atoms: C_2  and  C_4
REMARK    4  A    between atoms: C_2  and  C_5
REMARK    5  A    between atoms: C_13  and  S_16
REMARK    6  A    between atoms: S_16  and  C_17
REMARK    7  A    between atoms: C_17  and  C_18
REMARK                            x       y       z     vdW  Elec       q    Type
REMARK                         _______ _______ _______ _____ _____    ______ ____
ROOT
ATOM      1  C   UNL     1       1.211  -4.640  -3.256  0.00  0.00    +0.039 A 
ATOM      2  C   UNL     1       1.188  -5.985  -3.257  0.00  0.00    +0.092 A 
ATOM      3  C   UNL     1       1.192  -6.693  -2.029  0.00  0.00    +0.253 A 
ATOM      4  O   UNL     1       1.171  -7.911  -2.026  0.00  0.00    -0.268 OA
ATOM      5  N   UNL     1       1.218  -6.014  -0.865  0.00  0.00    -0.291 N 
ATOM      6  H   UNL     1       1.220  -6.494  -0.022  0.00  0.00    +0.172 HD
ATOM      7  C   UNL     1       1.241  -4.629  -0.874  0.00  0.00    +0.237 A 
ATOM      8  N   UNL     1       1.237  -3.950  -2.066  0.00  0.00    -0.260 N 
ATOM      9  C   UNL     1       1.263  -2.610  -1.785  0.00  0.00    +0.198 A 
ATOM     10  N   UNL     1       1.287  -2.470  -0.482  0.00  0.00    -0.120 NA
ATOM     11  N   UNL     1       1.268  -3.746   0.094  0.00  0.00    -0.109 NA
ENDROOT
BRANCH   1  13
ATOM     12  C   UNL     1       1.177  -4.882  -5.723  0.00  0.00    +0.017 C 
ATOM     13  C   UNL     1       1.206  -3.887  -4.561  0.00  0.00    +0.003 C 
ATOM     14  C   UNL     1      -0.031  -2.989  -4.628  0.00  0.00    +0.017 C 
ATOM     15  C   UNL     1       2.467  -3.026  -4.658  0.00  0.00    +0.017 C 
ENDBRANCH   1  13
BRANCH   9  16
ATOM     16  S   UNL     1       1.271  -1.304  -2.968  0.00  0.00    -0.081 S 
BRANCH  16  17
ATOM     17  C   UNL     1       1.309   0.203  -1.958  0.00  0.00    +0.112 C 
BRANCH  17  18
ATOM     18  C   UNL     1       1.318   1.411  -2.859  0.00  0.00    -0.037 A 
ATOM     19  C   UNL     1       0.126   1.985  -3.257  0.00  0.00    +0.006 A 
ATOM     20  C   UNL     1       0.134   3.094  -4.083  0.00  0.00    +0.020 A 
ATOM     21  C   UNL     1       1.336   3.628  -4.511  0.00  0.00    +0.041 A 
ATOM     22  C   UNL     1       2.529   3.053  -4.112  0.00  0.00    +0.020 A 
ATOM     23  C   UNL     1       2.520   1.945  -3.286  0.00  0.00    +0.006 A 
ATOM     24 CL   UNL     1       1.347   5.020  -5.548  0.00  0.00    -0.084 Cl
ENDBRANCH  17  18
ENDBRANCH  16  17
ENDBRANCH   9  16
TORSDOF 4
