REMARK  Name = ZINC39685814
REMARK  12 active torsions:
REMARK  status: ('A' for Active; 'I' for Inactive)
REMARK    1  A    between atoms: C_1  and  C_2
REMARK    2  A    between atoms: C_2  and  C_3
REMARK    3  A    between atoms: C_2  and  C_4
REMARK    4  A    between atoms: C_4  and  C_6
REMARK    5  A    between atoms: C_4  and  N_13
REMARK    6  A    between atoms: N_8  and  C_9
REMARK    7  A    between atoms: C_9  and  C_10
REMARK    8  A    between atoms: C_9  and  C_11
REMARK    9  A    between atoms: C_9  and  C_12
REMARK   10  A    between atoms: C_14  and  C_16
REMARK   11  A    between atoms: C_27  and  C_29
REMARK   12  A    between atoms: N_33  and  C_34
REMARK                            x       y       z     vdW  Elec       q    Type
REMARK                         _______ _______ _______ _____ _____    ______ ____
ROOT
ATOM      1  C   UNL     1      -2.169  -4.463  -0.852  0.00  0.00    +0.100 C 
ATOM      2  C   UNL     1      -3.303  -4.974  -1.769  0.00  0.00    +0.121 C 
ATOM      3  N   UNL     1      -3.570  -6.354  -1.301  0.00  0.00    -0.295 N 
ATOM      4  C   UNL     1      -3.464  -6.270   0.175  0.00  0.00    +0.115 C 
ATOM      5  C   UNL     1      -2.279  -5.316   0.423  0.00  0.00    -0.004 C 
ATOM      6  C   UNL     1      -2.562  -4.427   1.631  0.00  0.00    -0.010 C 
ATOM      7  C   UNL     1      -2.608  -5.290   2.895  0.00  0.00    -0.082 C 
ATOM      8  N   UNL     1      -1.326  -5.984   3.063  0.00  0.00    +0.379 N 
ATOM      9  C   UNL     1      -1.105  -6.907   1.942  0.00  0.00    -0.082 C 
ATOM     10  C   UNL     1      -0.995  -6.112   0.638  0.00  0.00    -0.010 C 
ATOM     11  C   UNL     1      -3.847  -7.441  -2.049  0.00  0.00    +0.263 C 
ATOM     12  O   UNL     1      -4.193  -8.477  -1.512  0.00  0.00    -0.268 OA
ATOM     13  H   UNL     1      -0.579  -5.306   3.091  0.00  0.00    -0.086 HD
ATOM     14  H   UNL     1      -1.337  -6.504   3.928  0.00  0.00    -0.086 HD
ENDROOT
BRANCH  11  15
ATOM     15  C   UNL     1      -3.731  -7.375  -3.510  0.00  0.00    +0.104 A 
ATOM     16  C   UNL     1      -3.002  -6.451  -4.228  0.00  0.00    +0.032 A 
ATOM     17  C   UNL     1      -3.171  -6.758  -5.582  0.00  0.00    +0.020 A 
ATOM     18  C   UNL     1      -3.983  -7.839  -5.665  0.00  0.00    +0.086 A 
ATOM     19  N   UNL     1      -4.326  -8.227  -4.412  0.00  0.00    -0.346 N 
ATOM     20  C   UNL     1      -5.188  -9.362  -4.075  0.00  0.00    +0.149 C 
ENDBRANCH  11  15
BRANCH   1  22
ATOM     21  N   UNL     1      -3.544  -2.588  -0.008  0.00  0.00    -0.303 N 
ATOM     22  C   UNL     1      -2.373  -3.006  -0.527  0.00  0.00    +0.219 C 
ATOM     23  O   UNL     1      -1.483  -2.208  -0.734  0.00  0.00    -0.275 OA
ATOM     24  H   UNL     1      -4.229  -3.234   0.225  0.00  0.00    +0.149 HD
BRANCH  21  25
ATOM     25  C   UNL     1      -3.783  -1.158   0.205  0.00  0.00    +0.161 C 
BRANCH  25  26
ATOM     26  C   UNL     1      -4.807  -0.977   1.296  0.00  0.00    +0.234 C 
ATOM     27  O   UNL     1      -5.241  -1.943   1.887  0.00  0.00    -0.274 OA
ATOM     28  N   UNL     1      -5.239   0.259   1.615  0.00  0.00    -0.309 N 
ATOM     29  H   UNL     1      -4.841   1.036   1.194  0.00  0.00    +0.149 HD
BRANCH  28  30
ATOM     30  C   UNL     1      -6.312   0.428   2.599  0.00  0.00    +0.026 C 
ATOM     31  C   UNL     1      -5.874  -0.168   3.938  0.00  0.00    +0.031 C 
ATOM     32  C   UNL     1      -6.610   1.918   2.777  0.00  0.00    +0.031 C 
ATOM     33  C   UNL     1      -7.571  -0.289   2.109  0.00  0.00    +0.031 C 
ENDBRANCH  28  30
ENDBRANCH  25  26
BRANCH  25  35
ATOM     34  C   UNL     1      -3.297  -0.780  -2.217  0.00  0.00    +0.009 C 
ATOM     35  C   UNL     1      -4.302  -0.530  -1.090  0.00  0.00    +0.012 C 
ATOM     36  C   UNL     1      -5.648  -1.158  -1.459  0.00  0.00    +0.009 C 
ENDBRANCH  25  35
ENDBRANCH  21  25
ENDBRANCH   1  22
TORSDOF 6
