REMARK  Name = ZINC50769212
REMARK  6 active torsions:
REMARK  status: ('A' for Active; 'I' for Inactive)
REMARK    1  A    between atoms: C_1  and  C_2
REMARK    2  A    between atoms: C_5  and  C_8
REMARK    3  A    between atoms: C_8  and  C_9
REMARK    4  A    between atoms: C_16  and  C_18
REMARK    5  A    between atoms: C_18  and  C_20
REMARK    6  A    between atoms: C_18  and  N_21
REMARK                            x       y       z     vdW  Elec       q    Type
REMARK                         _______ _______ _______ _____ _____    ______ ____
ROOT
ATOM      1  C   UNL     1       2.383  -4.343   0.343  0.00  0.00    +0.011 C 
ATOM      2  C   UNL     1       3.135  -3.980  -0.939  0.00  0.00    +0.007 C 
ATOM      3  C   UNL     1       4.414  -4.815  -1.036  0.00  0.00    +0.019 C 
ATOM      4  C   UNL     1       4.047  -6.301  -1.096  0.00  0.00    +0.108 C 
ATOM      5  N   UNL     1       3.200  -6.625   0.061  0.00  0.00    -0.300 N 
ATOM      6  C   UNL     1       1.992  -5.824   0.300  0.00  0.00    +0.111 C 
ATOM      7  C   UNL     1       3.526  -7.639   0.887  0.00  0.00    +0.236 C 
ATOM      8  O   UNL     1       4.473  -8.351   0.629  0.00  0.00    -0.274 OA
ENDROOT
BRANCH   7   9
ATOM      9  C   UNL     1       2.715  -7.886   2.133  0.00  0.00    +0.157 C 
ATOM     10  C   UNL     1       1.473  -8.707   1.778  0.00  0.00    +0.038 C 
BRANCH   9  11
ATOM     11  N   UNL     1       3.525  -8.622   3.106  0.00  0.00    -0.289 N 
ATOM     12  C   UNL     1       3.247  -8.530   4.421  0.00  0.00    +0.298 C 
ATOM     13  O   UNL     1       2.323  -7.837   4.800  0.00  0.00    -0.253 OA
ATOM     14  N   UNL     1       3.993  -9.207   5.317  0.00  0.00    -0.313 N 
ATOM     15  H   UNL     1       4.262  -9.175   2.803  0.00  0.00    +0.151 HD
ATOM     16  H   UNL     1       4.730  -9.761   5.014  0.00  0.00    +0.146 HD
ATOM     17  H   UNL     1       3.793  -9.142   6.263  0.00  0.00    +0.146 HD
ENDBRANCH   9  11
ENDBRANCH   7   9
BRANCH   1  18
ATOM     18  C   UNL     1       1.121  -3.485   0.455  0.00  0.00    +0.040 C 
BRANCH  18  23
ATOM     19  C   UNL     1       2.610   2.063   1.085  0.00  0.00    +0.044 C 
ATOM     20  C   UNL     1       2.222   0.616   0.921  0.00  0.00    -0.050 A 
ATOM     21  C   UNL     1       2.033   0.090  -0.344  0.00  0.00    +0.003 A 
ATOM     22  C   UNL     1       1.677  -1.237  -0.494  0.00  0.00    +0.004 A 
ATOM     23  C   UNL     1       1.510  -2.039   0.619  0.00  0.00    -0.047 A 
ATOM     24  C   UNL     1       1.700  -1.513   1.884  0.00  0.00    +0.004 A 
ATOM     25  C   UNL     1       2.061  -0.187   2.034  0.00  0.00    +0.003 A 
ENDBRANCH  18  23
ENDBRANCH   1  18
TORSDOF 4
