REMARK  Name = ZINC22807778
REMARK  7 active torsions:
REMARK  status: ('A' for Active; 'I' for Inactive)
REMARK    1  A    between atoms: C_3  and  C_6
REMARK    2  A    between atoms: C_15  and  C_17
REMARK    3  A    between atoms: C_17  and  N_18
REMARK    4  A    between atoms: N_21  and  C_24
REMARK    5  A    between atoms: C_24  and  C_25
REMARK    6  A    between atoms: N_27  and  C_28
REMARK    7  A    between atoms: C_28  and  C_29
REMARK                            x       y       z     vdW  Elec       q    Type
REMARK                         _______ _______ _______ _____ _____    ______ ____
ROOT
ATOM      1  N   UNL     1       9.174   0.952   3.034  0.00  0.00    +0.386 N 
ATOM      2  C   UNL     1       8.950   2.379   3.301  0.00  0.00    -0.063 C 
ATOM      3  C   UNL     1      10.187   3.177   2.883  0.00  0.00    +0.066 C 
ATOM      4  N   UNL     1      11.354   2.697   3.638  0.00  0.00    -0.298 NA
ATOM      5  C   UNL     1      11.576   1.264   3.400  0.00  0.00    +0.066 C 
ATOM      6  C   UNL     1      10.327   0.482   3.813  0.00  0.00    -0.063 C 
ATOM      7  H   UNL     1       9.356   0.819   2.051  0.00  0.00    -0.081 HD
ENDROOT
BRANCH   1   8
ATOM      8  C   UNL     1       7.979   0.188   3.419  0.00  0.00    -0.003 C 
BRANCH   8  18
ATOM      9  C   UNL     1       3.740   1.823  -0.024  0.00  0.00    +0.010 A 
ATOM     10  C   UNL     1       4.131   2.771  -0.913  0.00  0.00    +0.057 A 
ATOM     11  S   UNL     1       5.853   3.017  -0.524  0.00  0.00    -0.076 S 
ATOM     12  C   UNL     1       6.008   1.855   0.808  0.00  0.00    +0.116 A 
ATOM     13  C   UNL     1       4.720   1.307   0.925  0.00  0.00    +0.080 A 
ATOM     14  C   UNL     1       4.556   0.323   1.951  0.00  0.00    +0.260 A 
ATOM     15  O   UNL     1       3.476  -0.213   2.127  0.00  0.00    -0.267 OA
ATOM     16  N   UNL     1       5.613  -0.002   2.718  0.00  0.00    -0.312 N 
ATOM     17  H   UNL     1       5.508  -0.669   3.415  0.00  0.00    +0.170 HD
ATOM     18  C   UNL     1       6.824   0.584   2.536  0.00  0.00    +0.094 A 
ATOM     19  N   UNL     1       7.008   1.479   1.602  0.00  0.00    -0.229 NA
BRANCH   9  22
ATOM     20  C   UNL     1      -0.016   1.353   0.009  0.00  0.00    +0.008 A 
ATOM     21  C   UNL     1       1.179   2.041   0.002  0.00  0.00    +0.016 A 
ATOM     22  C   UNL     1       2.348   1.328  -0.013  0.00  0.00    +0.021 A 
ATOM     23  S   UNL     1       1.752  -0.355  -0.017  0.00  0.00    -0.097 S 
ATOM     24  C   UNL     1       0.002  -0.004   0.002  0.00  0.00    +0.046 A 
ENDBRANCH   9  22
ENDBRANCH   8  18
ENDBRANCH   1   8
BRANCH   4  25
ATOM     25  C   UNL     1      12.553   3.478   3.305  0.00  0.00    +0.180 C 
BRANCH  25  26
ATOM     26  C   UNL     1      13.662   3.128   4.264  0.00  0.00    +0.227 C 
ATOM     27  O   UNL     1      13.472   2.309   5.138  0.00  0.00    -0.274 OA
ATOM     28  N   UNL     1      14.864   3.726   4.150  0.00  0.00    -0.312 N 
ATOM     29  H   UNL     1      15.016   4.381   3.451  0.00  0.00    +0.149 HD
BRANCH  28  30
ATOM     30  C   UNL     1      15.942   3.386   5.082  0.00  0.00    +0.135 C 
BRANCH  30  31
ATOM     31  C   UNL     1      17.191   4.199   4.736  0.00  0.00    +0.135 C 
ATOM     32  C   UNL     1      18.366   3.765   5.639  0.00  0.00    +0.035 C 
ATOM     33  C   UNL     1      19.063   5.118   5.945  0.00  0.00    +0.031 C 
ATOM     34  C   UNL     1      17.844   6.073   5.994  0.00  0.00    +0.160 C 
ATOM     35  O   UNL     1      16.949   5.590   4.980  0.00  0.00    -0.375 OA
ENDBRANCH  30  31
ENDBRANCH  28  30
ENDBRANCH  25  26
ENDBRANCH   4  25
TORSDOF 7
