REMARK  Name = ZINC02399654
REMARK  9 active torsions:
REMARK  status: ('A' for Active; 'I' for Inactive)
REMARK    1  A    between atoms: C_1  and  C_2
REMARK    2  A    between atoms: C_9  and  O_25
REMARK    3  A    between atoms: C_10  and  C_13
REMARK    4  A    between atoms: C_14  and  C_15
REMARK    5  A    between atoms: C_14  and  C_17
REMARK    6  A    between atoms: N_19  and  C_20
REMARK    7  A    between atoms: O_25  and  C_26
REMARK    8  A    between atoms: C_29  and  O_32
REMARK    9  A    between atoms: O_32  and  C_33
REMARK                            x       y       z     vdW  Elec       q    Type
REMARK                         _______ _______ _______ _____ _____    ______ ____
ROOT
ATOM      1  C   UNL     1       0.022  -1.933  11.818  0.00  0.00    +0.047 C 
ATOM      2  C   UNL     1       0.146  -2.470  10.416  0.00  0.00    -0.007 A 
ATOM      3  C   UNL     1       0.435  -3.787  10.208  0.00  0.00    +0.008 A 
ATOM      4  C   UNL     1       0.546  -4.271   8.898  0.00  0.00    +0.019 A 
ATOM      5  C   UNL     1       0.368  -3.436   7.849  0.00  0.00    +0.096 A 
ATOM      6  N   UNL     1       0.079  -2.119   8.047  0.00  0.00    -0.267 N 
ATOM      7  C   UNL     1      -0.036  -1.617   9.313  0.00  0.00    +0.147 A 
ATOM      8  N   UNL     1      -0.318  -0.331   9.528  0.00  0.00    -0.194 NA
ATOM      9  C   UNL     1      -0.500   0.517   8.530  0.00  0.00    +0.235 A 
ATOM     10  C   UNL     1      -0.393   0.058   7.195  0.00  0.00    +0.103 A 
ATOM     11  C   UNL     1      -0.098  -1.314   6.977  0.00  0.00    +0.269 A 
ATOM     12  O   UNL     1      -0.002  -1.756   5.846  0.00  0.00    -0.266 OA
ENDROOT
BRANCH  10  13
ATOM     13  C   UNL     1      -0.581   0.936   6.112  0.00  0.00    +0.042 C 
ATOM     14  C   UNL     1       0.191   2.085   6.009  0.00  0.00    +0.114 C 
BRANCH  14  15
ATOM     15  C   UNL     1      -0.088   3.064   4.953  0.00  0.00    +0.255 C 
ATOM     16  O   UNL     1      -0.997   2.868   4.167  0.00  0.00    -0.269 OA
ATOM     17  N   UNL     1       0.661   4.180   4.853  0.00  0.00    -0.308 N 
ATOM     18  H   UNL     1       1.385   4.336   5.480  0.00  0.00    +0.149 HD
BRANCH  17  19
ATOM     19  C   UNL     1       0.382   5.157   3.798  0.00  0.00    +0.073 C 
ATOM     20  C   UNL     1       0.878   6.566   4.210  0.00  0.00    +0.022 C 
ATOM     21  C   UNL     1       1.089   7.302   2.871  0.00  0.00    +0.002 C 
ATOM     22  C   UNL     1       1.310   6.217   1.802  0.00  0.00    +0.002 C 
ATOM     23  C   UNL     1       1.226   4.859   2.530  0.00  0.00    +0.022 C 
ENDBRANCH  17  19
ENDBRANCH  14  15
BRANCH  14  24
ATOM     24  C   UNL     1       1.259   2.316   6.934  0.00  0.00    +0.104 C 
ATOM     25  N   UNL     1       2.107   2.498   7.668  0.00  0.00    -0.191 NA
ENDBRANCH  14  24
ENDBRANCH  10  13
BRANCH   9  26
ATOM     26  O   UNL     1      -0.785   1.814   8.783  0.00  0.00    -0.437 OA
BRANCH  26  27
ATOM     27  C   UNL     1      -0.793   2.225  10.079  0.00  0.00    +0.131 A 
ATOM     28  C   UNL     1      -1.997   2.502  10.711  0.00  0.00    +0.050 A 
ATOM     29  C   UNL     1      -2.006   2.913  12.029  0.00  0.00    +0.049 A 
ATOM     30  C   UNL     1      -0.811   3.062  12.718  0.00  0.00    +0.120 A 
ATOM     31  C   UNL     1       0.393   2.790  12.084  0.00  0.00    +0.049 A 
ATOM     32  C   UNL     1       0.402   2.373  10.768  0.00  0.00    +0.050 A 
BRANCH  30  33
ATOM     33  O   UNL     1      -0.820   3.472  14.014  0.00  0.00    -0.495 OA
ATOM     34  C   UNL     1      -2.095   3.734  14.603  0.00  0.00    +0.277 C 
ENDBRANCH  30  33
ENDBRANCH  26  27
ENDBRANCH   9  26
TORSDOF 7
