REMARK  Name = ZINC09659283
REMARK  5 active torsions:
REMARK  status: ('A' for Active; 'I' for Inactive)
REMARK    1  A    between atoms: C_4  and  N_11
REMARK    2  A    between atoms: C_5  and  C_7
REMARK    3  A    between atoms: C_12  and  C_14
REMARK    4  A    between atoms: C_14  and  C_15
REMARK    5  A    between atoms: C_21  and  C_23
REMARK                            x       y       z     vdW  Elec       q    Type
REMARK                         _______ _______ _______ _____ _____    ______ ____
ROOT
ATOM      1  C   UNL     1      -3.960   5.931   0.041  0.00  0.00    +0.059 A 
ATOM      2  C   UNL     1      -4.997   5.058   0.033  0.00  0.00    +0.072 A 
ATOM      3  S   UNL     1      -4.120   3.501   0.023  0.00  0.00    -0.060 S 
ATOM      4  C   UNL     1      -2.509   4.149   0.030  0.00  0.00    +0.165 A 
ATOM      5  N   UNL     1      -2.732   5.449   0.046  0.00  0.00    -0.229 NA
ATOM      6  N   UNL     1      -1.296   3.472   0.027  0.00  0.00    -0.261 N 
ATOM      7  C   UNL     1      -1.276   2.125   0.017  0.00  0.00    +0.250 C 
ATOM      8  O   UNL     1      -2.320   1.501   0.010  0.00  0.00    -0.270 OA
ATOM      9  H   UNL     1      -0.463   3.970   0.033  0.00  0.00    +0.157 HD
ENDROOT
BRANCH   7  10
ATOM     10  C   UNL     1       0.013   1.406   0.013  0.00  0.00    +0.041 A 
ATOM     11  C   UNL     1       1.213   2.120   0.015  0.00  0.00    +0.017 A 
ATOM     12  C   UNL     1       2.416   1.447   0.007  0.00  0.00    +0.050 A 
ATOM     13  C   UNL     1       2.439   0.059  -0.004  0.00  0.00    +0.166 A 
ATOM     14  C   UNL     1       1.244  -0.661  -0.006  0.00  0.00    +0.167 A 
ATOM     15  C   UNL     1       0.035   0.009   0.002  0.00  0.00    +0.062 A 
ATOM     16  O   UNL     1       1.538  -1.994  -0.019  0.00  0.00    -0.453 OA
ATOM     17  C   UNL     1       2.913  -2.079  -0.436  0.00  0.00    +0.466 C 
ATOM     18  O   UNL     1       3.478  -0.824  -0.014  0.00  0.00    -0.453 OA
ENDBRANCH   7  10
BRANCH   1  19
ATOM     19  C   UNL     1      -4.204   7.418   0.053  0.00  0.00    +0.152 C 
BRANCH  19  21
ATOM     20  N   UNL     1      -3.559   9.365   1.435  0.00  0.00    -0.285 N 
ATOM     21  C   UNL     1      -3.483   8.037   1.222  0.00  0.00    +0.223 C 
ATOM     22  O   UNL     1      -2.834   7.339   1.973  0.00  0.00    -0.275 OA
ATOM     23  H   UNL     1      -4.023   9.932   0.799  0.00  0.00    +0.155 HD
BRANCH  20  27
ATOM     24  C   UNL     1      -1.801  11.038   4.822  0.00  0.00    +0.001 A 
ATOM     25  C   UNL     1      -1.204   9.959   4.195  0.00  0.00    +0.002 A 
ATOM     26  C   UNL     1      -1.786   9.399   3.075  0.00  0.00    +0.024 A 
ATOM     27  C   UNL     1      -2.969   9.927   2.572  0.00  0.00    +0.045 A 
ATOM     28  C   UNL     1      -3.566  11.010   3.204  0.00  0.00    +0.076 A 
ATOM     29  C   UNL     1      -2.981  11.562   4.326  0.00  0.00    +0.014 A 
BRANCH  28  30
ATOM     30  C   UNL     1      -4.852  11.581   2.665  0.00  0.00    +0.419 C 
ATOM     31  F   UNL     1      -5.255  12.657   3.463  0.00  0.00    -0.166 F 
ATOM     32  F   UNL     1      -4.653  12.024   1.353  0.00  0.00    -0.166 F 
ATOM     33  F   UNL     1      -5.843  10.594   2.678  0.00  0.00    -0.166 F 
ENDBRANCH  28  30
ENDBRANCH  20  27
ENDBRANCH  19  21
ENDBRANCH   1  19
TORSDOF 5
