REMARK  Name = ZINC26371623
REMARK  4 active torsions:
REMARK  status: ('A' for Active; 'I' for Inactive)
REMARK    1  A    between atoms: C_1  and  C_2
REMARK    2  A    between atoms: C_9  and  C_13
REMARK    3  A    between atoms: C_13  and  S_14
REMARK    4  A    between atoms: S_14  and  C_15
REMARK                            x       y       z     vdW  Elec       q    Type
REMARK                         _______ _______ _______ _____ _____    ______ ____
ROOT
ATOM      1  C   UNL     1       4.798   4.099  -0.021  0.00  0.00    +0.044 C 
ATOM      2  C   UNL     1       3.497   3.340  -0.013  0.00  0.00    -0.046 A 
ATOM      3  C   UNL     1       3.498   1.938  -0.020  0.00  0.00    +0.021 A 
ATOM      4  C   UNL     1       2.330   1.257  -0.013  0.00  0.00    +0.096 A 
ATOM      5  N   UNL     1       1.139   1.918   0.002  0.00  0.00    -0.268 N 
ATOM      6  C   UNL     1       1.105   3.285   0.009  0.00  0.00    +0.141 A 
ATOM      7  C   UNL     1       2.311   4.011   0.001  0.00  0.00    +0.050 A 
ATOM      8  N   UNL     1      -0.055   3.939   0.023  0.00  0.00    -0.233 NA
ATOM      9  C   UNL     1      -1.210   3.292   0.030  0.00  0.00    +0.059 A 
ATOM     10  C   UNL     1      -1.230   1.911   0.018  0.00  0.00    +0.094 A 
ATOM     11  C   UNL     1      -0.015   1.217   0.009  0.00  0.00    +0.259 A 
ATOM     12  O   UNL     1       0.002  -0.004   0.002  0.00  0.00    -0.267 OA
ENDROOT
BRANCH   9  13
ATOM     13  C   UNL     1      -2.505   4.064   0.046  0.00  0.00    +0.133 C 
BRANCH  13  14
ATOM     14  S   UNL     1      -2.782   4.745   1.704  0.00  0.00    -0.081 S 
BRANCH  14  15
ATOM     15  C   UNL     1      -4.313   5.606   1.560  0.00  0.00    +0.174 A 
ATOM     16  N   UNL     1      -5.035   5.700   0.465  0.00  0.00    -0.229 NA
ATOM     17  C   UNL     1      -6.136   6.421   0.706  0.00  0.00    +0.139 A 
ATOM     18  C   UNL     1      -6.100   6.811   2.026  0.00  0.00    +0.067 A 
ATOM     19  N   UNL     1      -4.932   6.286   2.560  0.00  0.00    -0.295 N 
ATOM     20  C   UNL     1      -4.620   6.512   3.880  0.00  0.00    +0.094 A 
ATOM     21  C   UNL     1      -5.439   7.240   4.660  0.00  0.00    +0.018 A 
ATOM     22  C   UNL     1      -6.631   7.785   4.140  0.00  0.00    +0.003 A 
ATOM     23  C   UNL     1      -6.962   7.576   2.840  0.00  0.00    +0.028 A 
ENDBRANCH  14  15
ENDBRANCH  13  14
ENDBRANCH   9  13
TORSDOF 3
