REMARK  Name = ZINC31835543
REMARK  9 active torsions:
REMARK  status: ('A' for Active; 'I' for Inactive)
REMARK    1  A    between atoms: C_1  and  C_2
REMARK    2  A    between atoms: C_2  and  C_3
REMARK    3  A    between atoms: C_2  and  C_4
REMARK    4  A    between atoms: C_5  and  C_19
REMARK    5  A    between atoms: C_12  and  C_15
REMARK    6  A    between atoms: C_24  and  C_27
REMARK    7  A    between atoms: C_27  and  C_28
REMARK    8  A    between atoms: C_27  and  C_29
REMARK    9  A    between atoms: C_27  and  C_30
REMARK                            x       y       z     vdW  Elec       q    Type
REMARK                         _______ _______ _______ _____ _____    ______ ____
ROOT
ATOM      1  C   UNL     1       3.542   1.640  -0.514  0.00  0.00    +0.061 A 
ATOM      2  C   UNL     1       4.507   0.673  -0.318  0.00  0.00    +0.078 A 
ATOM      3  C   UNL     1       3.879  -0.422   0.318  0.00  0.00    +0.148 A 
ATOM      4  N   UNL     1       2.621  -0.121   0.493  0.00  0.00    -0.172 NA
ATOM      5  N   UNL     1       2.385   1.158  -0.023  0.00  0.00    -0.218 N 
ATOM      6  C   UNL     1       1.156   1.824  -0.024  0.00  0.00    +0.154 A 
ATOM      7  C   UNL     1      -0.025   1.092   0.012  0.00  0.00    +0.049 A 
ATOM      8  C   UNL     1      -1.235   1.764   0.005  0.00  0.00    +0.017 A 
ATOM      9  C   UNL     1      -1.221   3.151  -0.026  0.00  0.00    +0.073 A 
ATOM     10  C   UNL     1      -0.010   3.815  -0.060  0.00  0.00    +0.125 A 
ATOM     11  N   UNL     1       1.127   3.147  -0.058  0.00  0.00    -0.236 NA
ENDROOT
BRANCH   2  12
ATOM     12  C   UNL     1       5.928   0.766  -0.699  0.00  0.00    +0.253 C 
ATOM     13  O   UNL     1       6.371   1.807  -1.145  0.00  0.00    -0.270 OA
ATOM     14  N   UNL     1       6.735  -0.303  -0.554  0.00  0.00    -0.261 N 
ATOM     15  C   UNL     1       8.074  -0.216  -0.914  0.00  0.00    +0.165 A 
ATOM     16  N   UNL     1       9.013  -1.140  -0.843  0.00  0.00    -0.229 NA
ATOM     17  C   UNL     1      10.248  -0.890  -1.234  0.00  0.00    +0.056 A 
ATOM     18  C   UNL     1      10.539   0.347  -1.704  0.00  0.00    +0.072 A 
ATOM     19  S   UNL     1       8.943   1.139  -1.565  0.00  0.00    -0.060 S 
ATOM     20  H   UNL     1       6.334  -1.245  -0.152  0.00  0.00    +0.157 HD
BRANCH  17  21
ATOM     21  C   UNL     1      11.312  -1.955  -1.153  0.00  0.00    +0.005 C 
ATOM     22  C   UNL     1      12.241  -1.659   0.026  0.00  0.00    +0.017 C 
ATOM     23  C   UNL     1      10.652  -3.321  -0.953  0.00  0.00    +0.017 C 
ATOM     24  C   UNL     1      12.122  -1.965  -2.451  0.00  0.00    +0.017 C 
ENDBRANCH  17  21
ENDBRANCH   2  12
BRANCH   9  25
ATOM     25  C   UNL     1      -2.514   3.926  -0.028  0.00  0.00    +0.419 C 
ATOM     26  F   UNL     1      -2.236   5.296  -0.069  0.00  0.00    -0.166 F 
ATOM     27  F   UNL     1      -3.268   3.570  -1.151  0.00  0.00    -0.166 F 
ATOM     28  F   UNL     1      -3.237   3.630   1.132  0.00  0.00    -0.166 F 
ENDBRANCH   9  25
BRANCH   1  30
ATOM     29  C   UNL     1       4.736   3.805  -0.330  0.00  0.00    +0.014 C 
ATOM     30  C   UNL     1       3.745   2.987  -1.160  0.00  0.00    +0.032 C 
ATOM     31  C   UNL     1       4.298   2.796  -2.573  0.00  0.00    +0.014 C 
ENDBRANCH   1  30
TORSDOF 4
