REMARK  Name = ZINC12106061
REMARK  8 active torsions:
REMARK  status: ('A' for Active; 'I' for Inactive)
REMARK    1  A    between atoms: C_1  and  N_2
REMARK    2  A    between atoms: N_2  and  C_3
REMARK    3  A    between atoms: C_6  and  C_11
REMARK    4  A    between atoms: C_11  and  S_12
REMARK    5  A    between atoms: S_12  and  C_13
REMARK    6  A    between atoms: C_16  and  C_24
REMARK    7  A    between atoms: N_17  and  C_18
REMARK    8  A    between atoms: C_24  and  C_25
REMARK                            x       y       z     vdW  Elec       q    Type
REMARK                         _______ _______ _______ _____ _____    ______ ____
ROOT
ATOM      1  C   UNL     1      -3.211  -0.185   3.409  0.00  0.00    +0.197 A 
ATOM      2  N   UNL     1      -3.858   0.956   3.338  0.00  0.00    -0.122 NA
ATOM      3  N   UNL     1      -3.694   1.480   2.177  0.00  0.00    -0.133 NA
ATOM      4  C   UNL     1      -2.939   0.715   1.441  0.00  0.00    +0.143 A 
ATOM      5  N   UNL     1      -2.607  -0.378   2.197  0.00  0.00    -0.274 N 
ENDROOT
BRANCH   5   6
ATOM      6  C   UNL     1      -1.813  -1.467   1.810  0.00  0.00    +0.050 A 
ATOM      7  C   UNL     1      -2.244  -2.320   0.803  0.00  0.00    +0.026 A 
ATOM      8  C   UNL     1      -1.456  -3.388   0.420  0.00  0.00    +0.002 A 
ATOM      9  C   UNL     1      -0.245  -3.616   1.047  0.00  0.00    +0.000 A 
ATOM     10  C   UNL     1       0.184  -2.772   2.054  0.00  0.00    +0.002 A 
ATOM     11  C   UNL     1      -0.596  -1.698   2.438  0.00  0.00    +0.026 A 
ENDBRANCH   5   6
BRANCH   1  12
ATOM     12  S   UNL     1      -3.141  -1.265   4.800  0.00  0.00    -0.078 S 
BRANCH  12  13
ATOM     13  C   UNL     1      -4.168  -0.340   5.968  0.00  0.00    +0.153 C 
BRANCH  13  19
ATOM     14  C   UNL     1      -1.430  -0.334  10.147  0.00  0.00    +0.132 C 
ATOM     15  N   UNL     1      -2.501  -1.311  10.361  0.00  0.00    -0.306 N 
ATOM     16  C   UNL     1      -2.581  -2.044  11.627  0.00  0.00    +0.132 C 
ATOM     17  C   UNL     1      -3.433  -1.541   9.370  0.00  0.00    +0.222 A 
ATOM     18  N   UNL     1      -3.361  -0.876   8.219  0.00  0.00    -0.198 NA
ATOM     19  C   UNL     1      -4.253  -1.096   7.269  0.00  0.00    +0.146 A 
ATOM     20  N   UNL     1      -5.223  -1.973   7.460  0.00  0.00    -0.199 NA
ATOM     21  C   UNL     1      -5.299  -2.646   8.605  0.00  0.00    +0.217 A 
ATOM     22  N   UNL     1      -4.404  -2.427   9.563  0.00  0.00    -0.181 NA
ATOM     23  N   UNL     1      -6.309  -3.565   8.801  0.00  0.00    -0.327 N 
ATOM     24  H   UNL     1      -6.366  -4.053   9.638  0.00  0.00    +0.145 HD
ATOM     25  H   UNL     1      -6.962  -3.724   8.102  0.00  0.00    +0.145 HD
ENDBRANCH  13  19
ENDBRANCH  12  13
ENDBRANCH   1  12
BRANCH   4  26
ATOM     26  C   UNL     1      -2.514   0.980   0.019  0.00  0.00    +0.111 C 
BRANCH  26  27
ATOM     27  C   UNL     1      -1.219   1.751   0.017  0.00  0.00    -0.040 A 
ATOM     28  C   UNL     1      -0.013   1.076   0.008  0.00  0.00    +0.004 A 
ATOM     29  C   UNL     1       1.175   1.783   0.000  0.00  0.00    +0.000 A 
ATOM     30  C   UNL     1       1.156   3.165   0.008  0.00  0.00    +0.000 A 
ATOM     31  C   UNL     1      -0.050   3.840   0.022  0.00  0.00    +0.000 A 
ATOM     32  C   UNL     1      -1.238   3.133   0.030  0.00  0.00    +0.004 A 
ENDBRANCH  26  27
ENDBRANCH   4  26
TORSDOF 6
