REMARK  Name = ZINC63731200
REMARK  9 active torsions:
REMARK  status: ('A' for Active; 'I' for Inactive)
REMARK    1  A    between atoms: C_1  and  C_2
REMARK    2  A    between atoms: C_2  and  N_3
REMARK    3  A    between atoms: N_3  and  C_4
REMARK    4  A    between atoms: C_6  and  N_21
REMARK    5  A    between atoms: N_8  and  C_14
REMARK    6  A    between atoms: C_14  and  C_15
REMARK    7  A    between atoms: C_22  and  C_24
REMARK    8  A    between atoms: C_24  and  S_25
REMARK    9  A    between atoms: S_25  and  C_26
REMARK                            x       y       z     vdW  Elec       q    Type
REMARK                         _______ _______ _______ _____ _____    ______ ____
ROOT
ATOM      1  N   UNL     1       0.712  -0.503  -1.285  0.00  0.00    -0.286 N 
ATOM      2  C   UNL     1      -0.006  -0.862  -2.368  0.00  0.00    +0.226 C 
ATOM      3  O   UNL     1       0.528  -1.455  -3.281  0.00  0.00    -0.275 OA
ENDROOT
BRANCH   1   4
ATOM      4  C   UNL     1       2.162  -0.717  -1.264  0.00  0.00    +0.199 C 
ATOM      5  C   UNL     1       2.509  -1.782  -0.215  0.00  0.00    +0.173 C 
ATOM      6  N   UNL     1       2.061  -3.084  -0.738  0.00  0.00    -0.262 N 
ATOM      7  C   UNL     1       2.438  -3.429  -2.002  0.00  0.00    +0.330 C 
ATOM      8  O   UNL     1       2.530  -4.727  -2.343  0.00  0.00    -0.250 OA
ATOM      9  N   UNL     1       2.713  -2.494  -2.892  0.00  0.00    -0.126 NA
ATOM     10  C   UNL     1       2.621  -1.196  -2.618  0.00  0.00    +0.264 C 
ATOM     11  O   UNL     1       2.912  -0.381  -3.471  0.00  0.00    -0.271 OA
BRANCH   5  12
ATOM     12  N   UNL     1       3.961  -1.807   0.008  0.00  0.00    -0.311 NA
ATOM     13  H   UNL     1       4.210  -2.502   0.696  0.00  0.00    +0.120 HD
ATOM     14  H   UNL     1       4.457  -1.961  -0.857  0.00  0.00    +0.120 HD
ENDBRANCH   5  12
BRANCH   6  15
ATOM     15  C   UNL     1       1.235  -3.980   0.075  0.00  0.00    +0.146 C 
BRANCH  15  16
ATOM     16  C   UNL     1      -0.219  -3.770  -0.264  0.00  0.00    -0.030 A 
ATOM     17  C   UNL     1      -0.992  -2.920   0.504  0.00  0.00    +0.005 A 
ATOM     18  C   UNL     1      -2.325  -2.727   0.193  0.00  0.00    +0.000 A 
ATOM     19  C   UNL     1      -2.885  -3.384  -0.886  0.00  0.00    +0.000 A 
ATOM     20  C   UNL     1      -2.111  -4.233  -1.655  0.00  0.00    +0.000 A 
ATOM     21  C   UNL     1      -0.777  -4.423  -1.347  0.00  0.00    +0.005 A 
ENDBRANCH  15  16
ENDBRANCH   6  15
ENDBRANCH   1   4
BRANCH   1  23
ATOM     22  C   UNL     1       0.013   1.621  -0.296  0.00  0.00    +0.024 C 
ATOM     23  C   UNL     1       0.044   0.101  -0.130  0.00  0.00    +0.105 C 
ENDBRANCH   1  23
BRANCH   2  24
ATOM     24  C   UNL     1      -1.474  -0.528  -2.442  0.00  0.00    +0.168 C 
BRANCH  24  25
ATOM     25  S   UNL     1      -2.186  -1.262  -3.941  0.00  0.00    -0.106 S 
BRANCH  25  26
ATOM     26  C   UNL     1      -3.890  -0.641  -3.966  0.00  0.00    +0.236 C 
ATOM     27  N   UNL     1      -3.891   0.824  -4.069  0.00  0.00    -0.355 N 
ATOM     28  C   UNL     1      -4.487   1.288  -3.009  0.00  0.00    +0.061 A 
ATOM     29  C   UNL     1      -4.790   2.651  -2.550  0.00  0.00    +0.027 A 
ATOM     30  C   UNL     1      -5.434   2.831  -1.379  0.00  0.00    +0.002 A 
ATOM     31  C   UNL     1      -5.838   1.759  -0.564  0.00  0.00    +0.002 A 
ATOM     32  C   UNL     1      -5.610   0.471  -0.891  0.00  0.00    +0.027 A 
ATOM     33  C   UNL     1      -4.913   0.154  -2.145  0.00  0.00    +0.061 A 
ATOM     34  N   UNL     1      -4.565  -0.969  -2.704  0.00  0.00    -0.355 N 
ATOM     35  H   UNL     1      -3.517   1.349  -4.793  0.00  0.00    +0.162 HD
ATOM     36  H   UNL     1      -4.722  -1.859  -2.352  0.00  0.00    +0.162 HD
ENDBRANCH  25  26
ENDBRANCH  24  25
ENDBRANCH   2  24
TORSDOF 8
