REMARK  Name = ZINC00919322
REMARK  4 active torsions:
REMARK  status: ('A' for Active; 'I' for Inactive)
REMARK    1  A    between atoms: C_5  and  N_7
REMARK    2  A    between atoms: C_8  and  C_10
REMARK    3  A    between atoms: C_15  and  C_26
REMARK    4  A    between atoms: C_18  and  C_21
REMARK                            x       y       z     vdW  Elec       q    Type
REMARK                         _______ _______ _______ _____ _____    ______ ____
ROOT
ATOM      1  C   UNL     1       0.117  -4.246   0.190  0.00  0.00    +0.149 A 
ATOM      2  C   UNL     1      -1.008  -5.094   0.303  0.00  0.00    +0.078 A 
ATOM      3  C   UNL     1      -0.557  -6.362   0.372  0.00  0.00    +0.119 A 
ATOM      4  N   UNL     1       0.807  -6.333   0.304  0.00  0.00    -0.238 N 
ATOM      5  N   UNL     1       1.202  -5.001   0.186  0.00  0.00    -0.164 NA
ATOM      6  C   UNL     1       1.649  -7.532   0.344  0.00  0.00    +0.215 C 
ATOM      7  C   UNL     1       0.792  -8.752  -0.013  0.00  0.00    +0.066 C 
ATOM      8  C   UNL     1      -0.487  -8.756   0.831  0.00  0.00    +0.140 C 
ATOM      9  N   UNL     1      -1.276  -7.554   0.493  0.00  0.00    -0.319 N 
ATOM     10  H   UNL     1      -2.237  -7.591   0.364  0.00  0.00    +0.148 HD
ENDROOT
BRANCH   8  11
ATOM     11  C   UNL     1      -1.290  -9.995   0.527  0.00  0.00    +0.125 A 
ATOM     12  C   UNL     1      -1.328 -11.111   1.278  0.00  0.00    +0.046 A 
ATOM     13  C   UNL     1      -2.200 -12.013   0.626  0.00  0.00    +0.041 A 
ATOM     14  C   UNL     1      -2.643 -11.394  -0.483  0.00  0.00    +0.195 A 
ATOM     15  O   UNL     1      -2.092 -10.170  -0.535  0.00  0.00    -0.466 OA
ENDBRANCH   8  11
BRANCH   1  17
ATOM     16  N   UNL     1       1.236  -2.080  -0.021  0.00  0.00    -0.278 N 
ATOM     17  C   UNL     1       0.085  -2.773   0.088  0.00  0.00    +0.268 C 
ATOM     18  O   UNL     1      -0.979  -2.185   0.102  0.00  0.00    -0.268 OA
ATOM     19  H   UNL     1       2.079  -2.551  -0.113  0.00  0.00    +0.155 HD
BRANCH  16  24
ATOM     20  C   UNL     1       0.153   1.372   0.637  0.00  0.00    +0.002 A 
ATOM     21  C   UNL     1       1.173   2.087   0.036  0.00  0.00    +0.003 A 
ATOM     22  C   UNL     1       2.215   1.423  -0.585  0.00  0.00    +0.040 A 
ATOM     23  C   UNL     1       2.240   0.040  -0.606  0.00  0.00    +0.144 A 
ATOM     24  C   UNL     1       1.215  -0.681  -0.002  0.00  0.00    +0.069 A 
ATOM     25  C   UNL     1       0.172  -0.009   0.620  0.00  0.00    +0.026 A 
ATOM     26  F   UNL     1       3.257  -0.609  -1.213  0.00  0.00    -0.204 F 
ENDBRANCH  16  24
ENDBRANCH   1  17
BRANCH   6  27
ATOM     27  C   UNL     1       2.790  -7.391  -0.665  0.00  0.00    +0.412 C 
ATOM     28  F   UNL     1       3.562  -6.269  -0.343  0.00  0.00    -0.168 F 
ATOM     29  F   UNL     1       3.592  -8.536  -0.625  0.00  0.00    -0.168 F 
ATOM     30  F   UNL     1       2.260  -7.238  -1.950  0.00  0.00    -0.168 F 
ENDBRANCH   6  27
TORSDOF 4
