REMARK  Name = ZINC67217666
REMARK  5 active torsions:
REMARK  status: ('A' for Active; 'I' for Inactive)
REMARK    1  A    between atoms: C_4  and  N_8
REMARK    2  A    between atoms: C_9  and  C_11
REMARK    3  A    between atoms: C_11  and  S_12
REMARK    4  A    between atoms: S_12  and  C_13
REMARK    5  A    between atoms: N_22  and  C_23
REMARK                            x       y       z     vdW  Elec       q    Type
REMARK                         _______ _______ _______ _____ _____    ______ ____
ROOT
ATOM      1  C   UNL     1       6.278  -5.206   0.376  0.00  0.00    +0.177 A 
ATOM      2  N   UNL     1       7.308  -4.403   0.362  0.00  0.00    -0.222 NA
ATOM      3  C   UNL     1       8.590  -4.870   0.434  0.00  0.00    +0.086 A 
ATOM      4  C   UNL     1       9.785  -4.138   0.429  0.00  0.00    +0.036 A 
ATOM      5  C   UNL     1      10.973  -4.774   0.509  0.00  0.00    +0.048 A 
ATOM      6  S   UNL     1      10.494  -6.492   0.599  0.00  0.00    -0.090 S 
ATOM      7  C   UNL     1       8.736  -6.266   0.525  0.00  0.00    +0.102 A 
ATOM      8  C   UNL     1       7.634  -7.116   0.539  0.00  0.00    +0.274 A 
ATOM      9  O   UNL     1       7.776  -8.325   0.619  0.00  0.00    -0.266 OA
ATOM     10  N   UNL     1       6.398  -6.565   0.470  0.00  0.00    -0.255 N 
ENDROOT
BRANCH  10  11
ATOM     11  C   UNL     1       5.257  -7.378   0.487  0.00  0.00    +0.057 A 
ATOM     12  C   UNL     1       4.438  -7.449  -0.632  0.00  0.00    +0.064 A 
ATOM     13  C   UNL     1       3.311  -8.253  -0.613  0.00  0.00    +0.128 A 
ATOM     14  C   UNL     1       3.001  -8.985   0.521  0.00  0.00    +0.076 A 
ATOM     15  C   UNL     1       3.817  -8.915   1.637  0.00  0.00    +0.128 A 
ATOM     16  C   UNL     1       4.948  -8.118   1.620  0.00  0.00    +0.064 A 
ATOM     17  F   UNL     1       3.513  -9.631   2.742  0.00  0.00    -0.205 F 
ATOM     18  F   UNL     1       2.514  -8.322  -1.701  0.00  0.00    -0.205 F 
ENDBRANCH  10  11
BRANCH   1  19
ATOM     19  S   UNL     1       4.663  -4.507   0.279  0.00  0.00    -0.078 S 
BRANCH  19  20
ATOM     20  C   UNL     1       4.964  -2.722   0.171  0.00  0.00    +0.173 C 
BRANCH  20  22
ATOM     21  N   UNL     1       3.623  -0.651  -0.009  0.00  0.00    -0.282 N 
ATOM     22  C   UNL     1       3.646  -1.995   0.081  0.00  0.00    +0.228 C 
ATOM     23  O   UNL     1       2.607  -2.621   0.089  0.00  0.00    -0.275 OA
ATOM     24  H   UNL     1       4.453  -0.156  -0.097  0.00  0.00    +0.155 HD
BRANCH  21  28
ATOM     25  C   UNL     1      -0.016   1.384   0.092  0.00  0.00    +0.041 A 
ATOM     26  C   UNL     1       1.080   1.961  -0.524  0.00  0.00    +0.043 A 
ATOM     27  C   UNL     1       2.288   1.289  -0.559  0.00  0.00    +0.145 A 
ATOM     28  C   UNL     1       2.401   0.032   0.026  0.00  0.00    +0.072 A 
ATOM     29  C   UNL     1       1.300  -0.544   0.643  0.00  0.00    +0.064 A 
ATOM     30  C   UNL     1       0.093   0.133   0.675  0.00  0.00    +0.125 A 
ATOM     31  F   UNL     1      -0.979  -0.427   1.276  0.00  0.00    -0.205 F 
ATOM     32  F   UNL     1       3.358   1.853  -1.161  0.00  0.00    -0.204 F 
ENDBRANCH  21  28
ENDBRANCH  20  22
ENDBRANCH  19  20
ENDBRANCH   1  19
TORSDOF 5
