REMARK  Name = ZINC59888491
REMARK  8 active torsions:
REMARK  status: ('A' for Active; 'I' for Inactive)
REMARK    1  A    between atoms: C_1  and  N_2
REMARK    2  A    between atoms: N_2  and  C_3
REMARK    3  A    between atoms: N_2  and  C_25
REMARK    4  A    between atoms: C_3  and  C_4
REMARK    5  A    between atoms: C_9  and  C_10
REMARK    6  A    between atoms: C_10  and  N_11
REMARK    7  A    between atoms: C_12  and  C_14
REMARK    8  A    between atoms: C_17  and  N_20
REMARK                            x       y       z     vdW  Elec       q    Type
REMARK                         _______ _______ _______ _____ _____    ______ ____
ROOT
ATOM      1  C   UNL     1      -0.059  -0.109   2.429  0.00  0.00    -0.059 A 
ATOM      2  C   UNL     1       0.324   0.993   3.171  0.00  0.00    +0.002 A 
ATOM      3  C   UNL     1      -0.384   1.343   4.305  0.00  0.00    +0.000 A 
ATOM      4  C   UNL     1      -1.476   0.591   4.698  0.00  0.00    +0.000 A 
ATOM      5  C   UNL     1      -1.859  -0.510   3.956  0.00  0.00    +0.005 A 
ATOM      6  C   UNL     1      -1.154  -0.858   2.819  0.00  0.00    -0.029 A 
ENDROOT
BRANCH   1   7
ATOM      7  C   UNL     1       0.713  -0.491   1.192  0.00  0.00    -0.043 C 
BRANCH   7   9
ATOM      8  C   UNL     1      -0.018   1.465   0.010  0.00  0.00    -0.095 C 
ATOM      9  N   UNL     1       0.002  -0.004   0.002  0.00  0.00    +0.382 N 
ATOM     10  H   UNL     1      -0.945  -0.353   0.009  0.00  0.00    -0.081 HD
BRANCH   9  11
ATOM     11  C   UNL     1       0.690  -0.478  -1.207  0.00  0.00    -0.069 C 
ATOM     12  C   UNL     1      -0.050   0.029  -2.446  0.00  0.00    -0.015 C 
ATOM     13  C   UNL     1       0.666  -0.464  -3.705  0.00  0.00    -0.002 C 
ATOM     14  C   UNL     1       0.687  -1.994  -3.713  0.00  0.00    -0.000 C 
ATOM     15  C   UNL     1       1.427  -2.501  -2.474  0.00  0.00    -0.002 C 
ATOM     16  C   UNL     1       0.710  -2.008  -1.215  0.00  0.00    -0.015 C 
ENDBRANCH   9  11
ENDBRANCH   7   9
ENDBRANCH   1   7
BRANCH   6  17
ATOM     17  C   UNL     1      -1.575  -2.055   2.007  0.00  0.00    +0.140 C 
BRANCH  17  18
ATOM     18  N   UNL     1      -0.721  -3.197   2.342  0.00  0.00    -0.307 N 
ATOM     19  C   UNL     1      -0.915  -4.385   1.734  0.00  0.00    +0.244 C 
ATOM     20  O   UNL     1      -1.799  -4.508   0.909  0.00  0.00    -0.270 OA
ATOM     21  H   UNL     1      -0.016  -3.099   3.000  0.00  0.00    +0.149 HD
BRANCH  19  22
ATOM     22  C   UNL     1      -0.054  -5.536   2.072  0.00  0.00    +0.037 A 
ATOM     23  C   UNL     1       0.959  -5.398   3.024  0.00  0.00    +0.015 A 
ATOM     24  C   UNL     1       1.760  -6.474   3.336  0.00  0.00    +0.028 A 
ATOM     25  C   UNL     1       1.562  -7.697   2.705  0.00  0.00    +0.069 A 
ATOM     26  C   UNL     1       0.555  -7.838   1.756  0.00  0.00    +0.028 A 
ATOM     27  C   UNL     1      -0.254  -6.768   1.443  0.00  0.00    +0.015 A 
BRANCH  25  28
ATOM     28  N   UNL     1       2.378  -8.788   3.024  0.00  0.00    -0.200 N 
ATOM     29  C   UNL     1       2.324 -10.034   2.504  0.00  0.00    +0.250 A 
ATOM     30  N   UNL     1       3.264 -10.736   3.080  0.00  0.00    -0.116 NA
ATOM     31  N   UNL     1       3.909 -10.020   3.928  0.00  0.00    -0.023 NA
ATOM     32  N   UNL     1       3.435  -8.821   3.951  0.00  0.00    -0.039 NA
ENDBRANCH  25  28
ENDBRANCH  19  22
ENDBRANCH  17  18
ENDBRANCH   6  17
TORSDOF 7
