REMARK  Name = ZINC36305702
REMARK  18 active torsions:
REMARK  status: ('A' for Active; 'I' for Inactive)
REMARK    1  A    between atoms: C_1  and  C_2
REMARK    2  A    between atoms: C_2  and  C_3
REMARK    3  A    between atoms: C_2  and  C_4
REMARK    4  A    between atoms: C_4  and  N_5
REMARK    5  A    between atoms: N_5  and  C_6
REMARK    6  A    between atoms: N_5  and  C_28
REMARK    7  A    between atoms: C_6  and  C_7
REMARK    8  A    between atoms: C_8  and  C_22
REMARK    9  A    between atoms: N_10  and  C_21
REMARK   10  A    between atoms: C_11  and  O_12
REMARK   11  A    between atoms: O_12  and  C_13
REMARK   12  A    between atoms: C_18  and  O_19
REMARK   13  A    between atoms: O_19  and  C_20
REMARK   14  A    between atoms: C_28  and  C_29
REMARK   15  A    between atoms: C_29  and  C_31
REMARK   16  A    between atoms: C_29  and  O_35
REMARK   17  A    between atoms: C_31  and  C_32
REMARK   18  A    between atoms: C_32  and  C_33
REMARK                            x       y       z     vdW  Elec       q    Type
REMARK                         _______ _______ _______ _____ _____    ______ ____
ROOT
ATOM      1  C   UNL     1       0.818  -1.718   0.166  0.00  0.00    +0.025 A 
ATOM      2  C   UNL     1       1.798  -2.630  -0.270  0.00  0.00    +0.098 A 
ATOM      3  N   UNL     1       2.956  -2.005  -0.296  0.00  0.00    -0.168 NA
ATOM      4  N   UNL     1       2.751  -0.683   0.120  0.00  0.00    -0.235 N 
ATOM      5  C   UNL     1       1.430  -0.528   0.394  0.00  0.00    +0.221 A 
ATOM      6  C   UNL     1       3.781   0.352   0.236  0.00  0.00    +0.176 C 
ENDROOT
BRANCH   2   7
ATOM      7  C   UNL     1       1.566  -4.049  -0.637  0.00  0.00    +0.002 A 
ATOM      8  C   UNL     1       0.743  -4.850   0.153  0.00  0.00    +0.010 A 
ATOM      9  C   UNL     1       0.530  -6.169  -0.193  0.00  0.00    +0.001 A 
ATOM     10  C   UNL     1       1.132  -6.696  -1.321  0.00  0.00    +0.000 A 
ATOM     11  C   UNL     1       1.950  -5.906  -2.108  0.00  0.00    +0.001 A 
ATOM     12  C   UNL     1       2.165  -4.584  -1.775  0.00  0.00    +0.010 A 
ENDBRANCH   2   7
BRANCH   1  13
ATOM     13  C   UNL     1      -0.650  -2.010   0.343  0.00  0.00    -0.035 C 
BRANCH  13  14
ATOM     14  N   UNL     1      -1.413  -1.347  -0.724  0.00  0.00    +0.384 N 
ATOM     15  H   UNL     1      -2.398  -1.516  -0.588  0.00  0.00    -0.081 HD
BRANCH  14  16
ATOM     16  C   UNL     1      -0.999  -1.884  -2.027  0.00  0.00    -0.075 C 
BRANCH  16  18
ATOM     17  C   UNL     1      -1.632  -3.437  -3.879  0.00  0.00    +0.005 C 
ATOM     18  C   UNL     1      -1.974  -2.981  -2.459  0.00  0.00    -0.034 C 
ATOM     19  C   UNL     1      -1.862  -4.169  -1.501  0.00  0.00    +0.005 C 
ENDBRANCH  16  18
ENDBRANCH  14  16
BRANCH  14  20
ATOM     20  C   UNL     1      -1.154   0.098  -0.685  0.00  0.00    -0.047 C 
BRANCH  20  21
ATOM     21  C   UNL     1      -2.069   0.807  -1.685  0.00  0.00    +0.098 C 
BRANCH  21  22
ATOM     22  O   UNL     1      -3.430   0.656  -1.276  0.00  0.00    -0.394 OA
ATOM     23  H   UNL     1      -3.621   1.025  -0.403  0.00  0.00    +0.210 HD
ENDBRANCH  21  22
BRANCH  21  24
ATOM     24  C   UNL     1      -1.714   2.295  -1.736  0.00  0.00    +0.033 C 
BRANCH  24  25
ATOM     25  C   UNL     1      -2.543   2.980  -2.824  0.00  0.00    +0.029 C 
BRANCH  25  26
ATOM     26  C   UNL     1      -2.194   4.445  -2.874  0.00  0.00    -0.034 C 
ATOM     27  C   UNL     1      -1.802   4.987  -4.000  0.00  0.00    +0.004 C 
ENDBRANCH  25  26
ENDBRANCH  24  25
ENDBRANCH  21  24
ENDBRANCH  20  21
ENDBRANCH  14  20
ENDBRANCH  13  14
ENDBRANCH   1  13
BRANCH   5  28
ATOM     28  O   UNL     1       0.830   0.612   0.821  0.00  0.00    -0.434 OA
BRANCH  28  29
ATOM     29  C   UNL     1       0.836   0.875   2.155  0.00  0.00    +0.172 A 
ATOM     30  C   UNL     1       1.529   0.047   3.024  0.00  0.00    +0.050 A 
ATOM     31  C   UNL     1       1.535   0.316   4.379  0.00  0.00    +0.004 A 
ATOM     32  C   UNL     1       0.850   1.411   4.872  0.00  0.00    +0.004 A 
ATOM     33  C   UNL     1       0.156   2.242   4.012  0.00  0.00    +0.049 A 
ATOM     34  C   UNL     1       0.151   1.981   2.651  0.00  0.00    +0.162 A 
BRANCH  34  35
ATOM     35  O   UNL     1      -0.526   2.800   1.802  0.00  0.00    -0.491 OA
ATOM     36  C   UNL     1      -1.206   3.915   2.382  0.00  0.00    +0.277 C 
ENDBRANCH  34  35
ENDBRANCH  28  29
ENDBRANCH   5  28
TORSDOF 14
