REMARK  Name = ZINC59446488
REMARK  10 active torsions:
REMARK  status: ('A' for Active; 'I' for Inactive)
REMARK    1  A    between atoms: C_1  and  C_2
REMARK    2  A    between atoms: C_5  and  N_9
REMARK    3  A    between atoms: C_6  and  C_8
REMARK    4  A    between atoms: C_13  and  S_17
REMARK    5  A    between atoms: S_17  and  C_18
REMARK    6  A    between atoms: N_19  and  C_20
REMARK    7  A    between atoms: C_23  and  C_26
REMARK    8  A    between atoms: C_26  and  O_28
REMARK    9  A    between atoms: O_28  and  C_29
REMARK   10  A    between atoms: N_30  and  C_31
REMARK                            x       y       z     vdW  Elec       q    Type
REMARK                         _______ _______ _______ _____ _____    ______ ____
ROOT
ATOM      1  S   UNL     1       1.640  -7.093  -1.750  0.00  0.00    -0.077 S 
ENDROOT
BRANCH   1   6
ATOM      2  N   UNL     1      -0.132  -4.987   0.636  0.00  0.00    -0.209 N 
ATOM      3  C   UNL     1      -1.188  -5.710   0.242  0.00  0.00    +0.228 C 
ATOM      4  O   UNL     1      -2.345  -5.354   0.302  0.00  0.00    -0.275 OA
ATOM      5  C   UNL     1      -0.707  -7.042  -0.291  0.00  0.00    +0.120 C 
ATOM      6  C   UNL     1       0.825  -6.963  -0.134  0.00  0.00    +0.149 C 
ATOM      7  C   UNL     1       1.050  -5.592   0.466  0.00  0.00    +0.240 C 
ATOM      8  O   UNL     1       2.129  -5.117   0.749  0.00  0.00    -0.274 OA
BRANCH   2  13
ATOM      9  C   UNL     1      -0.629   0.224   2.830  0.00  0.00    +0.044 C 
ATOM     10  C   UNL     1      -0.497  -1.159   2.248  0.00  0.00    -0.050 A 
ATOM     11  C   UNL     1      -0.354  -1.322   0.882  0.00  0.00    +0.005 A 
ATOM     12  C   UNL     1      -0.233  -2.589   0.345  0.00  0.00    +0.024 A 
ATOM     13  C   UNL     1      -0.255  -3.700   1.178  0.00  0.00    +0.047 A 
ATOM     14  C   UNL     1      -0.398  -3.533   2.549  0.00  0.00    -0.028 A 
ATOM     15  C   UNL     1      -0.514  -2.263   3.080  0.00  0.00    +0.008 A 
ATOM     16  C   UNL     1      -0.422  -4.736   3.457  0.00  0.00    +0.046 C 
ENDBRANCH   2  13
ENDBRANCH   1   6
BRANCH   1  17
ATOM     17  C   UNL     1       3.357  -7.132  -1.359  0.00  0.00    +0.155 C 
ATOM     18  N   UNL     1       3.749  -7.068  -0.103  0.00  0.00    -0.226 NA
ATOM     19  N   UNL     1       4.287  -7.228  -2.363  0.00  0.00    -0.327 N 
ATOM     20  C   UNL     1       3.852  -7.425  -3.748  0.00  0.00    +0.127 C 
ATOM     21  H   UNL     1       5.232  -7.165  -2.156  0.00  0.00    +0.148 HD
BRANCH  18  22
ATOM     22  C   UNL     1       5.073  -7.171   0.204  0.00  0.00    +0.067 A 
ATOM     23  C   UNL     1       5.816  -8.263  -0.260  0.00  0.00    +0.028 A 
ATOM     24  C   UNL     1       7.141  -8.366   0.048  0.00  0.00    +0.017 A 
ATOM     25  C   UNL     1       7.758  -7.380   0.827  0.00  0.00    +0.059 A 
ATOM     26  C   UNL     1       7.014  -6.288   1.292  0.00  0.00    +0.017 A 
ATOM     27  C   UNL     1       5.691  -6.182   0.979  0.00  0.00    +0.028 A 
BRANCH  25  28
ATOM     28  C   UNL     1       9.187  -7.491   1.159  0.00  0.00    +0.339 C 
ATOM     29  O   UNL     1       9.833  -8.439   0.756  0.00  0.00    -0.245 OA
BRANCH  28  30
ATOM     30  O   UNL     1       9.781  -6.542   1.910  0.00  0.00    -0.464 OA
ATOM     31  C   UNL     1      11.171  -6.714   2.193  0.00  0.00    +0.280 C 
ENDBRANCH  28  30
ENDBRANCH  25  28
ENDBRANCH  18  22
ENDBRANCH   1  17
TORSDOF 6
