REMARK  Name = ZINC39631179
REMARK  7 active torsions:
REMARK  status: ('A' for Active; 'I' for Inactive)
REMARK    1  A    between atoms: C_1  and  C_2
REMARK    2  A    between atoms: C_2  and  C_4
REMARK    3  A    between atoms: C_2  and  O_16
REMARK    4  A    between atoms: N_6  and  C_7
REMARK    5  A    between atoms: O_16  and  C_17
REMARK    6  A    between atoms: C_17  and  C_19
REMARK    7  A    between atoms: C_24  and  N_25
REMARK                            x       y       z     vdW  Elec       q    Type
REMARK                         _______ _______ _______ _____ _____    ______ ____
ROOT
ATOM      1  C   UNL     1       0.258   1.814  -0.027  0.00  0.00    +0.062 C 
ATOM      2  C   UNL     1       0.196   0.286   0.038  0.00  0.00    +0.259 C 
ENDROOT
BRANCH   2   3
ATOM      3  C   UNL     1       0.884  -0.192   1.290  0.00  0.00    +0.258 C 
ATOM      4  O   UNL     1       1.894  -0.858   1.210  0.00  0.00    -0.271 OA
ATOM      5  N   UNL     1       0.377   0.121   2.499  0.00  0.00    -0.281 N 
ATOM      6  H   UNL     1      -0.395   0.704   2.566  0.00  0.00    +0.155 HD
BRANCH   5   7
ATOM      7  C   UNL     1       0.966  -0.395   3.660  0.00  0.00    +0.053 A 
ATOM      8  C   UNL     1       2.340  -0.587   3.717  0.00  0.00    +0.046 A 
ATOM      9  C   UNL     1       2.918  -1.096   4.864  0.00  0.00    +0.061 A 
ATOM     10  C   UNL     1       2.129  -1.417   5.956  0.00  0.00    +0.061 A 
ATOM     11  C   UNL     1       0.759  -1.227   5.902  0.00  0.00    +0.043 A 
ATOM     12  C   UNL     1       0.177  -0.712   4.759  0.00  0.00    +0.064 A 
ATOM     13 CL   UNL     1      -1.541  -0.467   4.694  0.00  0.00    -0.082 Cl
ATOM     14 CL   UNL     1       2.858  -2.058   7.395  0.00  0.00    -0.082 Cl
ATOM     15 CL   UNL     1       4.636  -1.336   4.936  0.00  0.00    -0.082 Cl
ENDBRANCH   5   7
ENDBRANCH   2   3
BRANCH   2  16
ATOM     16  O   UNL     1       0.850  -0.266  -1.106  0.00  0.00    -0.449 OA
BRANCH  16  17
ATOM     17  C   UNL     1       0.092  -0.485  -2.198  0.00  0.00    +0.342 C 
ATOM     18  O   UNL     1      -1.092  -0.215  -2.179  0.00  0.00    -0.245 OA
BRANCH  17  19
ATOM     19  C   UNL     1       0.700  -1.054  -3.417  0.00  0.00    +0.089 A 
ATOM     20  C   UNL     1       1.806  -0.434  -4.004  0.00  0.00    +0.019 A 
ATOM     21  C   UNL     1       2.369  -0.970  -5.142  0.00  0.00    +0.021 A 
ATOM     22  C   UNL     1       1.841  -2.121  -5.704  0.00  0.00    +0.043 A 
ATOM     23  C   UNL     1       0.746  -2.741  -5.127  0.00  0.00    +0.053 A 
ATOM     24  C   UNL     1       0.177  -2.218  -3.984  0.00  0.00    +0.141 A 
ATOM     25 CL   UNL     1       2.556  -2.789  -7.138  0.00  0.00    -0.083 Cl
BRANCH  24  26
ATOM     26  N   UNL     1      -0.991  -2.885  -3.365  0.00  0.00    +0.057 N 
ATOM     27  O   UNL     1      -1.517  -3.821  -3.921  0.00  0.00    -0.126 OA
ATOM     28  O   UNL     1      -1.417  -2.494  -2.304  0.00  0.00    -0.126 OA
ENDBRANCH  24  26
ENDBRANCH  17  19
ENDBRANCH  16  17
ENDBRANCH   2  16
TORSDOF 6
