REMARK  Name = ZINC23721830
REMARK  12 active torsions:
REMARK  status: ('A' for Active; 'I' for Inactive)
REMARK    1  A    between atoms: C_1  and  C_2
REMARK    2  A    between atoms: C_3  and  C_33
REMARK    3  A    between atoms: C_4  and  C_32
REMARK    4  A    between atoms: C_5  and  S_10
REMARK    5  A    between atoms: C_6  and  C_9
REMARK    6  A    between atoms: C_7  and  C_8
REMARK    7  A    between atoms: S_10  and  N_13
REMARK    8  A    between atoms: C_19  and  C_21
REMARK    9  A    between atoms: C_22  and  C_31
REMARK   10  A    between atoms: C_23  and  C_28
REMARK   11  A    between atoms: C_24  and  C_27
REMARK   12  A    between atoms: C_28  and  C_30
REMARK                            x       y       z     vdW  Elec       q    Type
REMARK                         _______ _______ _______ _____ _____    ______ ____
ROOT
ATOM      1  N   UNL     1      -1.347  -2.701   2.732  0.00  0.00    -0.174 NA
ATOM      2  C   UNL     1      -0.453  -2.598   3.894  0.00  0.00    +0.128 C 
ATOM      3  C   UNL     1      -0.216  -1.108   4.193  0.00  0.00    +0.125 C 
ATOM      4  N   UNL     1      -1.517  -0.426   4.239  0.00  0.00    -0.294 N 
ATOM      5  C   UNL     1      -2.414  -0.534   3.079  0.00  0.00    +0.125 C 
ATOM      6  C   UNL     1      -2.649  -2.020   2.778  0.00  0.00    +0.128 C 
ATOM      7  C   UNL     1      -1.881   0.285   5.324  0.00  0.00    +0.263 C 
ATOM      8  O   UNL     1      -3.000   0.758   5.394  0.00  0.00    -0.268 OA
ENDROOT
BRANCH   7   9
ATOM      9  C   UNL     1      -0.928   0.488   6.422  0.00  0.00    +0.106 A 
ATOM     10  C   UNL     1      -1.215   0.407   7.752  0.00  0.00    -0.010 A 
ATOM     11  C   UNL     1      -0.012   0.670   8.451  0.00  0.00    +0.041 A 
ATOM     12  C   UNL     1       0.965   0.911   7.498  0.00  0.00    +0.024 A 
ATOM     13  N   UNL     1       0.407   0.800   6.283  0.00  0.00    -0.354 N 
ATOM     14  H   UNL     1       0.844   0.917   5.280  0.00  0.00    +0.166 HD
ATOM     15  C   UNL     1       2.408   1.242   7.779  0.00  0.00    +0.064 C 
ATOM     16  C   UNL     1      -2.557   0.093   8.362  0.00  0.00    +0.047 C 
BRANCH  11  17
ATOM     17  C   UNL     1       0.165   0.688   9.906  0.00  0.00    +0.162 C 
ATOM     18  O   UNL     1      -0.084   1.696  10.534  0.00  0.00    -0.292 OA
ATOM     19  C   UNL     1       0.655  -0.544  10.621  0.00  0.00    +0.091 C 
ENDBRANCH  11  17
ENDBRANCH   7   9
BRANCH   1  20
ATOM     20  S   UNL     1      -0.900  -3.575   1.399  0.00  0.00    +0.061 S 
ATOM     21  O   UNL     1      -2.100  -3.950   0.737  0.00  0.00    -0.153 OA
ATOM     22  O   UNL     1       0.056  -4.529   1.841  0.00  0.00    -0.153 OA
BRANCH  20  27
ATOM     23  C   UNL     1       2.008   0.193  -2.310  0.00  0.00    +0.044 C 
ATOM     24  C   UNL     1       1.282  -0.748  -1.383  0.00  0.00    -0.044 A 
ATOM     25  C   UNL     1      -0.100  -0.742  -1.336  0.00  0.00    -0.043 A 
ATOM     26  C   UNL     1      -0.766  -1.605  -0.486  0.00  0.00    -0.021 A 
ATOM     27  C   UNL     1      -0.051  -2.475   0.316  0.00  0.00    +0.112 A 
ATOM     28  C   UNL     1       1.331  -2.477   0.272  0.00  0.00    -0.021 A 
ATOM     29  C   UNL     1       1.997  -1.617  -0.581  0.00  0.00    -0.043 A 
ATOM     30  C   UNL     1       3.503  -1.624  -0.633  0.00  0.00    +0.044 C 
ATOM     31  C   UNL     1       2.111  -3.421   1.151  0.00  0.00    +0.046 C 
ATOM     32  C   UNL     1      -2.272  -1.599  -0.434  0.00  0.00    +0.046 C 
ATOM     33  C   UNL     1      -0.880   0.205  -2.211  0.00  0.00    +0.044 C 
ENDBRANCH  20  27
ENDBRANCH   1  20
TORSDOF 4
