REMARK  Name = ZINC66732917
REMARK  4 active torsions:
REMARK  status: ('A' for Active; 'I' for Inactive)
REMARK    1  A    between atoms: C_1  and  C_2
REMARK    2  A    between atoms: C_4  and  C_23
REMARK    3  A    between atoms: C_12  and  C_14
REMARK    4  A    between atoms: C_18  and  C_20
REMARK                            x       y       z     vdW  Elec       q    Type
REMARK                         _______ _______ _______ _____ _____    ______ ____
ROOT
ATOM      1  C   UNL     1      -0.941   0.795  -0.408  0.00  0.00    +0.044 C 
ATOM      2  C   UNL     1      -0.059  -0.409  -0.205  0.00  0.00    -0.048 A 
ATOM      3  C   UNL     1       0.703  -0.894  -1.253  0.00  0.00    +0.007 A 
ATOM      4  C   UNL     1       1.511  -1.999  -1.070  0.00  0.00    -0.045 A 
ATOM      5  C   UNL     1       1.565  -2.629   0.162  0.00  0.00    -0.023 A 
ATOM      6  C   UNL     1       0.805  -2.141   1.213  0.00  0.00    +0.040 A 
ATOM      7  C   UNL     1      -0.005  -1.027   1.028  0.00  0.00    +0.027 A 
ATOM      8  N   UNL     1       0.847  -2.752   2.474  0.00  0.00    -0.267 N 
ATOM      9  C   UNL     1       1.461  -4.081   2.598  0.00  0.00    +0.114 C 
ATOM     10  C   UNL     1       2.773  -4.068   1.802  0.00  0.00    +0.024 C 
ATOM     11  C   UNL     1       2.453  -3.835   0.326  0.00  0.00    +0.039 C 
ATOM     12  C   UNL     1       0.333  -2.131   3.553  0.00  0.00    +0.251 C 
ATOM     13  O   UNL     1      -0.060  -0.984   3.465  0.00  0.00    -0.270 OA
ATOM     14  C   UNL     1       2.336  -2.523  -2.217  0.00  0.00    +0.044 C 
ENDROOT
BRANCH  12  15
ATOM     15  C   UNL     1       0.246  -2.845   4.845  0.00  0.00    +0.038 A 
ATOM     16  C   UNL     1      -0.011  -4.218   4.870  0.00  0.00    +0.013 A 
ATOM     17  C   UNL     1      -0.093  -4.886   6.075  0.00  0.00    +0.001 A 
ATOM     18  C   UNL     1       0.079  -4.204   7.263  0.00  0.00    +0.013 A 
ATOM     19  C   UNL     1       0.336  -2.831   7.253  0.00  0.00    +0.037 A 
ATOM     20  C   UNL     1       0.425  -2.152   6.040  0.00  0.00    +0.026 A 
BRANCH  19  21
ATOM     21  C   UNL     1       0.520  -2.102   8.526  0.00  0.00    +0.242 C 
ATOM     22  O   UNL     1       0.744  -0.907   8.515  0.00  0.00    -0.270 OA
ATOM     23  N   UNL     1       0.438  -2.761   9.698  0.00  0.00    -0.325 N 
ATOM     24  H   UNL     1       0.260  -3.715   9.707  0.00  0.00    +0.145 HD
ATOM     25  H   UNL     1       0.559  -2.283  10.533  0.00  0.00    +0.145 HD
ENDBRANCH  19  21
ENDBRANCH  12  15
TORSDOF 2
