REMARK  Name = ZINC13141653
REMARK  8 active torsions:
REMARK  status: ('A' for Active; 'I' for Inactive)
REMARK    1  A    between atoms: C_1  and  C_2
REMARK    2  A    between atoms: C_2  and  C_4
REMARK    3  A    between atoms: C_9  and  N_10
REMARK    4  A    between atoms: C_11  and  C_13
REMARK    5  A    between atoms: C_13  and  O_14
REMARK    6  A    between atoms: O_14  and  C_15
REMARK    7  A    between atoms: C_15  and  C_17
REMARK    8  A    between atoms: C_30  and  C_31
REMARK                            x       y       z     vdW  Elec       q    Type
REMARK                         _______ _______ _______ _____ _____    ______ ____
ROOT
ATOM      1  C   UNL     1       0.979  -8.768   1.447  0.00  0.00    +0.073 A 
ATOM      2  C   UNL     1       2.337  -9.313   1.429  0.00  0.00    +0.015 A 
ATOM      3  C   UNL     1       3.454  -8.507   1.667  0.00  0.00    +0.011 A 
ATOM      4  C   UNL     1       4.702  -9.059   1.641  0.00  0.00    +0.001 A 
ATOM      5  C   UNL     1       4.875 -10.416   1.380  0.00  0.00    +0.002 A 
ATOM      6  C   UNL     1       3.809 -11.229   1.145  0.00  0.00    +0.028 A 
ATOM      7  C   UNL     1       2.506 -10.695   1.163  0.00  0.00    +0.072 A 
ATOM      8  N   UNL     1       1.445 -11.466   0.938  0.00  0.00    -0.247 NA
ATOM      9  C   UNL     1       0.199 -11.001   0.947  0.00  0.00    +0.072 A 
ATOM     10  C   UNL     1      -0.068  -9.645   1.206  0.00  0.00    -0.007 A 
ATOM     11  C   UNL     1      -1.556  -9.400   1.161  0.00  0.00    +0.043 C 
ATOM     12  C   UNL     1      -2.204 -10.755   0.849  0.00  0.00    +0.042 C 
ATOM     13  C   UNL     1      -1.061 -11.729   0.716  0.00  0.00    -0.018 C 
ATOM     14  C   UNL     1      -1.173 -13.047   0.443  0.00  0.00    +0.052 C 
ENDROOT
BRANCH  14  15
ATOM     15  C   UNL     1      -2.493 -13.641   0.234  0.00  0.00    +0.128 A 
ATOM     16  C   UNL     1      -2.748 -14.956  -0.042  0.00  0.00    +0.049 A 
ATOM     17  C   UNL     1      -4.143 -15.079  -0.164  0.00  0.00    +0.042 A 
ATOM     18  C   UNL     1      -4.670 -13.854   0.040  0.00  0.00    +0.195 A 
ATOM     19  O   UNL     1      -3.672 -12.989   0.286  0.00  0.00    -0.464 OA
ENDBRANCH  14  15
BRANCH   1  20
ATOM     20  C   UNL     1       0.733  -7.336   1.718  0.00  0.00    +0.341 C 
ATOM     21  O   UNL     1       0.566  -6.954   2.859  0.00  0.00    -0.245 OA
BRANCH  20  22
ATOM     22  O   UNL     1       0.692  -6.455   0.700  0.00  0.00    -0.452 OA
BRANCH  22  23
ATOM     23  C   UNL     1       0.449  -5.087   1.035  0.00  0.00    +0.328 C 
BRANCH  23  25
ATOM     24  N   UNL     1       0.226  -2.927  -0.150  0.00  0.00    -0.282 N 
ATOM     25  C   UNL     1       0.438  -4.256  -0.223  0.00  0.00    +0.255 C 
ATOM     26  O   UNL     1       0.621  -4.784  -1.299  0.00  0.00    -0.272 OA
ATOM     27  H   UNL     1       0.156  -2.494   0.714  0.00  0.00    +0.155 HD
BRANCH  24  33
ATOM     28  C   UNL     1       0.596  -0.861  -1.363  0.00  0.00    +0.038 A 
ATOM     29  C   UNL     1       0.473  -0.120  -2.545  0.00  0.00    +0.013 A 
ATOM     30  C   UNL     1      -0.129  -0.683  -3.648  0.00  0.00    +0.001 A 
ATOM     31  C   UNL     1      -0.615  -1.980  -3.596  0.00  0.00    +0.002 A 
ATOM     32  C   UNL     1      -0.502  -2.724  -2.438  0.00  0.00    +0.024 A 
ATOM     33  C   UNL     1       0.106  -2.178  -1.317  0.00  0.00    +0.044 A 
BRANCH  28  35
ATOM     34  C   UNL     1       1.858   1.102  -0.271  0.00  0.00    +0.091 C 
ATOM     35  C   UNL     1       1.236  -0.268  -0.183  0.00  0.00    +0.162 C 
ATOM     36  O   UNL     1       1.266  -0.881   0.863  0.00  0.00    -0.292 OA
ENDBRANCH  28  35
ENDBRANCH  24  33
ENDBRANCH  23  25
ENDBRANCH  22  23
ENDBRANCH  20  22
ENDBRANCH   1  20
TORSDOF 7
