REMARK  Name = ZINC39912092
REMARK  9 active torsions:
REMARK  status: ('A' for Active; 'I' for Inactive)
REMARK    1  A    between atoms: C_1  and  C_2
REMARK    2  A    between atoms: C_2  and  C_3
REMARK    3  A    between atoms: C_6  and  C_9
REMARK    4  A    between atoms: C_12  and  C_23
REMARK    5  A    between atoms: N_19  and  C_20
REMARK    6  A    between atoms: C_20  and  C_21
REMARK    7  A    between atoms: C_25  and  C_31
REMARK    8  A    between atoms: C_27  and  C_30
REMARK    9  A    between atoms: C_28  and  O_29
REMARK                            x       y       z     vdW  Elec       q    Type
REMARK                         _______ _______ _______ _____ _____    ______ ____
ROOT
ATOM      1  C   UNL     1      -5.380  -1.999   0.017  0.00  0.00    +0.142 C 
ATOM      2  C   UNL     1      -5.420  -3.455  -0.358  0.00  0.00    +0.035 A 
ATOM      3  C   UNL     1      -5.019  -4.761  -0.059  0.00  0.00    +0.102 A 
ATOM      4  N   UNL     1      -5.534  -5.553  -0.980  0.00  0.00    -0.173 NA
ATOM      5  N   UNL     1      -6.221  -4.876  -1.830  0.00  0.00    -0.272 N 
ATOM      6  H   UNL     1      -6.690  -5.250  -2.591  0.00  0.00    +0.189 HD
ATOM      7  C   UNL     1      -6.192  -3.550  -1.500  0.00  0.00    +0.126 A 
ATOM      8  C   UNL     1      -6.648  -2.205  -1.869  0.00  0.00    +0.266 C 
ATOM      9  O   UNL     1      -7.348  -1.949  -2.830  0.00  0.00    -0.268 OA
ATOM     10  N   UNL     1      -6.182  -1.295  -0.993  0.00  0.00    -0.281 N 
ENDROOT
BRANCH   3  11
ATOM     11  C   UNL     1      -4.169  -5.179   1.083  0.00  0.00    +0.044 A 
ATOM     12  C   UNL     1      -3.799  -4.253   2.055  0.00  0.00    +0.017 A 
ATOM     13  C   UNL     1      -3.008  -4.646   3.116  0.00  0.00    -0.049 A 
ATOM     14  C   UNL     1      -2.581  -5.959   3.217  0.00  0.00    +0.010 A 
ATOM     15  C   UNL     1      -2.942  -6.885   2.258  0.00  0.00    -0.008 A 
ATOM     16  C   UNL     1      -3.740  -6.505   1.191  0.00  0.00    +0.129 A 
ATOM     17  C   UNL     1      -2.472  -8.312   2.375  0.00  0.00    +0.047 C 
ATOM     18  C   UNL     1      -2.609  -3.643   4.167  0.00  0.00    +0.044 C 
BRANCH  16  19
ATOM     19  O   UNL     1      -4.101  -7.417   0.250  0.00  0.00    -0.506 OA
ATOM     20  H   UNL     1      -3.482  -7.485  -0.489  0.00  0.00    +0.292 HD
ENDBRANCH  16  19
ENDBRANCH   3  11
BRANCH   1  24
ATOM     21  C   UNL     1      -1.355  -0.571  -0.050  0.00  0.00    -0.048 A 
ATOM     22  C   UNL     1      -1.974  -0.947  -1.227  0.00  0.00    +0.004 A 
ATOM     23  C   UNL     1      -3.277  -1.409  -1.206  0.00  0.00    +0.006 A 
ATOM     24  C   UNL     1      -3.960  -1.496  -0.007  0.00  0.00    -0.022 A 
ATOM     25  C   UNL     1      -3.340  -1.121   1.171  0.00  0.00    +0.006 A 
ATOM     26  C   UNL     1      -2.036  -0.664   1.150  0.00  0.00    +0.004 A 
BRANCH  21  28
ATOM     27  C   UNL     1       1.027  -1.246   0.089  0.00  0.00    +0.009 C 
ATOM     28  C   UNL     1       0.066  -0.068  -0.073  0.00  0.00    +0.032 C 
ENDBRANCH  21  28
ENDBRANCH   1  24
BRANCH  10  29
ATOM     29  C   UNL     1      -6.431   0.148  -1.038  0.00  0.00    +0.135 C 
BRANCH  29  30
ATOM     30  C   UNL     1      -5.355   0.818  -1.854  0.00  0.00    -0.016 C 
ATOM     31  C   UNL     1      -5.681   1.574  -2.873  0.00  0.00    +0.005 C 
ENDBRANCH  29  30
ENDBRANCH  10  29
TORSDOF 6
