REMARK  Name = ZINC63503120
REMARK  8 active torsions:
REMARK  status: ('A' for Active; 'I' for Inactive)
REMARK    1  A    between atoms: C_1  and  C_2
REMARK    2  A    between atoms: C_7  and  N_8
REMARK    3  A    between atoms: C_9  and  C_11
REMARK    4  A    between atoms: C_11  and  C_13
REMARK    5  A    between atoms: C_11  and  N_23
REMARK    6  A    between atoms: C_13  and  C_14
REMARK    7  A    between atoms: C_24  and  O_26
REMARK    8  A    between atoms: O_26  and  C_27
REMARK                            x       y       z     vdW  Elec       q    Type
REMARK                         _______ _______ _______ _____ _____    ______ ____
ROOT
ATOM      1  C   UNL     1      -0.179   0.086   4.909  0.00  0.00    +0.166 C 
ENDROOT
BRANCH   1   3
ATOM      2  N   UNL     1      -0.012   0.060   2.441  0.00  0.00    -0.284 N 
ATOM      3  C   UNL     1      -0.086  -0.639   3.591  0.00  0.00    +0.238 C 
ATOM      4  O   UNL     1      -0.077  -1.852   3.565  0.00  0.00    -0.273 OA
ATOM      5  H   UNL     1       0.040   1.028   2.464  0.00  0.00    +0.155 HD
BRANCH   2  12
ATOM      6  C   UNL     1      -1.308   1.299   0.231  0.00  0.00    +0.045 C 
ATOM      7  C   UNL     1      -0.632  -0.043   0.109  0.00  0.00    -0.029 A 
ATOM      8  C   UNL     1      -0.625  -0.705  -1.103  0.00  0.00    +0.005 A 
ATOM      9  C   UNL     1      -0.006  -1.936  -1.216  0.00  0.00    +0.000 A 
ATOM     10  C   UNL     1       0.609  -2.508  -0.117  0.00  0.00    +0.002 A 
ATOM     11  C   UNL     1       0.605  -1.850   1.098  0.00  0.00    +0.023 A 
ATOM     12  C   UNL     1      -0.012  -0.612   1.213  0.00  0.00    +0.036 A 
ENDBRANCH   2  12
ENDBRANCH   1   3
BRANCH   1  13
ATOM     13  N   UNL     1      -0.247  -0.890   5.999  0.00  0.00    -0.269 N 
ATOM     14  C   UNL     1      -1.433  -1.421   6.355  0.00  0.00    +0.406 C 
ATOM     15  O   UNL     1      -2.447  -1.091   5.771  0.00  0.00    -0.226 OA
ATOM     16  H   UNL     1       0.562  -1.153   6.465  0.00  0.00    +0.153 HD
BRANCH  14  17
ATOM     17  O   UNL     1      -1.496  -2.318   7.358  0.00  0.00    -0.412 OA
BRANCH  17  18
ATOM     18  C   UNL     1      -2.694  -2.909   7.612  0.00  0.00    +0.133 A 
ATOM     19  C   UNL     1      -3.353  -2.656   8.806  0.00  0.00    +0.046 A 
ATOM     20  C   UNL     1      -4.570  -3.257   9.063  0.00  0.00    +0.004 A 
ATOM     21  C   UNL     1      -5.131  -4.110   8.130  0.00  0.00    +0.000 A 
ATOM     22  C   UNL     1      -4.476  -4.364   6.940  0.00  0.00    +0.004 A 
ATOM     23  C   UNL     1      -3.261  -3.760   6.676  0.00  0.00    +0.046 A 
ENDBRANCH  17  18
ENDBRANCH  14  17
ENDBRANCH   1  13
BRANCH   1  24
ATOM     24  C   UNL     1       1.056   0.971   5.092  0.00  0.00    +0.065 C 
BRANCH  24  25
ATOM     25  C   UNL     1       0.905   1.788   6.350  0.00  0.00    -0.039 C 
ATOM     26  C   UNL     1       1.390   1.489   7.577  0.00  0.00    -0.001 A 
ATOM     27  C   UNL     1       2.170   0.356   8.088  0.00  0.00    +0.010 A 
ATOM     28  C   UNL     1       2.515   0.335   9.396  0.00  0.00    +0.001 A 
ATOM     29  C   UNL     1       2.146   1.364  10.273  0.00  0.00    +0.002 A 
ATOM     30  C   UNL     1       1.429   2.437   9.877  0.00  0.00    +0.026 A 
ATOM     31  C   UNL     1       1.013   2.564   8.523  0.00  0.00    +0.043 A 
ATOM     32  N   UNL     1       0.322   3.491   7.904  0.00  0.00    -0.380 N 
ATOM     33  C   UNL     1       0.188   3.112   6.493  0.00  0.00    +0.144 C 
ATOM     34  H   UNL     1      -0.036   4.295   8.311  0.00  0.00    +0.160 HD
ENDBRANCH  24  25
ENDBRANCH   1  24
TORSDOF 7
