REMARK  Name = ZINC09135450
REMARK  11 active torsions:
REMARK  status: ('A' for Active; 'I' for Inactive)
REMARK    1  A    between atoms: C_1  and  C_2
REMARK    2  A    between atoms: C_5  and  N_9
REMARK    3  A    between atoms: C_6  and  C_8
REMARK    4  A    between atoms: C_10  and  C_12
REMARK    5  A    between atoms: N_14  and  C_15
REMARK    6  A    between atoms: C_15  and  C_16
REMARK    7  A    between atoms: C_16  and  C_18
REMARK    8  A    between atoms: C_16  and  N_62
REMARK    9  A    between atoms: N_27  and  C_28
REMARK   10  A    between atoms: C_29  and  N_62
REMARK   11  A    between atoms: C_30  and  N_62
REMARK                            x       y       z     vdW  Elec       q    Type
REMARK                         _______ _______ _______ _____ _____    ______ ____
ROOT
ATOM      1  C   UNL     1       4.155  -3.136   3.452  0.00  0.00    +0.094 C 
ENDROOT
BRANCH   1   4
ATOM      2  C   UNL     1       5.954  -4.756   3.728  0.00  0.00    +0.299 C 
ATOM      3  O   UNL     1       6.192  -4.650   2.542  0.00  0.00    -0.265 OA
ATOM      4  N   UNL     1       4.955  -4.041   4.281  0.00  0.00    -0.309 N 
ATOM      5  H   UNL     1       4.765  -4.125   5.229  0.00  0.00    +0.149 HD
BRANCH   2   7
ATOM      6  N   UNL     1       7.769  -6.393   4.019  0.00  0.00    -0.278 N 
ATOM      7  C   UNL     1       6.770  -5.678   4.573  0.00  0.00    +0.303 C 
ATOM      8  O   UNL     1       6.532  -5.784   5.759  0.00  0.00    -0.265 OA
ATOM      9  H   UNL     1       8.003  -6.259   3.088  0.00  0.00    +0.155 HD
BRANCH   6  14
ATOM     10  C   UNL     1      10.607 -10.186   7.138  0.00  0.00    +0.044 C 
ATOM     11  C   UNL     1       9.853  -9.178   6.309  0.00  0.00    -0.050 A 
ATOM     12  C   UNL     1       9.247  -8.096   6.922  0.00  0.00    +0.005 A 
ATOM     13  C   UNL     1       8.555  -7.171   6.166  0.00  0.00    +0.024 A 
ATOM     14  C   UNL     1       8.468  -7.328   4.788  0.00  0.00    +0.037 A 
ATOM     15  C   UNL     1       9.073  -8.418   4.177  0.00  0.00    -0.029 A 
ATOM     16  C   UNL     1       9.768  -9.338   4.939  0.00  0.00    +0.008 A 
ATOM     17  C   UNL     1       8.976  -8.596   2.683  0.00  0.00    +0.045 C 
ENDBRANCH   6  14
ENDBRANCH   2   7
ENDBRANCH   1   4
BRANCH   1  18
ATOM     18  C   UNL     1       3.174  -2.365   4.338  0.00  0.00    -0.021 C 
BRANCH  18  19
ATOM     19  C   UNL     1       2.395  -1.390   3.494  0.00  0.00    -0.059 A 
ATOM     20  C   UNL     1       1.251  -1.803   2.835  0.00  0.00    +0.004 A 
ATOM     21  C   UNL     1       0.542  -0.910   2.061  0.00  0.00    +0.023 A 
ATOM     22  C   UNL     1       0.971   0.413   1.937  0.00  0.00    +0.033 A 
ATOM     23  C   UNL     1       2.112   0.823   2.602  0.00  0.00    -0.026 A 
ATOM     24  C   UNL     1       2.822  -0.082   3.377  0.00  0.00    +0.007 A 
ATOM     25  C   UNL     1       2.619   2.241   2.523  0.00  0.00    +0.038 C 
ATOM     26  C   UNL     1       1.949   2.962   1.351  0.00  0.00    +0.024 C 
ATOM     27  C   UNL     1       0.443   2.682   1.423  0.00  0.00    +0.105 C 
ATOM     28  N   UNL     1       0.214   1.265   1.133  0.00  0.00    -0.333 N 
ATOM     29  C   UNL     1      -1.215   0.935   1.215  0.00  0.00    +0.129 C 
ENDBRANCH  18  19
BRANCH  18  32
ATOM     30  C   UNL     1       2.098  -4.528   4.172  0.00  0.00    -0.096 C 
ATOM     31  C   UNL     1       2.682  -3.630   6.343  0.00  0.00    -0.096 C 
ATOM     32  N   UNL     1       2.222  -3.296   4.979  0.00  0.00    +0.382 N 
ATOM     33  H   UNL     1       1.302  -2.843   5.039  0.00  0.00    -0.082 HD
ENDBRANCH  18  32
ENDBRANCH   1  18
TORSDOF 6
