REMARK  Name = ZINC08230599
REMARK  7 active torsions:
REMARK  status: ('A' for Active; 'I' for Inactive)
REMARK    1  A    between atoms: C_1  and  C_2
REMARK    2  A    between atoms: C_5  and  N_8
REMARK    3  A    between atoms: C_9  and  C_11
REMARK    4  A    between atoms: C_11  and  C_13
REMARK    5  A    between atoms: C_11  and  S_19
REMARK    6  A    between atoms: S_19  and  C_20
REMARK    7  A    between atoms: N_24  and  C_25
REMARK                            x       y       z     vdW  Elec       q    Type
REMARK                         _______ _______ _______ _____ _____    ______ ____
ROOT
ATOM      1  C   UNL     1       3.519   2.155   0.020  0.00  0.00    +0.170 C 
ENDROOT
BRANCH   1   2
ATOM      2  C   UNL     1       2.328   1.236   0.115  0.00  0.00    -0.025 A 
ATOM      3  C   UNL     1       1.057   1.763   0.246  0.00  0.00    +0.005 A 
ATOM      4  C   UNL     1      -0.035   0.920   0.333  0.00  0.00    +0.000 A 
ATOM      5  C   UNL     1       0.144  -0.450   0.290  0.00  0.00    +0.000 A 
ATOM      6  C   UNL     1       1.416  -0.977   0.161  0.00  0.00    +0.000 A 
ATOM      7  C   UNL     1       2.508  -0.134   0.074  0.00  0.00    +0.005 A 
ENDBRANCH   1   2
BRANCH   1   9
ATOM      8  N   UNL     1       4.218   2.526   2.364  0.00  0.00    -0.284 N 
ATOM      9  C   UNL     1       3.601   3.002   1.264  0.00  0.00    +0.235 C 
ATOM     10  O   UNL     1       3.110   4.111   1.276  0.00  0.00    -0.274 OA
ATOM     11  H   UNL     1       4.543   1.612   2.381  0.00  0.00    +0.155 HD
BRANCH   8  16
ATOM     12  C   UNL     1       4.923   5.870   6.892  0.00  0.00    +0.044 C 
ATOM     13  C   UNL     1       4.736   4.982   5.689  0.00  0.00    -0.050 A 
ATOM     14  C   UNL     1       4.531   3.625   5.859  0.00  0.00    +0.005 A 
ATOM     15  C   UNL     1       4.359   2.808   4.758  0.00  0.00    +0.023 A 
ATOM     16  C   UNL     1       4.392   3.351   3.480  0.00  0.00    +0.033 A 
ATOM     17  C   UNL     1       4.602   4.714   3.313  0.00  0.00    +0.023 A 
ATOM     18  C   UNL     1       4.768   5.526   4.418  0.00  0.00    +0.005 A 
ENDBRANCH   8  16
ENDBRANCH   1   9
BRANCH   1  19
ATOM     19  S   UNL     1       3.340   3.226  -1.428  0.00  0.00    -0.067 S 
BRANCH  19  20
ATOM     20  C   UNL     1       3.421   2.021  -2.711  0.00  0.00    +0.211 A 
ATOM     21  N   UNL     1       3.572   0.723  -2.557  0.00  0.00    -0.101 NA
ATOM     22  N   UNL     1       3.591   0.133  -3.697  0.00  0.00    -0.022 NA
ATOM     23  N   UNL     1       3.456   0.993  -4.648  0.00  0.00    -0.043 NA
ATOM     24  N   UNL     1       3.335   2.256  -4.042  0.00  0.00    -0.217 N 
BRANCH  24  25
ATOM     25  C   UNL     1       3.156   3.549  -4.707  0.00  0.00    +0.112 C 
ATOM     26  C   UNL     1       1.883   3.523  -5.578  0.00  0.00    +0.027 C 
ATOM     27  C   UNL     1       2.264   4.354  -6.830  0.00  0.00    +0.002 C 
ATOM     28  C   UNL     1       3.738   3.949  -7.075  0.00  0.00    +0.002 C 
ATOM     29  C   UNL     1       4.335   3.820  -5.658  0.00  0.00    +0.027 C 
ENDBRANCH  24  25
ENDBRANCH  19  20
ENDBRANCH   1  19
TORSDOF 6
