REMARK  Name = ZINC13500194
REMARK  13 active torsions:
REMARK  status: ('A' for Active; 'I' for Inactive)
REMARK    1  A    between atoms: C_1  and  C_2
REMARK    2  A    between atoms: C_2  and  C_3
REMARK    3  A    between atoms: C_3  and  C_4
REMARK    4  A    between atoms: C_4  and  C_6
REMARK    5  A    between atoms: C_4  and  N_71
REMARK    6  A    between atoms: N_10  and  C_11
REMARK    7  A    between atoms: C_11  and  C_12
REMARK    8  A    between atoms: C_11  and  C_13
REMARK    9  A    between atoms: C_11  and  C_14
REMARK   10  A    between atoms: C_14  and  C_15
REMARK   11  A    between atoms: C_16  and  C_17
REMARK   12  A    between atoms: C_16  and  N_71
REMARK   13  A    between atoms: C_32  and  N_71
REMARK                            x       y       z     vdW  Elec       q    Type
REMARK                         _______ _______ _______ _____ _____    ______ ____
ROOT
ATOM      1  N   UNL     1      -1.140   0.799   1.075  0.00  0.00    +0.391 N 
ATOM      2  H   UNL     1      -0.846   1.741   1.360  0.00  0.00    -0.080 HD
ENDROOT
BRANCH   1   3
ATOM      3  C   UNL     1      -0.127   0.237   0.157  0.00  0.00    -0.067 C 
ATOM      4  C   UNL     1       0.092   1.195  -1.041  0.00  0.00    -0.015 C 
ATOM      5  C   UNL     1       1.522   0.831  -1.512  0.00  0.00    -0.002 C 
ATOM      6  C   UNL     1       2.295   0.564  -0.204  0.00  0.00    -0.002 C 
ATOM      7  C   UNL     1       1.247   0.187   0.857  0.00  0.00    -0.015 C 
ENDBRANCH   1   3
BRANCH   1   8
ATOM      8  C   UNL     1      -2.446   0.891   0.390  0.00  0.00    +0.003 C 
BRANCH   8   9
ATOM      9  C   UNL     1      -3.193   2.080   0.939  0.00  0.00    +0.139 A 
ATOM     10  N   UNL     1      -3.323   2.407   2.202  0.00  0.00    -0.115 NA
ATOM     11  N   UNL     1      -4.028   3.484   2.263  0.00  0.00    -0.023 NA
ATOM     12  N   UNL     1      -4.351   3.852   1.072  0.00  0.00    -0.043 NA
ATOM     13  N   UNL     1      -3.850   3.015   0.228  0.00  0.00    -0.225 N 
BRANCH  13  14
ATOM     14  C   UNL     1      -3.975   3.070  -1.231  0.00  0.00    +0.061 C 
ATOM     15  C   UNL     1      -2.599   3.314  -1.852  0.00  0.00    +0.036 C 
ATOM     16  C   UNL     1      -4.538   1.743  -1.744  0.00  0.00    +0.036 C 
BRANCH  14  17
ATOM     17  C   UNL     1      -4.920   4.209  -1.619  0.00  0.00    +0.026 C 
ATOM     18  C   UNL     1      -5.051   4.267  -3.142  0.00  0.00    +0.006 C 
ENDBRANCH  14  17
ENDBRANCH  13  14
ENDBRANCH   8   9
BRANCH   8  19
ATOM     19  C   UNL     1      -3.264  -0.379   0.629  0.00  0.00    -0.008 C 
BRANCH  19  21
ATOM     20  C   UNL     1      -3.459  -2.808   0.075  0.00  0.00    +0.004 C 
ATOM     21  C   UNL     1      -2.578  -1.564  -0.055  0.00  0.00    -0.005 C 
ENDBRANCH  19  21
ENDBRANCH   8  19
ENDBRANCH   1   8
BRANCH   1  22
ATOM     22  C   UNL     1      -1.259  -0.051   2.278  0.00  0.00    -0.036 C 
BRANCH  22  23
ATOM     23  C   UNL     1      -1.974   0.727   3.352  0.00  0.00    +0.001 A 
ATOM     24  C   UNL     1      -3.244   0.393   3.696  0.00  0.00    +0.017 A 
ATOM     25  C   UNL     1      -3.910   1.163   4.746  0.00  0.00    +0.002 A 
ATOM     26  C   UNL     1      -5.218   0.861   5.145  0.00  0.00    +0.059 A 
ATOM     27  C   UNL     1      -5.819   1.607   6.134  0.00  0.00    +0.167 A 
ATOM     28  C   UNL     1      -5.129   2.664   6.740  0.00  0.00    +0.168 A 
ATOM     29  C   UNL     1      -3.838   2.971   6.351  0.00  0.00    +0.075 A 
ATOM     30  C   UNL     1      -3.217   2.228   5.354  0.00  0.00    +0.053 A 
ATOM     31  N   UNL     1      -1.929   2.521   4.953  0.00  0.00    -0.322 N 
ATOM     32  H   UNL     1      -1.453   3.254   5.372  0.00  0.00    +0.169 HD
ATOM     33  C   UNL     1      -1.325   1.803   3.990  0.00  0.00    +0.251 A 
ATOM     34  O   UNL     1      -0.187   2.090   3.661  0.00  0.00    -0.268 OA
ATOM     35  O   UNL     1      -5.942   3.231   7.678  0.00  0.00    -0.453 OA
ATOM     36  C   UNL     1      -6.976   2.261   7.929  0.00  0.00    +0.466 C 
ATOM     37  O   UNL     1      -7.061   1.520   6.698  0.00  0.00    -0.453 OA
ENDBRANCH  22  23
ENDBRANCH   1  22
TORSDOF 9
