REMARK  Name = ZINC63588753
REMARK  14 active torsions:
REMARK  status: ('A' for Active; 'I' for Inactive)
REMARK    1  A    between atoms: C_1  and  C_2
REMARK    2  A    between atoms: C_2  and  O_3
REMARK    3  A    between atoms: O_3  and  C_4
REMARK    4  A    between atoms: C_7  and  C_13
REMARK    5  A    between atoms: C_9  and  O_10
REMARK    6  A    between atoms: O_10  and  C_11
REMARK    7  A    between atoms: C_11  and  C_12
REMARK    8  A    between atoms: C_13  and  N_15
REMARK    9  A    between atoms: N_17  and  C_18
REMARK   10  A    between atoms: C_21  and  C_25
REMARK   11  A    between atoms: C_23  and  C_24
REMARK   12  A    between atoms: N_26  and  C_27
REMARK   13  A    between atoms: C_27  and  C_28
REMARK   14  A    between atoms: C_28  and  C_29
REMARK                            x       y       z     vdW  Elec       q    Type
REMARK                         _______ _______ _______ _____ _____    ______ ____
ROOT
ATOM      1  N   UNL     1       0.593  -7.339  -0.004  0.00  0.00    -0.143 NA
ATOM      2  C   UNL     1       1.324  -8.060  -0.841  0.00  0.00    +0.194 C 
ATOM      3  N   UNL     1       1.288  -7.796  -2.180  0.00  0.00    -0.328 N 
ATOM      4  N   UNL     1       2.113  -9.065  -0.364  0.00  0.00    -0.357 N 
ATOM      5  H   UNL     1       1.485  -6.904  -2.504  0.00  0.00    +0.169 HD
ATOM      6  H   UNL     1       2.106  -9.281   0.582  0.00  0.00    +0.162 HD
ENDROOT
BRANCH   3   7
ATOM      7  C   UNL     1       0.967  -8.814  -3.084  0.00  0.00    +0.045 A 
ATOM      8  C   UNL     1       0.023  -9.775  -2.745  0.00  0.00    +0.026 A 
ATOM      9  C   UNL     1      -0.291 -10.778  -3.640  0.00  0.00    +0.005 A 
ATOM     10  C   UNL     1       0.333 -10.827  -4.873  0.00  0.00    -0.050 A 
ATOM     11  C   UNL     1       1.273  -9.872  -5.214  0.00  0.00    +0.008 A 
ATOM     12  C   UNL     1       1.587  -8.862  -4.326  0.00  0.00    -0.027 A 
ATOM     13  C   UNL     1       2.607  -7.818  -4.701  0.00  0.00    +0.046 C 
ATOM     14  C   UNL     1      -0.012 -11.924  -5.848  0.00  0.00    +0.044 C 
ENDBRANCH   3   7
BRANCH   1  15
ATOM     15  C   UNL     1      -0.295  -6.455  -0.481  0.00  0.00    +0.270 C 
ATOM     16  O   UNL     1      -0.359  -6.242  -1.679  0.00  0.00    -0.268 OA
BRANCH  15  20
ATOM     17  C   UNL     1      -2.881  -4.395   2.193  0.00  0.00    +0.162 A 
ATOM     18  C   UNL     1      -1.962  -5.311   2.684  0.00  0.00    +0.050 A 
ATOM     19  C   UNL     1      -1.123  -5.981   1.820  0.00  0.00    +0.017 A 
ATOM     20  C   UNL     1      -1.196  -5.738   0.447  0.00  0.00    +0.043 A 
ATOM     21  C   UNL     1      -2.120  -4.816  -0.048  0.00  0.00    +0.062 A 
ATOM     22  C   UNL     1      -2.963  -4.152   0.823  0.00  0.00    +0.163 A 
BRANCH  17  23
ATOM     23  O   UNL     1      -3.707  -3.737   3.048  0.00  0.00    -0.489 OA
BRANCH  23  25
ATOM     24  C   UNL     1      -4.575  -3.204   5.240  0.00  0.00    +0.048 C 
ATOM     25  C   UNL     1      -3.570  -4.035   4.439  0.00  0.00    +0.226 C 
ENDBRANCH  23  25
ENDBRANCH  17  23
BRANCH  22  26
ATOM     26  O   UNL     1      -3.868  -3.257   0.343  0.00  0.00    -0.489 OA
BRANCH  26  27
ATOM     27  C   UNL     1      -3.897  -3.058  -1.071  0.00  0.00    +0.226 C 
ATOM     28  C   UNL     1      -4.970  -2.025  -1.419  0.00  0.00    +0.048 C 
ENDBRANCH  26  27
ENDBRANCH  22  26
ENDBRANCH  15  20
ENDBRANCH   1  15
BRANCH   4  29
ATOM     29  C   UNL     1       2.972  -9.819  -1.281  0.00  0.00    +0.120 C 
BRANCH  29  30
ATOM     30  C   UNL     1       3.788 -10.844  -0.489  0.00  0.00    +0.054 C 
BRANCH  30  31
ATOM     31  C   UNL     1       4.757 -11.535  -1.412  0.00  0.00    -0.040 C 
ATOM     32  C   UNL     1       6.043 -11.188  -1.649  0.00  0.00    -0.001 A 
ATOM     33  C   UNL     1       6.891 -10.104  -1.138  0.00  0.00    +0.010 A 
ATOM     34  C   UNL     1       8.169 -10.011  -1.570  0.00  0.00    +0.001 A 
ATOM     35  C   UNL     1       8.703 -10.922  -2.492  0.00  0.00    +0.002 A 
ATOM     36  C   UNL     1       7.986 -11.944  -3.007  0.00  0.00    +0.026 A 
ATOM     37  C   UNL     1       6.631 -12.137  -2.621  0.00  0.00    +0.043 A 
ATOM     38  N   UNL     1       5.743 -13.035  -2.973  0.00  0.00    -0.380 N 
ATOM     39  C   UNL     1       4.492 -12.761  -2.257  0.00  0.00    +0.144 C 
ATOM     40  H   UNL     1       5.890 -13.762  -3.598  0.00  0.00    +0.160 HD
ENDBRANCH  30  31
ENDBRANCH  29  30
ENDBRANCH   4  29
TORSDOF 10
