REMARK  Name = ZINC35675412
REMARK  13 active torsions:
REMARK  status: ('A' for Active; 'I' for Inactive)
REMARK    1  A    between atoms: C_1  and  C_2
REMARK    2  A    between atoms: C_5  and  N_9
REMARK    3  A    between atoms: C_7  and  C_8
REMARK    4  A    between atoms: C_11  and  C_31
REMARK    5  A    between atoms: N_14  and  C_15
REMARK    6  A    between atoms: C_15  and  C_17
REMARK    7  A    between atoms: C_17  and  N_18
REMARK    8  A    between atoms: N_18  and  C_19
REMARK    9  A    between atoms: C_19  and  C_20
REMARK   10  A    between atoms: C_20  and  N_21
REMARK   11  A    between atoms: N_21  and  C_22
REMARK   12  A    between atoms: N_21  and  C_23
REMARK   13  A    between atoms: C_24  and  C_26
REMARK                            x       y       z     vdW  Elec       q    Type
REMARK                         _______ _______ _______ _____ _____    ______ ____
ROOT
ATOM      1  N   UNL     1       0.576  -4.009  -0.112  0.00  0.00    -0.287 N 
ATOM      2  C   UNL     1       0.804  -4.788   1.004  0.00  0.00    +0.120 A 
ATOM      3  C   UNL     1       0.894  -6.069   0.606  0.00  0.00    +0.066 A 
ATOM      4  N   UNL     1       0.721  -6.102  -0.773  0.00  0.00    -0.326 N 
ATOM      5  C   UNL     1       0.521  -4.827  -1.197  0.00  0.00    +0.205 A 
ATOM      6  N   UNL     1       0.311  -4.445  -2.457  0.00  0.00    -0.145 NA
ATOM      7  H   UNL     1       0.737  -6.894  -1.332  0.00  0.00    +0.169 HD
ENDROOT
BRANCH   1  12
ATOM      8  C   UNL     1      -0.051   1.631  -0.161  0.00  0.00    +0.044 C 
ATOM      9  C   UNL     1       0.116   0.133  -0.148  0.00  0.00    -0.047 A 
ATOM     10  C   UNL     1       0.037  -0.580  -1.330  0.00  0.00    +0.005 A 
ATOM     11  C   UNL     1       0.189  -1.953  -1.322  0.00  0.00    +0.026 A 
ATOM     12  C   UNL     1       0.422  -2.617  -0.124  0.00  0.00    +0.049 A 
ATOM     13  C   UNL     1       0.500  -1.897   1.061  0.00  0.00    +0.029 A 
ATOM     14  C   UNL     1       0.353  -0.524   1.045  0.00  0.00    -0.046 A 
ATOM     15  C   UNL     1       0.445   0.258   2.330  0.00  0.00    +0.044 C 
ENDBRANCH   1  12
BRANCH   3  16
ATOM     16  C   UNL     1       1.135  -7.238   1.481  0.00  0.00    -0.000 A 
ATOM     17  C   UNL     1       1.287  -7.064   2.857  0.00  0.00    +0.010 A 
ATOM     18  C   UNL     1       1.512  -8.157   3.667  0.00  0.00    +0.001 A 
ATOM     19  C   UNL     1       1.587  -9.425   3.118  0.00  0.00    +0.000 A 
ATOM     20  C   UNL     1       1.437  -9.605   1.754  0.00  0.00    +0.001 A 
ATOM     21  C   UNL     1       1.206  -8.520   0.934  0.00  0.00    +0.010 A 
ENDBRANCH   3  16
BRANCH   6  22
ATOM     22  C   UNL     1       0.280  -5.349  -3.428  0.00  0.00    +0.256 C 
ATOM     23  O   UNL     1       0.444  -6.526  -3.169  0.00  0.00    -0.272 OA
BRANCH  22  24
ATOM     24  C   UNL     1       0.043  -4.917  -4.853  0.00  0.00    +0.205 C 
BRANCH  24  25
ATOM     25  N   UNL     1       0.055  -6.092  -5.728  0.00  0.00    -0.290 N 
ATOM     26  C   UNL     1       1.222  -6.558  -6.214  0.00  0.00    +0.254 C 
ATOM     27  O   UNL     1       1.225  -7.471  -7.019  0.00  0.00    -0.269 OA
BRANCH  26  28
ATOM     28  C   UNL     1       2.489  -5.966  -5.773  0.00  0.00    +0.074 A 
ATOM     29  C   UNL     1       3.775  -6.213  -6.229  0.00  0.00    +0.021 A 
ATOM     30  C   UNL     1       4.774  -5.496  -5.615  0.00  0.00    +0.008 A 
ATOM     31  C   UNL     1       4.448  -4.620  -4.633  0.00  0.00    +0.046 A 
ATOM     32  S   UNL     1       2.776  -4.735  -4.516  0.00  0.00    -0.092 S 
ENDBRANCH  26  28
BRANCH  25  33
ATOM     33  C   UNL     1      -1.202  -6.760  -6.075  0.00  0.00    +0.090 C 
BRANCH  33  34
ATOM     34  C   UNL     1      -1.777  -6.135  -7.348  0.00  0.00    -0.060 C 
BRANCH  34  35
ATOM     35  N   UNL     1      -3.037  -6.805  -7.696  0.00  0.00    +0.377 N 
ATOM     36  C   UNL     1      -4.035  -6.544  -6.650  0.00  0.00    -0.097 C 
ATOM     37  C   UNL     1      -3.528  -6.288  -8.980  0.00  0.00    -0.097 C 
ATOM     38  H   UNL     1      -2.881  -7.799  -7.771  0.00  0.00    -0.083 HD
ENDBRANCH  34  35
ENDBRANCH  33  34
ENDBRANCH  25  33
ENDBRANCH  24  25
ENDBRANCH  22  24
ENDBRANCH   6  22
TORSDOF 9
