REMARK  Name = ZINC20449649
REMARK  5 active torsions:
REMARK  status: ('A' for Active; 'I' for Inactive)
REMARK    1  A    between atoms: C_4  and  N_7
REMARK    2  A    between atoms: N_10  and  C_13
REMARK    3  A    between atoms: N_18  and  C_20
REMARK    4  A    between atoms: C_20  and  C_21
REMARK    5  A    between atoms: C_26  and  C_27
REMARK                            x       y       z     vdW  Elec       q    Type
REMARK                         _______ _______ _______ _____ _____    ______ ____
ROOT
ATOM      1  C   UNL     1       6.945  -2.318   1.878  0.00  0.00    -0.054 C 
ATOM      2  C   UNL     1       8.301  -1.669   1.587  0.00  0.00    -0.013 C 
ATOM      3  C   UNL     1       9.334  -2.193   2.588  0.00  0.00    +0.014 C 
ATOM      4  C   UNL     1       9.406  -3.718   2.489  0.00  0.00    +0.084 C 
ATOM      5  N   UNL     1       8.085  -4.291   2.777  0.00  0.00    -0.300 NA
ATOM      6  C   UNL     1       7.085  -3.840   1.800  0.00  0.00    +0.069 C 
ENDROOT
BRANCH   1  10
ATOM      7  N   UNL     1       3.620  -0.649  -0.036  0.00  0.00    -0.333 N 
ATOM      8  C   UNL     1       4.892   0.081  -0.149  0.00  0.00    +0.086 C 
ATOM      9  C   UNL     1       5.830  -0.404   0.961  0.00  0.00    -0.059 C 
ATOM     10  N   UNL     1       5.961  -1.865   0.885  0.00  0.00    +0.384 N 
ATOM     11  C   UNL     1       4.665  -2.498   1.159  0.00  0.00    -0.059 C 
ATOM     12  C   UNL     1       3.669  -2.116   0.065  0.00  0.00    +0.086 C 
ATOM     13  H   UNL     1       6.274  -2.126  -0.038  0.00  0.00    -0.081 HD
BRANCH   7  17
ATOM     14  C   UNL     1      -0.017   1.379   0.011  0.00  0.00    +0.000 A 
ATOM     15  C   UNL     1       0.002  -0.004  -0.011  0.00  0.00    +0.002 A 
ATOM     16  C   UNL     1       1.206  -0.680  -0.027  0.00  0.00    +0.023 A 
ATOM     17  C   UNL     1       2.400   0.031  -0.021  0.00  0.00    +0.030 A 
ATOM     18  C   UNL     1       2.377   1.420   0.002  0.00  0.00    +0.023 A 
ATOM     19  C   UNL     1       1.170   2.089   0.018  0.00  0.00    +0.002 A 
ENDBRANCH   7  17
ENDBRANCH   1  10
BRANCH   5  20
ATOM     20  C   UNL     1       8.147  -5.758   2.827  0.00  0.00    +0.122 C 
BRANCH  20  21
ATOM     21  C   UNL     1       8.986  -6.186   4.003  0.00  0.00    +0.007 A 
ATOM     22  C   UNL     1      10.283  -6.572   3.957  0.00  0.00    +0.110 A 
ATOM     23  N   UNL     1      10.667  -6.873   5.215  0.00  0.00    -0.284 N 
ATOM     24  H   UNL     1      11.546  -7.179   5.485  0.00  0.00    +0.188 HD
ATOM     25  N   UNL     1       9.571  -6.665   6.062  0.00  0.00    -0.178 NA
ATOM     26  C   UNL     1       8.566  -6.247   5.335  0.00  0.00    +0.070 A 
BRANCH  26  27
ATOM     27  C   UNL     1       7.192  -5.896   5.846  0.00  0.00    +0.040 C 
ATOM     28  C   UNL     1       7.300  -4.755   6.859  0.00  0.00    +0.010 C 
ATOM     29  C   UNL     1       5.905  -4.400   7.377  0.00  0.00    +0.001 C 
ATOM     30  C   UNL     1       5.284  -5.624   8.052  0.00  0.00    +0.000 C 
ATOM     31  C   UNL     1       5.176  -6.765   7.038  0.00  0.00    +0.001 C 
ATOM     32  C   UNL     1       6.571  -7.121   6.520  0.00  0.00    +0.010 C 
ENDBRANCH  26  27
ENDBRANCH  20  21
ENDBRANCH   5  20
TORSDOF 5
