REMARK  Name = ZINC63308225
REMARK  15 active torsions:
REMARK  status: ('A' for Active; 'I' for Inactive)
REMARK    1  A    between atoms: C_1  and  C_2
REMARK    2  A    between atoms: C_2  and  O_4
REMARK    3  A    between atoms: O_4  and  C_5
REMARK    4  A    between atoms: C_5  and  C_6
REMARK    5  A    between atoms: C_8  and  O_35
REMARK    6  A    between atoms: C_10  and  O_31
REMARK    7  A    between atoms: C_12  and  O_27
REMARK    8  A    between atoms: C_14  and  S_17
REMARK    9  A    between atoms: S_17  and  C_18
REMARK   10  A    between atoms: O_27  and  C_28
REMARK   11  A    between atoms: C_28  and  C_30
REMARK   12  A    between atoms: O_31  and  C_32
REMARK   13  A    between atoms: C_32  and  C_34
REMARK   14  A    between atoms: O_35  and  C_36
REMARK   15  A    between atoms: C_36  and  C_38
REMARK                            x       y       z     vdW  Elec       q    Type
REMARK                         _______ _______ _______ _____ _____    ______ ____
ROOT
ATOM      1  C   UNL     1       0.015  -2.673  -2.514  0.00  0.00    +0.202 C 
ATOM      2  C   UNL     1      -0.089  -4.199  -2.443  0.00  0.00    +0.252 C 
ATOM      3  C   UNL     1      -0.034  -4.773  -3.863  0.00  0.00    +0.263 C 
ATOM      4  C   UNL     1       1.260  -4.309  -4.539  0.00  0.00    +0.259 C 
ATOM      5  C   UNL     1       1.312  -2.779  -4.529  0.00  0.00    +0.224 C 
ATOM      6  O   UNL     1       1.225  -2.310  -3.182  0.00  0.00    -0.352 OA
ENDROOT
BRANCH   1   7
ATOM      7  C   UNL     1       0.020  -2.096  -1.097  0.00  0.00    +0.267 C 
BRANCH   7   8
ATOM      8  O   UNL     1       0.000  -0.669  -1.164  0.00  0.00    -0.462 OA
BRANCH   8  10
ATOM      9  C   UNL     1      -0.018   1.503   0.010  0.00  0.00    +0.136 C 
ATOM     10  C   UNL     1       0.002  -0.004   0.002  0.00  0.00    +0.304 C 
ATOM     11  O   UNL     1       0.020  -0.614   1.045  0.00  0.00    -0.251 OA
ENDBRANCH   8  10
ENDBRANCH   7   8
ENDBRANCH   1   7
BRANCH   5  12
ATOM     12  S   UNL     1       2.874  -2.221  -5.264  0.00  0.00    -0.080 S 
BRANCH  12  13
ATOM     13  C   UNL     1       2.714  -0.415  -5.316  0.00  0.00    +0.238 C 
ATOM     14  N   UNL     1       2.456   0.107  -3.968  0.00  0.00    -0.355 N 
ATOM     15  C   UNL     1       1.303   0.711  -3.997  0.00  0.00    +0.061 A 
ATOM     16  C   UNL     1       0.520   1.419  -2.975  0.00  0.00    +0.027 A 
ATOM     17  C   UNL     1      -0.671   1.957  -3.305  0.00  0.00    +0.002 A 
ATOM     18  C   UNL     1      -1.209   1.873  -4.601  0.00  0.00    +0.002 A 
ATOM     19  C   UNL     1      -0.573   1.247  -5.612  0.00  0.00    +0.027 A 
ATOM     20  C   UNL     1       0.734   0.621  -5.370  0.00  0.00    +0.061 A 
ATOM     21  N   UNL     1       1.557  -0.035  -6.136  0.00  0.00    -0.355 N 
ATOM     22  H   UNL     1       3.038   0.018  -3.197  0.00  0.00    +0.162 HD
ATOM     23  H   UNL     1       1.429  -0.236  -7.076  0.00  0.00    +0.162 HD
ENDBRANCH  12  13
ENDBRANCH   5  12
BRANCH   4  24
ATOM     24  O   UNL     1       2.384  -4.831  -3.828  0.00  0.00    -0.454 OA
BRANCH  24  25
ATOM     25  C   UNL     1       3.497  -5.074  -4.539  0.00  0.00    +0.304 C 
ATOM     26  O   UNL     1       3.515  -4.850  -5.726  0.00  0.00    -0.251 OA
ATOM     27  C   UNL     1       4.722  -5.624  -3.857  0.00  0.00    +0.136 C 
ENDBRANCH  24  25
ENDBRANCH   4  24
BRANCH   3  28
ATOM     28  O   UNL     1      -0.058  -6.201  -3.802  0.00  0.00    -0.454 OA
BRANCH  28  29
ATOM     29  C   UNL     1      -0.620  -6.845  -4.837  0.00  0.00    +0.304 C 
ATOM     30  O   UNL     1      -1.075  -6.217  -5.764  0.00  0.00    -0.251 OA
ATOM     31  C   UNL     1      -0.682  -8.351  -4.844  0.00  0.00    +0.136 C 
ENDBRANCH  28  29
ENDBRANCH   3  28
BRANCH   2  32
ATOM     32  O   UNL     1       0.999  -4.717  -1.675  0.00  0.00    -0.455 OA
BRANCH  32  33
ATOM     33  C   UNL     1       0.803  -4.847  -0.353  0.00  0.00    +0.304 C 
ATOM     34  O   UNL     1      -0.256  -4.531   0.135  0.00  0.00    -0.251 OA
ATOM     35  C   UNL     1       1.905  -5.386   0.522  0.00  0.00    +0.136 C 
ENDBRANCH  32  33
ENDBRANCH   2  32
TORSDOF 11
