REMARK  Name = ZINC28291799
REMARK  3 active torsions:
REMARK  status: ('A' for Active; 'I' for Inactive)
REMARK    1  A    between atoms: C_1  and  C_2
REMARK    2  A    between atoms: C_5  and  C_7
REMARK    3  A    between atoms: C_13  and  C_15
REMARK                            x       y       z     vdW  Elec       q    Type
REMARK                         _______ _______ _______ _____ _____    ______ ____
ROOT
ATOM      1  C   UNL     1      -2.560   9.313  -1.616  0.00  0.00    +0.177 A 
ATOM      2  N   UNL     1      -2.659   8.014  -1.832  0.00  0.00    -0.203 NA
ATOM      3  C   UNL     1      -2.131   7.181  -0.950  0.00  0.00    +0.185 A 
ATOM      4  S   UNL     1      -1.462   8.279   0.215  0.00  0.00    +0.050 S 
ATOM      5  N   UNL     1      -1.930   9.743  -0.537  0.00  0.00    -0.187 NA
ATOM      6  N   UNL     1      -2.112   5.794  -0.958  0.00  0.00    -0.263 N 
ATOM      7  C   UNL     1      -1.510   5.123   0.044  0.00  0.00    +0.225 C 
ATOM      8  O   UNL     1      -0.985   5.731   0.952  0.00  0.00    -0.275 OA
ATOM      9  H   UNL     1      -2.589   5.242  -1.781  0.00  0.00    +0.157 HD
ENDROOT
BRANCH   7  10
ATOM     10  C   UNL     1      -1.490   3.616   0.036  0.00  0.00    +0.048 C 
ATOM     11  C   UNL     1      -0.773   3.123  -1.223  0.00  0.00    +0.019 C 
ATOM     12  C   UNL     1      -0.753   1.593  -1.232  0.00  0.00    -0.009 C 
ATOM     13  C   UNL     1      -0.013   1.086   0.008  0.00  0.00    +0.007 C 
ATOM     14  C   UNL     1      -0.729   1.579   1.267  0.00  0.00    -0.009 C 
ATOM     15  C   UNL     1      -0.750   3.109   1.275  0.00  0.00    +0.019 C 
ATOM     16  C   UNL     1      -2.164   1.050   1.278  0.00  0.00    +0.007 C 
ATOM     17  C   UNL     1      -2.904   1.556   0.038  0.00  0.00    -0.009 C 
ATOM     18  C   UNL     1      -2.188   1.063  -1.221  0.00  0.00    +0.007 C 
ATOM     19  C   UNL     1      -2.925   3.086   0.047  0.00  0.00    +0.019 C 
ENDBRANCH   7  10
BRANCH   1  24
ATOM     20  C   UNL     1      -5.066  12.180  -5.772  0.00  0.00    +0.051 C 
ATOM     21  C   UNL     1      -4.341  11.651  -4.561  0.00  0.00    -0.013 A 
ATOM     22  C   UNL     1      -3.755  12.340  -3.549  0.00  0.00    +0.011 A 
ATOM     23  C   UNL     1      -3.141  11.645  -2.531  0.00  0.00    +0.019 A 
ATOM     24  C   UNL     1      -3.143  10.276  -2.574  0.00  0.00    +0.057 A 
ATOM     25  S   UNL     1      -4.026   9.957  -4.092  0.00  0.00    -0.090 S 
ENDBRANCH   1  24
TORSDOF 2
