REMARK  Name = ZINC63240968
REMARK  8 active torsions:
REMARK  status: ('A' for Active; 'I' for Inactive)
REMARK    1  A    between atoms: C_1  and  C_2
REMARK    2  A    between atoms: C_7  and  N_8
REMARK    3  A    between atoms: C_9  and  C_28
REMARK    4  A    between atoms: C_12  and  S_13
REMARK    5  A    between atoms: S_13  and  C_14
REMARK    6  A    between atoms: C_14  and  C_15
REMARK    7  A    between atoms: N_17  and  C_18
REMARK    8  A    between atoms: C_22  and  N_24
REMARK                            x       y       z     vdW  Elec       q    Type
REMARK                         _______ _______ _______ _____ _____    ______ ____
ROOT
ATOM      1  N   UNL     1       0.024  -0.002   2.412  0.00  0.00    -0.270 N 
ATOM      2  C   UNL     1      -1.079   0.400   3.148  0.00  0.00    +0.168 A 
ATOM      3  N   UNL     1      -0.619   1.026   4.222  0.00  0.00    -0.128 NA
ATOM      4  N   UNL     1       0.666   1.039   4.201  0.00  0.00    -0.122 NA
ATOM      5  C   UNL     1       1.112   0.419   3.119  0.00  0.00    +0.197 A 
ENDROOT
BRANCH   2   6
ATOM      6  C   UNL     1      -2.426   0.184   2.820  0.00  0.00    +0.025 C 
ATOM      7  C   UNL     1      -3.546   0.587   3.547  0.00  0.00    +0.006 A 
ATOM      8  C   UNL     1      -3.692   1.291   4.762  0.00  0.00    +0.010 A 
ATOM      9  C   UNL     1      -4.934   1.550   5.245  0.00  0.00    +0.001 A 
ATOM     10  C   UNL     1      -6.083   1.135   4.569  0.00  0.00    +0.002 A 
ATOM     11  C   UNL     1      -6.018   0.455   3.398  0.00  0.00    +0.026 A 
ATOM     12  C   UNL     1      -4.755   0.148   2.830  0.00  0.00    +0.043 A 
ATOM     13  N   UNL     1      -4.428  -0.489   1.723  0.00  0.00    -0.380 N 
ATOM     14  C   UNL     1      -2.967  -0.527   1.599  0.00  0.00    +0.152 C 
ATOM     15  H   UNL     1      -5.055  -0.870   1.088  0.00  0.00    +0.160 HD
ENDBRANCH   2   6
BRANCH   1  22
ATOM     16  C   UNL     1      -0.007   1.501  -0.004  0.00  0.00    +0.046 C 
ATOM     17  C   UNL     1       0.007  -0.006  -0.004  0.00  0.00    -0.026 A 
ATOM     18  C   UNL     1       0.011  -0.698  -1.200  0.00  0.00    +0.005 A 
ATOM     19  C   UNL     1       0.024  -2.081  -1.200  0.00  0.00    +0.000 A 
ATOM     20  C   UNL     1       0.034  -2.775  -0.004  0.00  0.00    +0.002 A 
ATOM     21  C   UNL     1       0.031  -2.089   1.194  0.00  0.00    +0.026 A 
ATOM     22  C   UNL     1       0.022  -0.701   1.198  0.00  0.00    +0.053 A 
ENDBRANCH   1  22
BRANCH   5  23
ATOM     23  S   UNL     1       2.800   0.185   2.672  0.00  0.00    -0.076 S 
BRANCH  23  24
ATOM     24  C   UNL     1       3.724   0.973   4.019  0.00  0.00    +0.173 C 
BRANCH  24  25
ATOM     25  C   UNL     1       5.202   0.843   3.758  0.00  0.00    +0.227 C 
ATOM     26  O   UNL     1       5.594   0.275   2.760  0.00  0.00    -0.275 OA
ATOM     27  N   UNL     1       6.089   1.358   4.632  0.00  0.00    -0.285 N 
ATOM     28  H   UNL     1       5.777   1.870   5.395  0.00  0.00    +0.155 HD
BRANCH  27  29
ATOM     29  C   UNL     1       7.461   1.153   4.440  0.00  0.00    +0.036 A 
ATOM     30  C   UNL     1       8.299   0.984   5.535  0.00  0.00    +0.026 A 
ATOM     31  C   UNL     1       9.652   0.782   5.343  0.00  0.00    +0.042 A 
ATOM     32  C   UNL     1      10.173   0.750   4.061  0.00  0.00    +0.154 A 
ATOM     33  C   UNL     1       9.340   0.919   2.968  0.00  0.00    +0.163 A 
ATOM     34  C   UNL     1       7.985   1.114   3.155  0.00  0.00    +0.059 A 
ATOM     35  F   UNL     1      11.497   0.554   3.876  0.00  0.00    -0.203 F 
BRANCH  33  36
ATOM     36  N   UNL     1       9.900   0.884   1.599  0.00  0.00    +0.059 N 
ATOM     37  O   UNL     1       9.172   1.031   0.644  0.00  0.00    -0.126 OA
ATOM     38  O   UNL     1      11.085   0.708   1.434  0.00  0.00    -0.126 OA
ENDBRANCH  33  36
ENDBRANCH  27  29
ENDBRANCH  24  25
ENDBRANCH  23  24
ENDBRANCH   5  23
TORSDOF 7
