REMARK  Name = ZINC36642503
REMARK  12 active torsions:
REMARK  status: ('A' for Active; 'I' for Inactive)
REMARK    1  A    between atoms: C_1  and  C_2
REMARK    2  A    between atoms: C_2  and  O_3
REMARK    3  A    between atoms: O_3  and  C_4
REMARK    4  A    between atoms: N_13  and  C_14
REMARK    5  A    between atoms: C_14  and  C_15
REMARK    6  A    between atoms: C_15  and  N_16
REMARK    7  A    between atoms: N_16  and  C_17
REMARK    8  A    between atoms: N_16  and  C_18
REMARK    9  A    between atoms: C_19  and  C_21
REMARK   10  A    between atoms: C_21  and  N_22
REMARK   11  A    between atoms: N_29  and  C_34
REMARK   12  A    between atoms: N_32  and  C_33
REMARK                            x       y       z     vdW  Elec       q    Type
REMARK                         _______ _______ _______ _____ _____    ______ ____
ROOT
ATOM      1  C   UNL     1       0.777  -1.810  -1.336  0.00  0.00    +0.147 A 
ATOM      2  C   UNL     1       0.245  -2.655  -0.390  0.00  0.00    +0.048 A 
ATOM      3  C   UNL     1       0.331  -4.033  -0.519  0.00  0.00    +0.005 A 
ATOM      4  C   UNL     1       0.966  -4.572  -1.623  0.00  0.00    +0.017 A 
ATOM      5  C   UNL     1       1.502  -3.737  -2.574  0.00  0.00    +0.044 A 
ATOM      6  C   UNL     1       1.430  -2.330  -2.482  0.00  0.00    +0.122 A 
ATOM      7  N   UNL     1       1.998  -1.647  -3.501  0.00  0.00    -0.221 NA
ATOM      8  C   UNL     1       2.577  -2.245  -4.515  0.00  0.00    +0.168 A 
ATOM      9  S   UNL     1       2.376  -3.973  -4.103  0.00  0.00    -0.052 S 
ATOM     10  N   UNL     1       3.196  -1.681  -5.619  0.00  0.00    -0.251 N 
ATOM     11  C   UNL     1       3.254  -0.340  -5.747  0.00  0.00    +0.241 C 
ATOM     12  O   UNL     1       2.766   0.372  -4.896  0.00  0.00    -0.273 OA
ENDROOT
BRANCH   1  13
ATOM     13  O   UNL     1       0.671  -0.465  -1.174  0.00  0.00    -0.490 OA
BRANCH  13  15
ATOM     14  C   UNL     1      -0.019   1.526   0.010  0.00  0.00    +0.048 C 
ATOM     15  C   UNL     1       0.002  -0.004   0.002  0.00  0.00    +0.226 C 
ENDBRANCH  13  15
ENDBRANCH   1  13
BRANCH  10  16
ATOM     16  C   UNL     1       3.785  -2.541  -6.648  0.00  0.00    +0.097 C 
BRANCH  16  17
ATOM     17  C   UNL     1       2.735  -2.853  -7.715  0.00  0.00    -0.060 C 
BRANCH  17  18
ATOM     18  N   UNL     1       3.326  -3.716  -8.747  0.00  0.00    +0.377 N 
ATOM     19  C   UNL     1       2.288  -4.114  -9.707  0.00  0.00    -0.097 C 
ATOM     20  C   UNL     1       4.388  -2.983  -9.449  0.00  0.00    -0.097 C 
ATOM     21  H   UNL     1       3.716  -4.540  -8.313  0.00  0.00    -0.083 HD
ENDBRANCH  17  18
ENDBRANCH  16  17
ENDBRANCH  10  16
BRANCH  11  22
ATOM     22  C   UNL     1       3.927   0.273  -6.948  0.00  0.00    +0.219 C 
BRANCH  22  23
ATOM     23  N   UNL     1       3.858   1.734  -6.853  0.00  0.00    -0.316 N 
ATOM     24  C   UNL     1       2.925   2.530  -7.409  0.00  0.00    +0.202 A 
ATOM     25  N   UNL     1       3.179   3.780  -7.115  0.00  0.00    -0.218 NA
ATOM     26  C   UNL     1       4.279   3.853  -6.362  0.00  0.00    +0.168 A 
ATOM     27  C   UNL     1       4.735   2.554  -6.172  0.00  0.00    +0.152 A 
ATOM     28  C   UNL     1       5.896   2.339  -5.398  0.00  0.00    +0.282 A 
ATOM     29  O   UNL     1       6.317   1.210  -5.220  0.00  0.00    -0.265 OA
ATOM     30  N   UNL     1       6.533   3.398  -4.857  0.00  0.00    -0.262 N 
ATOM     31  C   UNL     1       6.079   4.649  -5.047  0.00  0.00    +0.333 A 
ATOM     32  O   UNL     1       6.679   5.580  -4.545  0.00  0.00    -0.246 OA
ATOM     33  N   UNL     1       4.981   4.899  -5.785  0.00  0.00    -0.280 N 
ATOM     34  C   UNL     1       4.518   6.277  -5.965  0.00  0.00    +0.155 C 
ATOM     35  C   UNL     1       7.737   3.182  -4.052  0.00  0.00    +0.157 C 
ENDBRANCH  22  23
ENDBRANCH  11  22
TORSDOF 7
