REMARK  Name = ZINC65190361
REMARK  7 active torsions:
REMARK  status: ('A' for Active; 'I' for Inactive)
REMARK    1  A    between atoms: C_1  and  C_2
REMARK    2  A    between atoms: C_2  and  N_3
REMARK    3  A    between atoms: N_6  and  N_7
REMARK    4  A    between atoms: C_8  and  C_10
REMARK    5  A    between atoms: C_10  and  C_11
REMARK    6  A    between atoms: C_11  and  C_12
REMARK    7  A    between atoms: C_15  and  C_17
REMARK                            x       y       z     vdW  Elec       q    Type
REMARK                         _______ _______ _______ _____ _____    ______ ____
ROOT
ATOM      1  C   UNL     1      -7.679  -1.696   0.066  0.00  0.00    +0.105 C 
ENDROOT
BRANCH   1   2
ATOM      2  C   UNL     1      -8.838  -0.732   0.083  0.00  0.00    +0.197 A 
ATOM      3  N   UNL     1      -9.434  -0.247  -0.971  0.00  0.00    -0.221 NA
ATOM      4  C   UNL     1     -10.418   0.574  -0.574  0.00  0.00    +0.161 A 
ATOM      5  C   UNL     1     -10.417   0.586   0.784  0.00  0.00    +0.157 A 
ATOM      6  O   UNL     1      -9.426  -0.241   1.182  0.00  0.00    -0.440 OA
BRANCH   5   7
ATOM      7  C   UNL     1     -11.330   1.352   1.658  0.00  0.00    +0.037 A 
ATOM      8  C   UNL     1     -11.993   0.716   2.708  0.00  0.00    +0.014 A 
ATOM      9  C   UNL     1     -12.844   1.436   3.521  0.00  0.00    +0.021 A 
ATOM     10  C   UNL     1     -13.040   2.788   3.297  0.00  0.00    +0.042 A 
ATOM     11  C   UNL     1     -12.386   3.426   2.257  0.00  0.00    +0.040 A 
ATOM     12  C   UNL     1     -11.528   2.717   1.440  0.00  0.00    +0.053 A 
ATOM     13 CL   UNL     1     -10.703   3.520   0.141  0.00  0.00    -0.083 Cl
ATOM     14 CL   UNL     1     -14.113   3.687   4.325  0.00  0.00    -0.083 Cl
ENDBRANCH   5   7
ENDBRANCH   1   2
BRANCH   1  15
ATOM     15  C   UNL     1      -6.365  -0.913   0.058  0.00  0.00    +0.106 C 
BRANCH  15  17
ATOM     16  N   UNL     1      -3.942  -1.410   0.032  0.00  0.00    -0.233 N 
ATOM     17  C   UNL     1      -5.207  -1.877   0.042  0.00  0.00    +0.230 C 
ATOM     18  O   UNL     1      -5.412  -3.072   0.037  0.00  0.00    -0.274 OA
ATOM     19  H   UNL     1      -3.778  -0.454   0.036  0.00  0.00    +0.173 HD
BRANCH  16  23
ATOM     20  N   UNL     1      -1.372  -0.511   0.012  0.00  0.00    -0.298 N 
ATOM     21  C   UNL     1      -1.601  -1.839   0.007  0.00  0.00    +0.316 C 
ATOM     22  O   UNL     1      -0.666  -2.617  -0.006  0.00  0.00    -0.251 OA
ATOM     23  N   UNL     1      -2.865  -2.306   0.017  0.00  0.00    -0.218 N 
ATOM     24  H   UNL     1      -2.118   0.109   0.023  0.00  0.00    +0.150 HD
ATOM     25  H   UNL     1      -3.029  -3.262   0.013  0.00  0.00    +0.174 HD
BRANCH  20  27
ATOM     26  C   UNL     1      -0.019   1.526   0.010  0.00  0.00    +0.024 C 
ATOM     27  C   UNL     1       0.002  -0.004   0.002  0.00  0.00    +0.102 C 
ENDBRANCH  20  27
ENDBRANCH  16  23
ENDBRANCH  15  17
ENDBRANCH   1  15
TORSDOF 6
