REMARK  Name = ZINC20849069
REMARK  10 active torsions:
REMARK  status: ('A' for Active; 'I' for Inactive)
REMARK    1  A    between atoms: C_1  and  C_2
REMARK    2  A    between atoms: C_2  and  O_3
REMARK    3  A    between atoms: O_3  and  C_4
REMARK    4  A    between atoms: C_4  and  C_6
REMARK    5  A    between atoms: C_7  and  C_22
REMARK    6  A    between atoms: C_12  and  C_14
REMARK    7  A    between atoms: C_18  and  O_20
REMARK    8  A    between atoms: O_20  and  C_21
REMARK    9  A    between atoms: C_22  and  S_23
REMARK   10  A    between atoms: S_23  and  C_26
REMARK                            x       y       z     vdW  Elec       q    Type
REMARK                         _______ _______ _______ _____ _____    ______ ____
ROOT
ATOM      1  C   UNL     1       5.146   5.177  -2.151  0.00  0.00    +0.080 C 
ATOM      2  C   UNL     1       3.884   5.631  -2.001  0.00  0.00    +0.045 C 
ATOM      3  N   UNL     1       3.627   6.963  -1.845  0.00  0.00    -0.271 N 
ATOM      4  C   UNL     1       4.580   7.904  -1.818  0.00  0.00    +0.304 C 
ATOM      5  O   UNL     1       4.254   9.066  -1.669  0.00  0.00    -0.252 OA
ATOM      6  N   UNL     1       5.887   7.606  -1.955  0.00  0.00    -0.288 N 
ATOM      7  C   UNL     1       6.269   6.195  -2.135  0.00  0.00    +0.144 C 
ATOM      8  H   UNL     1       2.591   7.314  -1.734  0.00  0.00    +0.156 HD
ATOM      9  H   UNL     1       6.661   8.387  -1.935  0.00  0.00    +0.151 HD
ENDROOT
BRANCH   7  10
ATOM     10  C   UNL     1       7.020   6.079  -3.436  0.00  0.00    -0.019 A 
ATOM     11  C   UNL     1       6.516   6.669  -4.580  0.00  0.00    +0.006 A 
ATOM     12  C   UNL     1       7.206   6.569  -5.774  0.00  0.00    +0.004 A 
ATOM     13  C   UNL     1       8.396   5.870  -5.829  0.00  0.00    +0.045 A 
ATOM     14  C   UNL     1       8.902   5.273  -4.683  0.00  0.00    +0.120 A 
ATOM     15  C   UNL     1       8.210   5.379  -3.485  0.00  0.00    +0.051 A 
BRANCH  14  16
ATOM     16  O   UNL     1      10.073   4.585  -4.734  0.00  0.00    -0.495 OA
ATOM     17  C   UNL     1      10.730   4.517  -6.001  0.00  0.00    +0.277 C 
ENDBRANCH  14  16
ENDBRANCH   7  10
BRANCH   1  18
ATOM     18  C   UNL     1       5.413   3.798  -2.318  0.00  0.00    +0.339 C 
ATOM     19  O   UNL     1       5.808   3.136  -1.377  0.00  0.00    -0.245 OA
BRANCH  18  20
ATOM     20  O   UNL     1       5.228   3.216  -3.522  0.00  0.00    -0.462 OA
BRANCH  20  22
ATOM     21  C   UNL     1       5.250   1.342  -5.048  0.00  0.00    +0.048 C 
ATOM     22  C   UNL     1       5.517   1.820  -3.619  0.00  0.00    +0.229 C 
ENDBRANCH  20  22
ENDBRANCH  18  20
ENDBRANCH   1  18
BRANCH   2  23
ATOM     23  C   UNL     1       2.738   4.652  -2.012  0.00  0.00    +0.223 C 
BRANCH  23  24
ATOM     24  S   UNL     1       2.131   4.412  -0.320  0.00  0.00    +0.008 S 
ATOM     25  O   UNL     1       1.520   5.604   0.155  0.00  0.00    -0.169 OA
ATOM     26  O   UNL     1       3.110   3.740   0.460  0.00  0.00    -0.169 OA
BRANCH  24  27
ATOM     27  C   UNL     1       0.808   3.259  -0.472  0.00  0.00    +0.127 A 
ATOM     28  C   UNL     1       0.845   1.905  -0.416  0.00  0.00    +0.036 A 
ATOM     29  C   UNL     1      -0.332   1.195  -0.564  0.00  0.00    +0.025 A 
ATOM     30  C   UNL     1      -1.489   1.875  -0.766  0.00  0.00    +0.057 A 
ATOM     31  S   UNL     1      -0.929   3.570  -0.742  0.00  0.00    -0.063 S 
ATOM     32 BR   UNL     1      -3.239   1.202  -1.010  0.00  0.00    -0.043 Br
ENDBRANCH  24  27
ENDBRANCH  23  24
ENDBRANCH   2  23
TORSDOF 8
