REMARK  Name = ZINC02790366
REMARK  5 active torsions:
REMARK  status: ('A' for Active; 'I' for Inactive)
REMARK    1  A    between atoms: C_1  and  C_2
REMARK    2  A    between atoms: C_2  and  C_3
REMARK    3  A    between atoms: C_4  and  C_22
REMARK    4  A    between atoms: C_10  and  C_15
REMARK    5  A    between atoms: C_20  and  O_21
REMARK                            x       y       z     vdW  Elec       q    Type
REMARK                         _______ _______ _______ _____ _____    ______ ____
ROOT
ATOM      1  C   UNL     1       0.731  -0.503   1.223  0.00  0.00    -0.025 A 
ATOM      2  C   UNL     1       2.059  -0.707   1.186  0.00  0.00    -0.007 A 
ATOM      3  S   UNL     1       2.433  -1.281   2.832  0.00  0.00    -0.073 S 
ATOM      4  C   UNL     1       0.798  -1.232   3.519  0.00  0.00    +0.114 A 
ATOM      5  C   UNL     1       0.009  -0.764   2.452  0.00  0.00    +0.055 A 
ATOM      6  C   UNL     1      -1.428  -0.620   2.755  0.00  0.00    +0.168 A 
ATOM      7  N   UNL     1      -2.467  -0.228   2.045  0.00  0.00    -0.206 NA
ATOM      8  C   UNL     1      -3.568  -0.279   2.801  0.00  0.00    +0.186 A 
ATOM      9  N   UNL     1      -3.249  -0.706   4.008  0.00  0.00    -0.143 NA
ATOM     10  N   UNL     1      -1.866  -0.936   4.010  0.00  0.00    -0.201 N 
ATOM     11  C   UNL     1      -0.995  -1.375   4.958  0.00  0.00    +0.226 A 
ATOM     12  N   UNL     1       0.276  -1.518   4.705  0.00  0.00    -0.228 NA
ATOM     13  C   UNL     1       3.005  -0.498   0.031  0.00  0.00    +0.052 C 
ENDROOT
BRANCH   8  14
ATOM     14  C   UNL     1      -4.934   0.086   2.354  0.00  0.00    +0.062 A 
ATOM     15  C   UNL     1      -5.150   0.521   1.048  0.00  0.00    +0.015 A 
ATOM     16  C   UNL     1      -6.423   0.860   0.636  0.00  0.00    +0.001 A 
ATOM     17  C   UNL     1      -7.487   0.769   1.516  0.00  0.00    +0.004 A 
ATOM     18  C   UNL     1      -7.285   0.339   2.813  0.00  0.00    +0.046 A 
ATOM     19  C   UNL     1      -6.012  -0.009   3.239  0.00  0.00    +0.128 A 
BRANCH  19  20
ATOM     20  O   UNL     1      -5.813  -0.437   4.512  0.00  0.00    -0.506 OA
ATOM     21  H   UNL     1      -5.617   0.272   5.139  0.00  0.00    +0.292 HD
ENDBRANCH  19  20
ENDBRANCH   8  14
BRANCH   1  23
ATOM     22  C   UNL     1      -0.019   1.526   0.010  0.00  0.00    +0.009 C 
ATOM     23  C   UNL     1       0.002  -0.004   0.002  0.00  0.00    +0.033 C 
ENDBRANCH   1  23
TORSDOF 3
