REMARK  Name = ZINC04712975
REMARK  8 active torsions:
REMARK  status: ('A' for Active; 'I' for Inactive)
REMARK    1  A    between atoms: C_1  and  C_2
REMARK    2  A    between atoms: C_2  and  C_5
REMARK    3  A    between atoms: N_3  and  O_4
REMARK    4  A    between atoms: C_11  and  C_32
REMARK    5  A    between atoms: C_21  and  C_31
REMARK    6  A    between atoms: C_24  and  O_27
REMARK    7  A    between atoms: O_27  and  C_28
REMARK    8  A    between atoms: C_28  and  C_30
REMARK                            x       y       z     vdW  Elec       q    Type
REMARK                         _______ _______ _______ _____ _____    ______ ____
ROOT
ATOM      1  C   UNL     1       0.335  -0.726  -1.206  0.00  0.00    +0.043 C 
ATOM      2  C   UNL     1      -0.951  -0.304  -1.966  0.00  0.00    +0.010 C 
ATOM      3  C   UNL     1      -1.875  -1.555  -1.994  0.00  0.00    +0.005 C 
ATOM      4  C   UNL     1      -1.293  -2.419  -0.861  0.00  0.00    -0.001 C 
ATOM      5  C   UNL     1       0.221  -2.260  -1.112  0.00  0.00    -0.021 C 
ATOM      6  C   UNL     1       1.009  -2.936  -0.027  0.00  0.00    +0.008 C 
ATOM      7  C   UNL     1       0.502  -4.358   0.249  0.00  0.00    +0.005 C 
ATOM      8  C   UNL     1      -0.566  -4.825  -0.723  0.00  0.00    +0.003 C 
ATOM      9  C   UNL     1      -1.738  -3.847  -0.807  0.00  0.00    +0.000 C 
ATOM     10  C   UNL     1      -2.583  -4.246  -2.025  0.00  0.00    +0.031 C 
ATOM     11  C   UNL     1      -3.014  -5.675  -1.831  0.00  0.00    -0.027 C 
ATOM     12  C   UNL     1      -2.379  -6.518  -1.080  0.00  0.00    -0.064 C 
ATOM     13  C   UNL     1      -1.104  -6.202  -0.338  0.00  0.00    -0.008 C 
ATOM     14  C   UNL     1      -1.367  -6.329   1.156  0.00  0.00    +0.015 C 
ATOM     15  C   UNL     1      -2.727  -6.982   1.402  0.00  0.00    +0.046 C 
ATOM     16  C   UNL     1      -2.917  -8.252   0.581  0.00  0.00    +0.180 C 
ATOM     17  C   UNL     1      -2.921  -7.928  -0.918  0.00  0.00    +0.075 C 
ATOM     18  C   UNL     1      -0.043  -7.233  -0.740  0.00  0.00    +0.016 C 
ATOM     19  C   UNL     1       0.642  -2.790  -2.491  0.00  0.00    +0.012 C 
ENDROOT
BRANCH   1  21
ATOM     20  C   UNL     1       0.638   1.406   0.257  0.00  0.00    +0.064 C 
ATOM     21  C   UNL     1       0.377  -0.074   0.143  0.00  0.00    +0.058 C 
ATOM     22  N   UNL     1       0.192  -0.774   1.198  0.00  0.00    -0.097 NA
BRANCH  22  23
ATOM     23  O   UNL     1       0.232  -0.159   2.473  0.00  0.00    -0.409 OA
ATOM     24  H   UNL     1       0.081  -0.767   3.209  0.00  0.00    +0.328 HD
ENDBRANCH  22  23
ENDBRANCH   1  21
BRANCH  16  25
ATOM     25  O   UNL     1      -1.876  -9.186   0.876  0.00  0.00    -0.461 OA
BRANCH  25  26
ATOM     26  C   UNL     1      -2.178 -10.489   0.768  0.00  0.00    +0.304 C 
ATOM     27  O   UNL     1      -3.289 -10.826   0.435  0.00  0.00    -0.251 OA
ATOM     28  C   UNL     1      -1.130 -11.532   1.063  0.00  0.00    +0.136 C 
ENDBRANCH  25  26
ENDBRANCH  16  25
TORSDOF 4
