REMARK  Name = ZINC06525661
REMARK  4 active torsions:
REMARK  status: ('A' for Active; 'I' for Inactive)
REMARK    1  A    between atoms: C_1  and  C_2
REMARK    2  A    between atoms: C_8  and  C_11
REMARK    3  A    between atoms: N_13  and  C_14
REMARK    4  A    between atoms: C_20  and  C_22
REMARK                            x       y       z     vdW  Elec       q    Type
REMARK                         _______ _______ _______ _____ _____    ______ ____
ROOT
ATOM      1  C   UNL     1       1.147   1.655   0.000  0.00  0.00    +0.266 C 
ATOM      2  O   UNL     1       1.130   2.870   0.007  0.00  0.00    -0.268 OA
ATOM      3  N   UNL     1      -0.011   0.966   0.007  0.00  0.00    -0.307 N 
ATOM      4  H   UNL     1       0.002  -0.004   0.002  0.00  0.00    +0.149 HD
ENDROOT
BRANCH   1  11
ATOM      5  C   UNL     1       6.192   4.394  -0.201  0.00  0.00    +0.008 C 
ATOM      6  C   UNL     1       5.644   2.987  -0.447  0.00  0.00    -0.009 C 
ATOM      7  C   UNL     1       6.447   1.975   0.375  0.00  0.00    +0.011 C 
ATOM      8  C   UNL     1       6.071   0.549  -0.048  0.00  0.00    +0.078 C 
ATOM      9  C   UNL     1       4.570   0.433  -0.037  0.00  0.00    +0.141 A 
ATOM     10  C   UNL     1       3.733   1.496  -0.025  0.00  0.00    +0.027 A 
ATOM     11  C   UNL     1       2.441   0.931  -0.016  0.00  0.00    +0.171 A 
ATOM     12  N   UNL     1       2.623  -0.371  -0.019  0.00  0.00    -0.073 NA
ATOM     13  O   UNL     1       3.803  -0.656  -0.036  0.00  0.00    -0.359 OA
ATOM     14  C   UNL     1       4.168   2.933  -0.026  0.00  0.00    +0.044 C 
ENDBRANCH   1  11
BRANCH   3  15
ATOM     15  C   UNL     1      -1.290   1.681   0.017  0.00  0.00    +0.076 C 
ATOM     16  C   UNL     1      -1.680   2.047  -1.416  0.00  0.00    +0.022 C 
ATOM     17  C   UNL     1      -3.015   2.794  -1.405  0.00  0.00    +0.002 C 
ATOM     18  C   UNL     1      -4.096   1.899  -0.796  0.00  0.00    +0.000 C 
ATOM     19  C   UNL     1      -3.705   1.533   0.638  0.00  0.00    +0.005 C 
ATOM     20  C   UNL     1      -2.370   0.786   0.627  0.00  0.00    +0.006 C 
ATOM     21  C   UNL     1      -1.980   0.419   2.060  0.00  0.00    +0.009 C 
ENDBRANCH   3  15
TORSDOF 2
