REMARK  Name = ZINC10068290
REMARK  9 active torsions:
REMARK  status: ('A' for Active; 'I' for Inactive)
REMARK    1  A    between atoms: C_1  and  N_55
REMARK    2  A    between atoms: C_2  and  N_55
REMARK    3  A    between atoms: C_3  and  C_4
REMARK    4  A    between atoms: C_3  and  N_55
REMARK    5  A    between atoms: C_4  and  C_5
REMARK    6  A    between atoms: C_5  and  N_6
REMARK    7  A    between atoms: C_20  and  C_22
REMARK    8  A    between atoms: C_24  and  N_31
REMARK    9  A    between atoms: C_26  and  N_28
REMARK                            x       y       z     vdW  Elec       q    Type
REMARK                         _______ _______ _______ _____ _____    ______ ____
ROOT
ATOM      1  N   UNL     1      -1.413   3.595   0.136  0.00  0.00    -0.246 N 
ATOM      2  C   UNL     1      -2.611   4.263  -0.054  0.00  0.00    +0.168 A 
ATOM      3  N   UNL     1      -3.830   3.779  -0.070  0.00  0.00    -0.224 NA
ATOM      4  C   UNL     1      -4.919   4.556  -0.269  0.00  0.00    +0.084 A 
ATOM      5  C   UNL     1      -6.276   4.161  -0.310  0.00  0.00    +0.078 A 
ATOM      6  C   UNL     1      -7.277   5.082  -0.525  0.00  0.00    +0.164 A 
ATOM      7  C   UNL     1      -6.979   6.433  -0.704  0.00  0.00    +0.163 A 
ATOM      8  C   UNL     1      -5.659   6.851  -0.669  0.00  0.00    +0.066 A 
ATOM      9  C   UNL     1      -4.661   5.932  -0.457  0.00  0.00    +0.044 A 
ATOM     10  S   UNL     1      -2.890   6.007  -0.331  0.00  0.00    -0.052 S 
ATOM     11  O   UNL     1      -7.965   7.348  -0.910  0.00  0.00    -0.485 OA
ATOM     12  C   UNL     1      -9.242   6.839  -1.308  0.00  0.00    +0.270 C 
ATOM     13  C   UNL     1      -9.586   5.648  -0.404  0.00  0.00    +0.270 C 
ATOM     14  O   UNL     1      -8.571   4.652  -0.565  0.00  0.00    -0.485 OA
ATOM     15  C   UNL     1      -1.410   2.262   0.339  0.00  0.00    +0.252 C 
ATOM     16  O   UNL     1      -2.445   1.631   0.247  0.00  0.00    -0.270 OA
ENDROOT
BRANCH  15  17
ATOM     17  C   UNL     1      -0.148   1.569   0.672  0.00  0.00    +0.042 A 
ATOM     18  C   UNL     1       1.015   1.844  -0.048  0.00  0.00    +0.046 A 
ATOM     19  C   UNL     1       2.188   1.190   0.266  0.00  0.00    +0.129 A 
ATOM     20  C   UNL     1       2.213   0.261   1.291  0.00  0.00    +0.065 A 
ATOM     21  C   UNL     1       1.064  -0.018   2.009  0.00  0.00    +0.129 A 
ATOM     22  C   UNL     1      -0.116   0.630   1.706  0.00  0.00    +0.046 A 
BRANCH  21  23
ATOM     23  N   UNL     1       1.100  -1.012   3.104  0.00  0.00    +0.057 N 
ATOM     24  O   UNL     1       0.088  -1.258   3.737  0.00  0.00    -0.126 OA
ATOM     25  O   UNL     1       2.140  -1.585   3.372  0.00  0.00    -0.126 OA
ENDBRANCH  21  23
BRANCH  19  26
ATOM     26  N   UNL     1       3.423   1.481  -0.497  0.00  0.00    +0.057 N 
ATOM     27  O   UNL     1       4.437   0.842  -0.281  0.00  0.00    -0.126 OA
ATOM     28  O   UNL     1       3.425   2.361  -1.340  0.00  0.00    -0.126 OA
ENDBRANCH  19  26
ENDBRANCH  15  17
BRANCH   1  29
ATOM     29  C   UNL     1      -0.149   4.336   0.117  0.00  0.00    +0.114 C 
BRANCH  29  30
ATOM     30  C   UNL     1       0.279   4.576  -1.332  0.00  0.00    +0.001 C 
BRANCH  30  31
ATOM     31  C   UNL     1       1.661   5.232  -1.353  0.00  0.00    -0.078 C 
BRANCH  31  34
ATOM     32  C   UNL     1       3.263   6.363  -2.774  0.00  0.00    -0.097 C 
ATOM     33  C   UNL     1       2.081   4.415  -3.593  0.00  0.00    -0.097 C 
ATOM     34  N   UNL     1       1.986   5.619  -2.742  0.00  0.00    +0.376 N 
ATOM     35  H   UNL     1       1.238   6.224  -3.103  0.00  0.00    -0.083 HD
ENDBRANCH  31  34
ENDBRANCH  30  31
ENDBRANCH  29  30
ENDBRANCH   1  29
TORSDOF 7
