REMARK  Name = ZINC08826958
REMARK  13 active torsions:
REMARK  status: ('A' for Active; 'I' for Inactive)
REMARK    1  A    between atoms: C_1  and  C_2
REMARK    2  A    between atoms: C_9  and  C_35
REMARK    3  A    between atoms: C_10  and  C_11
REMARK    4  A    between atoms: C_11  and  C_13
REMARK    5  A    between atoms: C_14  and  O_34
REMARK    6  A    between atoms: N_17  and  C_29
REMARK    7  A    between atoms: C_18  and  C_20
REMARK    8  A    between atoms: C_23  and  N_26
REMARK    9  A    between atoms: C_29  and  C_30
REMARK   10  A    between atoms: C_30  and  C_31
REMARK   11  A    between atoms: C_31  and  N_62
REMARK   12  A    between atoms: C_32  and  N_62
REMARK   13  A    between atoms: C_33  and  N_62
REMARK                            x       y       z     vdW  Elec       q    Type
REMARK                         _______ _______ _______ _____ _____    ______ ____
ROOT
ATOM      1  C   UNL     1      -0.558  -0.555  -1.435  0.00  0.00    +0.073 C 
ATOM      2  C   UNL     1      -1.797  -1.097  -1.385  0.00  0.00    +0.188 C 
ATOM      3  C   UNL     1      -2.221  -1.214   0.023  0.00  0.00    +0.282 C 
ATOM      4  O   UNL     1      -3.287  -1.664   0.396  0.00  0.00    -0.267 OA
ATOM      5  N   UNL     1      -1.254  -0.749   0.835  0.00  0.00    -0.284 N 
ATOM      6  C   UNL     1      -0.138  -0.299  -0.007  0.00  0.00    +0.145 C 
ENDROOT
BRANCH   6   7
ATOM      7  C   UNL     1       0.111   1.172   0.205  0.00  0.00    -0.022 A 
ATOM      8  C   UNL     1      -0.945   2.063   0.169  0.00  0.00    +0.008 A 
ATOM      9  C   UNL     1      -0.717   3.412   0.368  0.00  0.00    +0.033 A 
ATOM     10  C   UNL     1       0.567   3.871   0.592  0.00  0.00    +0.126 A 
ATOM     11  C   UNL     1       1.624   2.980   0.622  0.00  0.00    +0.033 A 
ATOM     12  C   UNL     1       1.395   1.630   0.429  0.00  0.00    +0.008 A 
BRANCH  10  13
ATOM     13  N   UNL     1       0.812   5.316   0.801  0.00  0.00    +0.056 N 
ATOM     14  O   UNL     1       1.944   5.720   0.998  0.00  0.00    -0.126 OA
ATOM     15  O   UNL     1      -0.119   6.101   0.774  0.00  0.00    -0.126 OA
ENDBRANCH  10  13
ENDBRANCH   6   7
BRANCH   1  16
ATOM     16  C   UNL     1       0.227  -0.270  -2.643  0.00  0.00    +0.213 C 
ATOM     17  O   UNL     1       0.284   0.868  -3.078  0.00  0.00    -0.285 OA
BRANCH  16  27
ATOM     18  C   UNL     1       3.491  -4.033  -6.189  0.00  0.00    +0.047 C 
ATOM     19  C   UNL     1       2.954  -2.662  -5.869  0.00  0.00    -0.008 A 
ATOM     20  C   UNL     1       3.245  -1.603  -6.678  0.00  0.00    +0.008 A 
ATOM     21  C   UNL     1       2.738  -0.335  -6.367  0.00  0.00    +0.018 A 
ATOM     22  C   UNL     1       1.963  -0.163  -5.271  0.00  0.00    +0.093 A 
ATOM     23  N   UNL     1       1.663  -1.215  -4.463  0.00  0.00    -0.296 N 
ATOM     24  C   UNL     1       2.147  -2.463  -4.736  0.00  0.00    +0.141 A 
ATOM     25  N   UNL     1       1.715  -3.303  -3.795  0.00  0.00    -0.232 NA
ATOM     26  C   UNL     1       0.972  -2.650  -2.917  0.00  0.00    +0.068 A 
ATOM     27  C   UNL     1       0.916  -1.317  -3.304  0.00  0.00    +0.116 A 
ATOM     28  C   UNL     1       0.303  -3.249  -1.707  0.00  0.00    +0.068 C 
ENDBRANCH  16  27
ENDBRANCH   1  16
BRANCH   2  29
ATOM     29  O   UNL     1      -2.533  -1.473  -2.459  0.00  0.00    -0.502 OA
ATOM     30  H   UNL     1      -3.409  -1.843  -2.150  0.00  0.00    +0.292 HD
ENDBRANCH   2  29
BRANCH   5  31
ATOM     31  C   UNL     1      -1.305  -0.700   2.298  0.00  0.00    +0.107 C 
BRANCH  31  32
ATOM     32  C   UNL     1      -1.903   0.636   2.743  0.00  0.00    +0.000 C 
BRANCH  32  33
ATOM     33  C   UNL     1      -1.956   0.688   4.271  0.00  0.00    -0.078 C 
BRANCH  33  36
ATOM     34  C   UNL     1      -2.817   1.965   6.139  0.00  0.00    -0.097 C 
ATOM     35  C   UNL     1      -1.646   3.088   4.342  0.00  0.00    -0.097 C 
ATOM     36  N   UNL     1      -2.555   1.974   4.684  0.00  0.00    +0.376 N 
ATOM     37  H   UNL     1      -3.443   2.104   4.186  0.00  0.00    -0.083 HD
ENDBRANCH  33  36
ENDBRANCH  32  33
ENDBRANCH  31  32
ENDBRANCH   5  31
TORSDOF 9
