REMARK  Name = ZINC07594814
REMARK  7 active torsions:
REMARK  status: ('A' for Active; 'I' for Inactive)
REMARK    1  A    between atoms: C_1  and  C_2
REMARK    2  A    between atoms: C_2  and  C_3
REMARK    3  A    between atoms: C_8  and  N_9
REMARK    4  A    between atoms: C_10  and  C_12
REMARK    5  A    between atoms: N_17  and  C_19
REMARK    6  A    between atoms: C_19  and  C_20
REMARK    7  A    between atoms: C_23  and  N_26
REMARK                            x       y       z     vdW  Elec       q    Type
REMARK                         _______ _______ _______ _____ _____    ______ ____
ROOT
ATOM      1  C   UNL     1       2.421   0.726   0.071  0.00  0.00    +0.053 A 
ATOM      2  C   UNL     1       2.323  -0.682   0.187  0.00  0.00    +0.020 A 
ATOM      3  C   UNL     1       3.463  -1.419   0.260  0.00  0.00    +0.071 A 
ATOM      4  C   UNL     1       4.711  -0.769   0.232  0.00  0.00    +0.252 A 
ATOM      5  O   UNL     1       5.737  -1.425   0.302  0.00  0.00    -0.268 OA
ATOM      6  N   UNL     1       4.782   0.571   0.127  0.00  0.00    -0.310 N 
ATOM      7  C   UNL     1       3.667   1.320   0.046  0.00  0.00    +0.102 A 
ENDROOT
BRANCH   1   9
ATOM      8  N   UNL     1      -0.011   0.966   0.007  0.00  0.00    -0.281 N 
ATOM      9  C   UNL     1       1.203   1.551  -0.017  0.00  0.00    +0.250 C 
ATOM     10  O   UNL     1       1.293   2.760  -0.112  0.00  0.00    -0.270 OA
ATOM     11  H   UNL     1      -0.083  -0.002   0.017  0.00  0.00    +0.155 HD
BRANCH   8  17
ATOM     12  C   UNL     1      -2.287   1.340   0.724  0.00  0.00    -0.026 A 
ATOM     13  C   UNL     1      -3.427   2.119   0.728  0.00  0.00    +0.005 A 
ATOM     14  C   UNL     1      -3.454   3.310   0.025  0.00  0.00    +0.000 A 
ATOM     15  C   UNL     1      -2.341   3.724  -0.683  0.00  0.00    +0.002 A 
ATOM     16  C   UNL     1      -1.196   2.952  -0.687  0.00  0.00    +0.023 A 
ATOM     17  C   UNL     1      -1.167   1.753   0.013  0.00  0.00    +0.037 A 
BRANCH  12  19
ATOM     18  C   UNL     1      -1.649   0.281   2.874  0.00  0.00    +0.009 C 
ATOM     19  C   UNL     1      -2.257   0.043   1.490  0.00  0.00    +0.033 C 
ENDBRANCH  12  19
ENDBRANCH   8  17
ENDBRANCH   1   9
BRANCH   6  20
ATOM     20  C   UNL     1       6.093   1.223   0.099  0.00  0.00    +0.160 C 
BRANCH  20  21
ATOM     21  C   UNL     1       6.516   1.560   1.505  0.00  0.00    -0.028 A 
ATOM     22  C   UNL     1       6.182   2.785   2.053  0.00  0.00    +0.007 A 
ATOM     23  C   UNL     1       6.566   3.092   3.345  0.00  0.00    +0.033 A 
ATOM     24  C   UNL     1       7.293   2.179   4.085  0.00  0.00    +0.126 A 
ATOM     25  C   UNL     1       7.632   0.957   3.536  0.00  0.00    +0.033 A 
ATOM     26  C   UNL     1       7.244   0.647   2.245  0.00  0.00    +0.007 A 
BRANCH  24  27
ATOM     27  N   UNL     1       7.708   2.509   5.467  0.00  0.00    +0.056 N 
ATOM     28  O   UNL     1       8.348   1.705   6.120  0.00  0.00    -0.126 OA
ATOM     29  O   UNL     1       7.409   3.586   5.952  0.00  0.00    -0.126 OA
ENDBRANCH  24  27
ENDBRANCH  20  21
ENDBRANCH   6  20
TORSDOF 6
