REMARK  Name = ZINC46914284
REMARK  9 active torsions:
REMARK  status: ('A' for Active; 'I' for Inactive)
REMARK    1  A    between atoms: C_1  and  S_2
REMARK    2  A    between atoms: S_2  and  C_3
REMARK    3  A    between atoms: C_4  and  C_21
REMARK    4  A    between atoms: C_5  and  N_20
REMARK    5  A    between atoms: N_6  and  C_8
REMARK    6  A    between atoms: C_8  and  C_9
REMARK    7  A    between atoms: N_11  and  C_12
REMARK    8  A    between atoms: C_12  and  C_13
REMARK    9  A    between atoms: C_23  and  C_26
REMARK                            x       y       z     vdW  Elec       q    Type
REMARK                         _______ _______ _______ _____ _____    ______ ____
ROOT
ATOM      1  C   UNL     1      -1.702  -0.454   0.016  0.00  0.00    +0.133 A 
ATOM      2  C   UNL     1      -2.215  -1.776   0.019  0.00  0.00    +0.112 A 
ATOM      3  C   UNL     1      -3.602  -1.674   0.031  0.00  0.00    +0.129 A 
ATOM      4  N   UNL     1      -3.906  -0.360   0.035  0.00  0.00    -0.240 N 
ATOM      5  N   UNL     1      -2.716   0.374   0.030  0.00  0.00    -0.162 NA
ENDROOT
BRANCH   2   6
ATOM      6  C   UNL     1      -1.430  -3.019   0.011  0.00  0.00    +0.265 A 
ATOM      7  N   UNL     1      -0.116  -3.103   0.005  0.00  0.00    -0.187 NA
ATOM      8  C   UNL     1       0.259  -4.391  -0.000  0.00  0.00    +0.202 A 
ATOM      9  N   UNL     1      -0.813  -5.145   0.002  0.00  0.00    -0.056 NA
ATOM     10  O   UNL     1      -1.929  -4.269   0.015  0.00  0.00    -0.332 OA
BRANCH   8  11
ATOM     11  C   UNL     1       1.660  -4.882  -0.009  0.00  0.00    +0.022 A 
ATOM     12  C   UNL     1       2.718  -3.976  -0.006  0.00  0.00    +0.012 A 
ATOM     13  C   UNL     1       4.019  -4.438  -0.014  0.00  0.00    +0.001 A 
ATOM     14  C   UNL     1       4.272  -5.798  -0.025  0.00  0.00    +0.000 A 
ATOM     15  C   UNL     1       3.225  -6.701  -0.028  0.00  0.00    +0.001 A 
ATOM     16  C   UNL     1       1.921  -6.250  -0.014  0.00  0.00    +0.012 A 
ENDBRANCH   8  11
ENDBRANCH   2   6
BRANCH   3  17
ATOM     17  N   UNL     1      -4.502  -2.724   0.038  0.00  0.00    -0.343 N 
ATOM     18  H   UNL     1      -4.179  -3.639   0.035  0.00  0.00    +0.144 HD
ATOM     19  H   UNL     1      -5.455  -2.546   0.046  0.00  0.00    +0.144 HD
ENDBRANCH   3  17
BRANCH   1  21
ATOM     20  C   UNL     1      -0.022   1.810   0.012  0.00  0.00    +0.091 C 
ATOM     21  S   UNL     1       0.002  -0.004   0.002  0.00  0.00    -0.107 S 
ENDBRANCH   1  21
BRANCH   4  22
ATOM     22  C   UNL     1      -5.258   0.204   0.047  0.00  0.00    +0.241 C 
BRANCH  22  23
ATOM     23  C   UNL     1      -5.710   0.397   1.472  0.00  0.00    +0.235 C 
ATOM     24  O   UNL     1      -4.974   0.093   2.387  0.00  0.00    -0.274 OA
ATOM     25  N   UNL     1      -6.931   0.907   1.729  0.00  0.00    -0.310 N 
ATOM     26  H   UNL     1      -7.519   1.150   0.997  0.00  0.00    +0.149 HD
BRANCH  25  27
ATOM     27  C   UNL     1      -7.369   1.094   3.114  0.00  0.00    +0.139 C 
BRANCH  27  28
ATOM     28  C   UNL     1      -8.760   1.674   3.127  0.00  0.00    -0.030 A 
ATOM     29  C   UNL     1      -8.937   3.046   3.123  0.00  0.00    +0.006 A 
ATOM     30  C   UNL     1     -10.212   3.578   3.135  0.00  0.00    +0.020 A 
ATOM     31  C   UNL     1     -11.312   2.739   3.150  0.00  0.00    +0.041 A 
ATOM     32  C   UNL     1     -11.134   1.367   3.153  0.00  0.00    +0.020 A 
ATOM     33  C   UNL     1      -9.859   0.835   3.136  0.00  0.00    +0.006 A 
ATOM     34 CL   UNL     1     -12.914   3.408   3.164  0.00  0.00    -0.084 Cl
ENDBRANCH  27  28
ENDBRANCH  25  27
ENDBRANCH  22  23
ENDBRANCH   4  22
TORSDOF 8
