REMARK  Name = ZINC58981139
REMARK  8 active torsions:
REMARK  status: ('A' for Active; 'I' for Inactive)
REMARK    1  A    between atoms: C_1  and  C_2
REMARK    2  A    between atoms: C_4  and  C_31
REMARK    3  A    between atoms: N_5  and  C_7
REMARK    4  A    between atoms: C_10  and  C_27
REMARK    5  A    between atoms: C_12  and  N_13
REMARK    6  A    between atoms: C_14  and  C_16
REMARK    7  A    between atoms: C_16  and  C_17
REMARK    8  A    between atoms: C_17  and  C_18
REMARK                            x       y       z     vdW  Elec       q    Type
REMARK                         _______ _______ _______ _____ _____    ______ ____
ROOT
ATOM      1  C   UNL     1       0.046  -3.257   1.448  0.00  0.00    +0.087 A 
ATOM      2  C   UNL     1       0.162  -4.524   0.895  0.00  0.00    +0.030 A 
ATOM      3  C   UNL     1       0.180  -5.636   1.715  0.00  0.00    +0.014 A 
ATOM      4  C   UNL     1       0.082  -5.490   3.087  0.00  0.00    +0.057 A 
ATOM      5  C   UNL     1      -0.034  -4.232   3.646  0.00  0.00    +0.037 A 
ATOM      6  C   UNL     1      -0.048  -3.110   2.831  0.00  0.00    +0.060 A 
ENDROOT
BRANCH   1  11
ATOM      7  C   UNL     1       1.127   1.216  -0.406  0.00  0.00    +0.067 C 
ATOM      8  C   UNL     1       0.516  -0.145  -0.193  0.00  0.00    +0.061 A 
ATOM      9  C   UNL     1      -0.467  -0.736  -0.993  0.00  0.00    +0.047 A 
ATOM     10  C   UNL     1      -0.750  -1.954  -0.475  0.00  0.00    +0.042 A 
ATOM     11  N   UNL     1       0.028  -2.127   0.617  0.00  0.00    -0.235 N 
ATOM     12  N   UNL     1       0.817  -0.979   0.770  0.00  0.00    -0.171 NA
ATOM     13  C   UNL     1      -1.752  -2.940  -1.017  0.00  0.00    +0.066 C 
ENDBRANCH   1  11
BRANCH   6  14
ATOM     14  N   UNL     1      -0.160  -1.833   3.395  0.00  0.00    -0.284 N 
ATOM     15  C   UNL     1       0.412  -1.571   4.587  0.00  0.00    +0.218 C 
ATOM     16  O   UNL     1       0.956  -2.460   5.207  0.00  0.00    -0.275 OA
ATOM     17  H   UNL     1      -0.649  -1.138   2.928  0.00  0.00    +0.155 HD
BRANCH  15  18
ATOM     18  C   UNL     1       0.374  -0.173   5.149  0.00  0.00    +0.101 C 
BRANCH  18  19
ATOM     19  C   UNL     1       1.089  -0.148   6.502  0.00  0.00    +0.044 C 
BRANCH  19  20
ATOM     20  C   UNL     1       1.052   1.250   7.064  0.00  0.00    -0.043 A 
ATOM     21  C   UNL     1       2.066   2.140   6.765  0.00  0.00    +0.007 A 
ATOM     22  C   UNL     1       2.036   3.424   7.278  0.00  0.00    +0.050 A 
ATOM     23  C   UNL     1       0.989   3.821   8.093  0.00  0.00    +0.166 A 
ATOM     24  C   UNL     1      -0.033   2.923   8.394  0.00  0.00    +0.166 A 
ATOM     25  C   UNL     1       0.001   1.640   7.872  0.00  0.00    +0.053 A 
ATOM     26  O   UNL     1      -0.936   3.547   9.205  0.00  0.00    -0.453 OA
ATOM     27  C   UNL     1      -0.251   4.700   9.729  0.00  0.00    +0.466 C 
ATOM     28  O   UNL     1       0.726   5.006   8.716  0.00  0.00    -0.453 OA
ENDBRANCH  19  20
ENDBRANCH  18  19
ENDBRANCH  15  18
ENDBRANCH   6  14
BRANCH   4  29
ATOM     29  C   UNL     1       0.101  -6.708   3.975  0.00  0.00    +0.417 C 
ATOM     30  F   UNL     1       0.224  -7.858   3.187  0.00  0.00    -0.166 F 
ATOM     31  F   UNL     1       1.186  -6.627   4.855  0.00  0.00    -0.166 F 
ATOM     32  F   UNL     1      -1.090  -6.770   4.707  0.00  0.00    -0.166 F 
ENDBRANCH   4  29
TORSDOF 6
