REMARK  Name = ZINC32759608
REMARK  7 active torsions:
REMARK  status: ('A' for Active; 'I' for Inactive)
REMARK    1  A    between atoms: C_1  and  C_2
REMARK    2  A    between atoms: C_3  and  C_14
REMARK    3  A    between atoms: C_4  and  C_13
REMARK    4  A    between atoms: N_5  and  C_7
REMARK    5  A    between atoms: N_21  and  C_22
REMARK    6  A    between atoms: C_22  and  C_23
REMARK    7  A    between atoms: C_26  and  C_28
REMARK                            x       y       z     vdW  Elec       q    Type
REMARK                         _______ _______ _______ _____ _____    ______ ____
ROOT
ATOM      1  C   UNL     1       2.323  -0.166   0.704  0.00  0.00    +0.054 C 
ATOM      2  C   UNL     1       0.955  -0.737   0.458  0.00  0.00    +0.204 C 
ATOM      3  O   UNL     1       0.801  -1.936   0.547  0.00  0.00    -0.277 OA
ATOM      4  N   UNL     1      -0.100   0.023   0.144  0.00  0.00    -0.318 N 
ATOM      5  C   UNL     1      -0.028   1.478   0.046  0.00  0.00    +0.085 C 
ATOM      6  C   UNL     1       1.428   1.923  -0.100  0.00  0.00    -0.058 C 
ATOM      7  N   UNL     1       2.228   1.278   0.954  0.00  0.00    +0.395 N 
ATOM      8  H   UNL     1      -1.052  -0.494  -0.045  0.00  0.00    +0.149 HD
ATOM      9  H   UNL     1       1.724   1.431   1.920  0.00  0.00    -0.080 HD
ENDROOT
BRANCH   1  12
ATOM     10  C   UNL     1       1.551   0.358   3.732  0.00  0.00    +0.068 C 
ATOM     11  C   UNL     1       2.596  -0.610   3.241  0.00  0.00    +0.063 A 
ATOM     12  C   UNL     1       2.937  -0.840   1.904  0.00  0.00    -0.009 A 
ATOM     13  C   UNL     1       3.911  -1.779   1.878  0.00  0.00    +0.044 A 
ATOM     14  N   UNL     1       4.183  -2.125   3.157  0.00  0.00    -0.237 N 
ATOM     15  N   UNL     1       3.342  -1.379   3.993  0.00  0.00    -0.171 NA
ATOM     16  C   UNL     1       4.576  -2.337   0.646  0.00  0.00    +0.066 C 
BRANCH  14  17
ATOM     17  C   UNL     1       5.135  -3.067   3.572  0.00  0.00    +0.066 A 
ATOM     18  C   UNL     1       4.832  -3.957   4.594  0.00  0.00    +0.028 A 
ATOM     19  C   UNL     1       5.769  -4.888   4.997  0.00  0.00    +0.002 A 
ATOM     20  C   UNL     1       7.012  -4.927   4.392  0.00  0.00    +0.000 A 
ATOM     21  C   UNL     1       7.318  -4.038   3.377  0.00  0.00    +0.002 A 
ATOM     22  C   UNL     1       6.383  -3.109   2.966  0.00  0.00    +0.028 A 
ENDBRANCH  14  17
ENDBRANCH   1  12
BRANCH   7  23
ATOM     23  C   UNL     1       3.562   1.885   1.049  0.00  0.00    -0.020 C 
BRANCH  23  24
ATOM     24  C   UNL     1       3.431   3.386   1.059  0.00  0.00    +0.033 A 
ATOM     25  C   UNL     1       3.397   4.059   2.240  0.00  0.00    +0.068 A 
ATOM     26  S   UNL     1       3.238   5.742   1.656  0.00  0.00    -0.075 S 
ATOM     27  C   UNL     1       3.234   5.367  -0.092  0.00  0.00    +0.108 A 
ATOM     28  N   UNL     1       3.355   4.047  -0.073  0.00  0.00    -0.246 NA
BRANCH  27  29
ATOM     29  C   UNL     1       3.131   6.283  -1.249  0.00  0.00    +0.007 A 
ATOM     30  C   UNL     1       3.154   5.776  -2.548  0.00  0.00    +0.010 A 
ATOM     31  C   UNL     1       3.053   6.635  -3.623  0.00  0.00    +0.001 A 
ATOM     32  C   UNL     1       2.938   7.998  -3.414  0.00  0.00    +0.000 A 
ATOM     33  C   UNL     1       2.919   8.508  -2.128  0.00  0.00    +0.001 A 
ATOM     34  C   UNL     1       3.015   7.658  -1.045  0.00  0.00    +0.010 A 
ENDBRANCH  27  29
ENDBRANCH  23  24
ENDBRANCH   7  23
TORSDOF 5
