REMARK  Name = ZINC13033224
REMARK  17 active torsions:
REMARK  status: ('A' for Active; 'I' for Inactive)
REMARK    1  A    between atoms: C_1  and  C_2
REMARK    2  A    between atoms: C_7  and  C_15
REMARK    3  A    between atoms: C_13  and  C_14
REMARK    4  A    between atoms: C_15  and  N_71
REMARK    5  A    between atoms: C_16  and  C_17
REMARK    6  A    between atoms: C_16  and  N_71
REMARK    7  A    between atoms: C_17  and  C_18
REMARK    8  A    between atoms: C_21  and  O_26
REMARK    9  A    between atoms: C_22  and  O_24
REMARK   10  A    between atoms: O_24  and  C_25
REMARK   11  A    between atoms: O_26  and  C_27
REMARK   12  A    between atoms: C_28  and  C_29
REMARK   13  A    between atoms: C_28  and  N_71
REMARK   14  A    between atoms: N_33  and  C_34
REMARK   15  A    between atoms: C_34  and  C_35
REMARK   16  A    between atoms: C_35  and  O_36
REMARK   17  A    between atoms: O_36  and  C_37
REMARK                            x       y       z     vdW  Elec       q    Type
REMARK                         _______ _______ _______ _____ _____    ______ ____
ROOT
ATOM      1  N   UNL     1      -1.625  -1.015   2.515  0.00  0.00    +0.387 N 
ATOM      2  H   UNL     1      -1.828  -0.730   3.480  0.00  0.00    -0.081 HD
ENDROOT
BRANCH   1   3
ATOM      3  C   UNL     1      -0.205  -0.730   2.218  0.00  0.00    -0.037 C 
BRANCH   3  10
ATOM      4  C   UNL     1       2.024   5.780   6.252  0.00  0.00    +0.044 C 
ATOM      5  C   UNL     1       1.676   4.431   5.677  0.00  0.00    -0.046 A 
ATOM      6  C   UNL     1       1.918   3.284   6.421  0.00  0.00    +0.004 A 
ATOM      7  C   UNL     1       1.611   2.052   5.919  0.00  0.00    +0.010 A 
ATOM      8  C   UNL     1       1.046   1.944   4.644  0.00  0.00    -0.001 A 
ATOM      9  C   UNL     1       0.699   0.639   4.076  0.00  0.00    +0.017 A 
ATOM     10  C   UNL     1       0.159   0.596   2.833  0.00  0.00    +0.001 A 
ATOM     11  C   UNL     1      -0.068   1.790   2.115  0.00  0.00    +0.251 A 
ATOM     12  O   UNL     1      -0.558   1.729   1.001  0.00  0.00    -0.268 OA
ATOM     13  N   UNL     1       0.243   2.993   2.630  0.00  0.00    -0.322 N 
ATOM     14  H   UNL     1       0.073   3.794   2.109  0.00  0.00    +0.169 HD
ATOM     15  C   UNL     1       0.799   3.104   3.886  0.00  0.00    +0.052 A 
ATOM     16  C   UNL     1       1.121   4.349   4.419  0.00  0.00    -0.024 A 
ATOM     17  C   UNL     1       0.864   5.602   3.622  0.00  0.00    +0.046 C 
ENDBRANCH   3  10
ENDBRANCH   1   3
BRANCH   1  18
ATOM     18  C   UNL     1      -1.889  -2.463   2.376  0.00  0.00    -0.073 C 
BRANCH  18  19
ATOM     19  C   UNL     1      -3.169  -2.803   3.143  0.00  0.00    +0.017 C 
BRANCH  19  20
ATOM     20  C   UNL     1      -3.366  -4.296   3.153  0.00  0.00    -0.045 A 
ATOM     21  C   UNL     1      -4.016  -4.914   2.100  0.00  0.00    +0.007 A 
ATOM     22  C   UNL     1      -4.195  -6.284   2.103  0.00  0.00    +0.049 A 
ATOM     23  C   UNL     1      -3.732  -7.042   3.167  0.00  0.00    +0.161 A 
ATOM     24  C   UNL     1      -3.083  -6.420   4.229  0.00  0.00    +0.162 A 
ATOM     25  C   UNL     1      -2.902  -5.046   4.218  0.00  0.00    +0.053 A 
BRANCH  24  26
ATOM     26  O   UNL     1      -2.627  -7.159   5.276  0.00  0.00    -0.491 OA
ATOM     27  C   UNL     1      -1.970  -6.453   6.331  0.00  0.00    +0.277 C 
ENDBRANCH  24  26
BRANCH  23  28
ATOM     28  O   UNL     1      -3.912  -8.390   3.173  0.00  0.00    -0.491 OA
ATOM     29  C   UNL     1      -4.586  -8.960   2.049  0.00  0.00    +0.277 C 
ENDBRANCH  23  28
ENDBRANCH  19  20
ENDBRANCH  18  19
ENDBRANCH   1  18
BRANCH   1  30
ATOM     30  C   UNL     1      -2.495  -0.252   1.596  0.00  0.00    +0.001 C 
BRANCH  30  31
ATOM     31  C   UNL     1      -2.213  -0.630   0.164  0.00  0.00    +0.135 A 
ATOM     32  N   UNL     1      -1.246  -0.168  -0.591  0.00  0.00    -0.115 NA
ATOM     33  N   UNL     1      -1.339  -0.733  -1.745  0.00  0.00    -0.023 NA
ATOM     34  N   UNL     1      -2.336  -1.546  -1.744  0.00  0.00    -0.044 NA
ATOM     35  N   UNL     1      -2.904  -1.507  -0.587  0.00  0.00    -0.229 N 
BRANCH  35  36
ATOM     36  C   UNL     1      -4.077  -2.277  -0.166  0.00  0.00    +0.175 C 
BRANCH  36  37
ATOM     37  C   UNL     1      -5.338  -1.431  -0.357  0.00  0.00    +0.183 C 
BRANCH  37  38
ATOM     38  O   UNL     1      -6.482  -2.183   0.053  0.00  0.00    -0.381 OA
ATOM     39  C   UNL     1      -7.719  -1.480  -0.085  0.00  0.00    +0.194 C 
ENDBRANCH  37  38
ENDBRANCH  36  37
ENDBRANCH  35  36
ENDBRANCH  30  31
ENDBRANCH   1  30
TORSDOF 12
