REMARK  Name = ZINC23125435
REMARK  4 active torsions:
REMARK  status: ('A' for Active; 'I' for Inactive)
REMARK    1  A    between atoms: C_1  and  C_2
REMARK    2  A    between atoms: C_5  and  C_8
REMARK    3  A    between atoms: C_10  and  C_13
REMARK    4  A    between atoms: C_18  and  C_19
REMARK                            x       y       z     vdW  Elec       q    Type
REMARK                         _______ _______ _______ _____ _____    ______ ____
ROOT
ATOM      1  C   UNL     1       1.962  -3.919  -0.038  0.00  0.00    +0.202 A 
ATOM      2  N   UNL     1       1.081  -2.897  -0.019  0.00  0.00    -0.187 NA
ATOM      3  C   UNL     1       1.815  -1.798  -0.025  0.00  0.00    +0.262 A 
ATOM      4  O   UNL     1       3.100  -2.189  -0.038  0.00  0.00    -0.332 OA
ATOM      5  N   UNL     1       3.163  -3.400  -0.046  0.00  0.00    -0.056 NA
ENDROOT
BRANCH   1  10
ATOM      6  C   UNL     1       0.673  -9.533  -0.058  0.00  0.00    +0.044 C 
ATOM      7  C   UNL     1       1.010  -8.064  -0.053  0.00  0.00    -0.050 A 
ATOM      8  C   UNL     1       2.333  -7.661  -0.062  0.00  0.00    +0.004 A 
ATOM      9  C   UNL     1       2.648  -6.317  -0.057  0.00  0.00    +0.012 A 
ATOM     10  C   UNL     1       1.630  -5.366  -0.043  0.00  0.00    +0.022 A 
ATOM     11  C   UNL     1       0.299  -5.777  -0.029  0.00  0.00    +0.012 A 
ATOM     12  C   UNL     1      -0.004  -7.124  -0.039  0.00  0.00    +0.004 A 
ENDBRANCH   1  10
BRANCH   3  13
ATOM     13  C   UNL     1       1.319  -0.409  -0.013  0.00  0.00    +0.084 A 
ATOM     14  C   UNL     1       0.002  -0.004   0.002  0.00  0.00    +0.118 A 
ATOM     15  N   UNL     1      -0.016   1.340   0.009  0.00  0.00    -0.283 N 
ATOM     16  H   UNL     1      -0.976   1.877   0.021  0.00  0.00    +0.188 HD
ATOM     17  N   UNL     1       1.294   1.827  -0.001  0.00  0.00    -0.173 NA
ATOM     18  C   UNL     1       2.129   0.811  -0.014  0.00  0.00    +0.105 A 
BRANCH  18  19
ATOM     19  C   UNL     1       3.610   0.888  -0.027  0.00  0.00    +0.003 A 
ATOM     20  C   UNL     1       4.365  -0.063   0.657  0.00  0.00    +0.010 A 
ATOM     21  C   UNL     1       5.743   0.010   0.637  0.00  0.00    +0.001 A 
ATOM     22  C   UNL     1       6.375   1.030  -0.052  0.00  0.00    +0.000 A 
ATOM     23  C   UNL     1       5.630   1.979  -0.728  0.00  0.00    +0.001 A 
ATOM     24  C   UNL     1       4.251   1.913  -0.719  0.00  0.00    +0.010 A 
ENDBRANCH  18  19
ENDBRANCH   3  13
TORSDOF 3
