REMARK  Name = ZINC13502060
REMARK  11 active torsions:
REMARK  status: ('A' for Active; 'I' for Inactive)
REMARK    1  A    between atoms: C_1  and  C_2
REMARK    2  A    between atoms: C_7  and  C_8
REMARK    3  A    between atoms: N_10  and  C_11
REMARK    4  A    between atoms: C_14  and  O_33
REMARK    5  A    between atoms: C_15  and  N_17
REMARK    6  A    between atoms: C_18  and  C_20
REMARK    7  A    between atoms: C_20  and  S_21
REMARK    8  A    between atoms: S_21  and  C_22
REMARK    9  A    between atoms: C_25  and  C_28
REMARK   10  A    between atoms: N_26  and  C_27
REMARK   11  A    between atoms: O_33  and  C_34
REMARK                            x       y       z     vdW  Elec       q    Type
REMARK                         _______ _______ _______ _____ _____    ______ ____
ROOT
ATOM      1  C   UNL     1       6.316  14.343   1.751  0.00  0.00    +0.036 A 
ATOM      2  C   UNL     1       5.950  15.679   1.853  0.00  0.00    +0.027 A 
ATOM      3  C   UNL     1       4.618  16.040   1.786  0.00  0.00    +0.049 A 
ATOM      4  C   UNL     1       3.643  15.071   1.611  0.00  0.00    +0.141 A 
ATOM      5  C   UNL     1       4.006  13.729   1.514  0.00  0.00    +0.077 A 
ATOM      6  C   UNL     1       5.343  13.368   1.582  0.00  0.00    +0.050 A 
ENDROOT
BRANCH   1   9
ATOM      7  C   UNL     1       8.614  14.821   1.359  0.00  0.00    +0.249 C 
ATOM      8  O   UNL     1       8.293  15.843   0.784  0.00  0.00    -0.270 OA
ATOM      9  N   UNL     1       7.666  13.980   1.819  0.00  0.00    -0.281 N 
ATOM     10  H   UNL     1       7.920  13.124   2.197  0.00  0.00    +0.155 HD
BRANCH   7  17
ATOM     11  C   UNL     1      10.634  16.684   0.453  0.00  0.00    +0.044 C 
ATOM     12  C   UNL     1      11.027  15.392   1.122  0.00  0.00    -0.038 A 
ATOM     13  C   UNL     1      12.360  15.087   1.308  0.00  0.00    +0.004 A 
ATOM     14  C   UNL     1      12.723  13.902   1.921  0.00  0.00    +0.000 A 
ATOM     15  C   UNL     1      11.753  13.014   2.353  0.00  0.00    +0.001 A 
ATOM     16  C   UNL     1      10.417  13.309   2.179  0.00  0.00    +0.013 A 
ATOM     17  C   UNL     1      10.044  14.501   1.555  0.00  0.00    +0.040 A 
ENDBRANCH   7  17
ENDBRANCH   1   9
BRANCH   5  18
ATOM     18  N   UNL     1       3.022  12.747   1.343  0.00  0.00    -0.282 N 
ATOM     19  C   UNL     1       3.190  11.523   1.881  0.00  0.00    +0.228 C 
ATOM     20  O   UNL     1       4.230  11.243   2.438  0.00  0.00    -0.275 OA
ATOM     21  H   UNL     1       2.219  12.948   0.837  0.00  0.00    +0.155 HD
BRANCH  19  22
ATOM     22  C   UNL     1       2.085  10.502   1.790  0.00  0.00    +0.173 C 
BRANCH  22  23
ATOM     23  S   UNL     1       2.611   8.971   2.600  0.00  0.00    -0.077 S 
BRANCH  23  24
ATOM     24  C   UNL     1       1.173   7.984   2.352  0.00  0.00    +0.192 A 
ATOM     25  N   UNL     1       0.073   8.351   1.736  0.00  0.00    -0.122 NA
ATOM     26  N   UNL     1      -0.775   7.386   1.729  0.00  0.00    -0.128 NA
ATOM     27  C   UNL     1      -0.271   6.342   2.350  0.00  0.00    +0.171 A 
ATOM     28  N   UNL     1       0.995   6.693   2.766  0.00  0.00    -0.305 N 
ATOM     29  C   UNL     1       1.950   5.857   3.497  0.00  0.00    +0.153 C 
BRANCH  27  30
ATOM     30  C   UNL     1      -0.931   5.043   2.557  0.00  0.00    +0.056 A 
ATOM     31  C   UNL     1      -2.257   4.716   2.424  0.00  0.00    +0.019 A 
ATOM     32  C   UNL     1      -2.645   3.418   2.668  0.00  0.00    +0.008 A 
ATOM     33  C   UNL     1      -1.710   2.506   3.041  0.00  0.00    +0.046 A 
ATOM     34  S   UNL     1      -0.215   3.482   3.045  0.00  0.00    -0.094 S 
ENDBRANCH  27  30
ENDBRANCH  23  24
ENDBRANCH  22  23
ENDBRANCH  19  22
ENDBRANCH   5  18
BRANCH   4  35
ATOM     35  O   UNL     1       2.333  15.428   1.540  0.00  0.00    -0.493 OA
ATOM     36  C   UNL     1       2.034  16.822   1.647  0.00  0.00    +0.277 C 
ENDBRANCH   4  35
TORSDOF 8
