REMARK  Name = ZINC38604769
REMARK  10 active torsions:
REMARK  status: ('A' for Active; 'I' for Inactive)
REMARK    1  A    between atoms: C_1  and  C_2
REMARK    2  A    between atoms: C_7  and  C_34
REMARK    3  A    between atoms: C_9  and  N_12
REMARK    4  A    between atoms: C_13  and  C_15
REMARK    5  A    between atoms: C_15  and  C_17
REMARK    6  A    between atoms: C_15  and  N_18
REMARK    7  A    between atoms: N_21  and  C_24
REMARK    8  A    between atoms: C_24  and  C_25
REMARK    9  A    between atoms: C_34  and  O_36
REMARK   10  A    between atoms: O_36  and  C_37
REMARK                            x       y       z     vdW  Elec       q    Type
REMARK                         _______ _______ _______ _____ _____    ______ ____
ROOT
ATOM      1  N   UNL     1       0.072  -3.538   2.935  0.00  0.00    -0.288 N 
ATOM      2  C   UNL     1      -0.771  -2.902   3.774  0.00  0.00    +0.203 C 
ATOM      3  O   UNL     1      -1.464  -1.996   3.364  0.00  0.00    -0.277 OA
ATOM      4  H   UNL     1       0.605  -4.282   3.255  0.00  0.00    +0.155 HD
ENDROOT
BRANCH   1  12
ATOM      5  C   UNL     1       3.763  -6.027  -0.372  0.00  0.00    +0.044 C 
ATOM      6  C   UNL     1       2.722  -4.939  -0.417  0.00  0.00    -0.050 A 
ATOM      7  C   UNL     1       2.509  -4.249  -1.613  0.00  0.00    +0.005 A 
ATOM      8  C   UNL     1       1.587  -3.261  -1.716  0.00  0.00    +0.026 A 
ATOM      9  C   UNL     1       0.805  -2.905  -0.586  0.00  0.00    +0.045 A 
ATOM     10  N   UNL     1      -0.137  -1.998  -0.428  0.00  0.00    -0.367 N 
ATOM     11  C   UNL     1      -0.622  -2.045   0.955  0.00  0.00    +0.234 C 
ATOM     12  C   UNL     1       0.176  -3.134   1.639  0.00  0.00    +0.053 C 
ATOM     13  C   UNL     1       1.033  -3.634   0.673  0.00  0.00    +0.018 A 
ATOM     14  C   UNL     1       2.010  -4.657   0.702  0.00  0.00    +0.015 A 
ATOM     15  H   UNL     1      -0.459  -1.395  -1.117  0.00  0.00    +0.161 HD
BRANCH  11  16
ATOM     16  C   UNL     1      -2.090  -2.382   0.979  0.00  0.00    +0.335 C 
ATOM     17  O   UNL     1      -2.526  -3.238   0.246  0.00  0.00    -0.248 OA
BRANCH  16  18
ATOM     18  O   UNL     1      -2.914  -1.731   1.815  0.00  0.00    -0.466 OA
ATOM     19  C   UNL     1      -4.294  -2.102   1.786  0.00  0.00    +0.280 C 
ENDBRANCH  16  18
ENDBRANCH  11  16
ENDBRANCH   1  12
BRANCH   2  20
ATOM     20  C   UNL     1      -0.851  -3.318   5.220  0.00  0.00    +0.016 C 
ATOM     21  C   UNL     1      -1.885  -4.435   5.373  0.00  0.00    -0.004 C 
BRANCH  20  22
ATOM     22  N   UNL     1      -1.249  -2.166   6.040  0.00  0.00    +0.389 N 
ATOM     23  C   UNL     1      -0.263  -1.089   5.883  0.00  0.00    -0.062 C 
ATOM     24  C   UNL     1      -0.688   0.118   6.722  0.00  0.00    +0.066 C 
ATOM     25  N   UNL     1      -0.784  -0.280   8.133  0.00  0.00    -0.302 NA
ATOM     26  C   UNL     1      -1.750  -1.374   8.302  0.00  0.00    +0.066 C 
ATOM     27  C   UNL     1      -1.317  -2.569   7.450  0.00  0.00    -0.062 C 
ATOM     28  H   UNL     1      -2.155  -1.838   5.740  0.00  0.00    -0.081 HD
BRANCH  25  29
ATOM     29  C   UNL     1      -1.136   0.868   8.980  0.00  0.00    +0.119 C 
BRANCH  29  30
ATOM     30  C   UNL     1      -0.986   0.486  10.431  0.00  0.00    -0.030 A 
ATOM     31  C   UNL     1      -2.057  -0.059  11.114  0.00  0.00    +0.009 A 
ATOM     32  C   UNL     1      -1.925  -0.411  12.444  0.00  0.00    +0.050 A 
ATOM     33  C   UNL     1      -0.718  -0.218  13.096  0.00  0.00    +0.166 A 
ATOM     34  C   UNL     1       0.361   0.331  12.407  0.00  0.00    +0.167 A 
ATOM     35  C   UNL     1       0.223   0.676  11.073  0.00  0.00    +0.054 A 
ATOM     36  O   UNL     1       1.424   0.418  13.260  0.00  0.00    -0.453 OA
ATOM     37  C   UNL     1       0.867   0.298  14.582  0.00  0.00    +0.466 C 
ATOM     38  O   UNL     1      -0.331  -0.475  14.380  0.00  0.00    -0.453 OA
ENDBRANCH  29  30
ENDBRANCH  25  29
ENDBRANCH  20  22
ENDBRANCH   2  20
TORSDOF 7
