REMARK  Name = ZINC02740425
REMARK  5 active torsions:
REMARK  status: ('A' for Active; 'I' for Inactive)
REMARK    1  A    between atoms: C_1  and  C_2
REMARK    2  A    between atoms: C_2  and  S_3
REMARK    3  A    between atoms: S_3  and  C_4
REMARK    4  A    between atoms: C_17  and  C_20
REMARK    5  A    between atoms: C_21  and  C_25
REMARK                            x       y       z     vdW  Elec       q    Type
REMARK                         _______ _______ _______ _____ _____    ______ ____
ROOT
ATOM      1  C   UNL     1      -3.965   0.490  -1.954  0.00  0.00    +0.212 A 
ATOM      2  N   UNL     1      -2.636   0.550  -1.954  0.00  0.00    -0.184 NA
ATOM      3  C   UNL     1      -2.030   1.443  -1.190  0.00  0.00    +0.248 A 
ATOM      4  C   UNL     1      -2.819   2.302  -0.392  0.00  0.00    +0.156 A 
ATOM      5  N   UNL     1      -4.138   2.192  -0.441  0.00  0.00    -0.141 NA
ATOM      6  N   UNL     1      -4.688   1.310  -1.202  0.00  0.00    -0.122 NA
ATOM      7  C   UNL     1      -2.160   3.295   0.482  0.00  0.00    +0.028 A 
ATOM      8  C   UNL     1      -2.570   4.623   0.511  0.00  0.00    +0.012 A 
ATOM      9  C   UNL     1      -1.937   5.517   1.352  0.00  0.00    +0.001 A 
ATOM     10  C   UNL     1      -0.898   5.099   2.166  0.00  0.00    +0.002 A 
ATOM     11  C   UNL     1      -0.477   3.782   2.143  0.00  0.00    +0.024 A 
ATOM     12  C   UNL     1      -1.096   2.876   1.302  0.00  0.00    +0.039 A 
ATOM     13  N   UNL     1      -0.674   1.546   1.225  0.00  0.00    -0.305 N 
ATOM     14  C   UNL     1      -0.013   1.086   0.008  0.00  0.00    +0.301 C 
ATOM     15  O   UNL     1      -0.680   1.547  -1.161  0.00  0.00    -0.448 OA
ATOM     16  H   UNL     1      -0.818   0.939   1.969  0.00  0.00    +0.150 HD
ENDROOT
BRANCH  14  17
ATOM     17  C   UNL     1       1.405   1.596  -0.003  0.00  0.00    +0.051 A 
ATOM     18  C   UNL     1       2.199   1.890  -1.062  0.00  0.00    -0.035 A 
ATOM     19  C   UNL     1       3.481   2.350  -0.831  0.00  0.00    +0.011 A 
ATOM     20  C   UNL     1       3.908   2.493   0.448  0.00  0.00    +0.046 A 
ATOM     21  S   UNL     1       2.474   1.976   1.376  0.00  0.00    -0.096 S 
ATOM     22  C   UNL     1       1.690   1.718  -2.470  0.00  0.00    +0.045 C 
ENDBRANCH  14  17
BRANCH   1  23
ATOM     23  S   UNL     1      -4.779  -0.699  -2.969  0.00  0.00    -0.085 S 
BRANCH  23  25
ATOM     24  C   UNL     1      -7.424  -1.259  -3.358  0.00  0.00    +0.016 C 
ATOM     25  C   UNL     1      -6.504  -0.324  -2.571  0.00  0.00    +0.074 C 
ENDBRANCH  23  25
ENDBRANCH   1  23
TORSDOF 3
