REMARK  Name = ZINC39694341
REMARK  9 active torsions:
REMARK  status: ('A' for Active; 'I' for Inactive)
REMARK    1  A    between atoms: C_1  and  C_2
REMARK    2  A    between atoms: C_3  and  C_12
REMARK    3  A    between atoms: C_7  and  O_8
REMARK    4  A    between atoms: O_8  and  C_9
REMARK    5  A    between atoms: C_9  and  C_11
REMARK    6  A    between atoms: C_16  and  C_25
REMARK    7  A    between atoms: N_27  and  C_28
REMARK    8  A    between atoms: C_28  and  C_29
REMARK    9  A    between atoms: C_34  and  N_35
REMARK                            x       y       z     vdW  Elec       q    Type
REMARK                         _______ _______ _______ _____ _____    ______ ____
ROOT
ATOM      1  C   UNL     1       0.010  -0.449  -2.087  0.00  0.00    +0.247 C 
ATOM      2  O   UNL     1      -0.013   0.761  -2.193  0.00  0.00    -0.270 OA
ATOM      3  N   UNL     1       0.128  -1.221  -3.186  0.00  0.00    -0.296 N 
ATOM      4  C   UNL     1       0.068  -2.699  -3.268  0.00  0.00    +0.121 C 
ATOM      5  C   UNL     1      -0.720  -2.985  -4.566  0.00  0.00    +0.100 C 
ATOM      6  C   UNL     1      -0.531  -1.724  -5.426  0.00  0.00    -0.004 C 
ATOM      7  C   UNL     1       0.341  -0.781  -4.585  0.00  0.00    +0.115 C 
ATOM      8  C   UNL     1      -1.881  -1.072  -5.711  0.00  0.00    -0.010 C 
ATOM      9  C   UNL     1      -1.672   0.147  -6.614  0.00  0.00    -0.082 C 
ATOM     10  N   UNL     1      -1.036  -0.275  -7.868  0.00  0.00    +0.379 N 
ATOM     11  C   UNL     1       0.300  -0.817  -7.594  0.00  0.00    -0.082 C 
ATOM     12  C   UNL     1       0.176  -2.076  -6.732  0.00  0.00    -0.010 C 
ATOM     13  H   UNL     1      -1.601  -0.985  -8.309  0.00  0.00    -0.086 HD
ATOM     14  H   UNL     1      -0.955   0.519  -8.486  0.00  0.00    -0.086 HD
ENDROOT
BRANCH   1  17
ATOM     15  C   UNL     1      -1.702   0.735  -0.077  0.00  0.00    +0.048 C 
ATOM     16  C   UNL     1      -0.914  -0.514   0.225  0.00  0.00    +0.004 A 
ATOM     17  C   UNL     1      -0.091  -1.076  -0.751  0.00  0.00    +0.043 A 
ATOM     18  C   UNL     1       0.636  -2.232  -0.463  0.00  0.00    +0.013 A 
ATOM     19  C   UNL     1       0.539  -2.814   0.784  0.00  0.00    +0.004 A 
ATOM     20  C   UNL     1      -0.277  -2.256   1.751  0.00  0.00    +0.047 A 
ATOM     21  C   UNL     1      -1.000  -1.103   1.475  0.00  0.00    +0.135 A 
BRANCH  21  22
ATOM     22  O   UNL     1      -1.796  -0.556   2.431  0.00  0.00    -0.426 OA
BRANCH  22  23
ATOM     23  C   UNL     1      -1.339   0.520   3.092  0.00  0.00    +0.309 C 
ATOM     24  O   UNL     1      -0.214   0.915   2.898  0.00  0.00    -0.251 OA
ATOM     25  C   UNL     1      -2.230   1.235   4.075  0.00  0.00    +0.136 C 
ENDBRANCH  22  23
ENDBRANCH  21  22
ENDBRANCH   1  17
BRANCH   5  26
ATOM     26  C   UNL     1      -2.180  -3.199  -4.258  0.00  0.00    +0.218 C 
ATOM     27  O   UNL     1      -2.706  -2.581  -3.356  0.00  0.00    -0.275 OA
ATOM     28  N   UNL     1      -2.901  -4.076  -4.984  0.00  0.00    -0.311 N 
ATOM     29  H   UNL     1      -2.465  -4.623  -5.656  0.00  0.00    +0.149 HD
BRANCH  28  30
ATOM     30  C   UNL     1      -4.342  -4.204  -4.758  0.00  0.00    +0.141 C 
BRANCH  30  31
ATOM     31  C   UNL     1      -4.886  -5.327  -5.603  0.00  0.00    -0.009 A 
ATOM     32  C   UNL     1      -5.552  -5.047  -6.780  0.00  0.00    +0.007 A 
ATOM     33  C   UNL     1      -6.051  -6.077  -7.555  0.00  0.00    +0.000 A 
ATOM     34  C   UNL     1      -5.885  -7.391  -7.156  0.00  0.00    +0.002 A 
ATOM     35  C   UNL     1      -5.219  -7.678  -5.981  0.00  0.00    +0.023 A 
ATOM     36  C   UNL     1      -4.712  -6.646  -5.202  0.00  0.00    +0.035 A 
BRANCH  36  37
ATOM     37  N   UNL     1      -4.034  -6.933  -4.015  0.00  0.00    -0.325 N 
ATOM     38  C   UNL     1      -4.766  -7.145  -2.756  0.00  0.00    +0.133 C 
ATOM     39  C   UNL     1      -4.276  -8.454  -2.127  0.00  0.00    +0.178 C 
ATOM     40  O   UNL     1      -2.850  -8.428  -2.035  0.00  0.00    -0.377 OA
ATOM     41  C   UNL     1      -2.183  -8.347  -3.298  0.00  0.00    +0.178 C 
ATOM     42  C   UNL     1      -2.566  -7.038  -3.988  0.00  0.00    +0.133 C 
ENDBRANCH  36  37
ENDBRANCH  30  31
ENDBRANCH  28  30
ENDBRANCH   5  26
TORSDOF 7
