REMARK  Name = ZINC24829994
REMARK  10 active torsions:
REMARK  status: ('A' for Active; 'I' for Inactive)
REMARK    1  A    between atoms: C_1  and  C_2
REMARK    2  A    between atoms: C_7  and  N_8
REMARK    3  A    between atoms: C_11  and  C_16
REMARK    4  A    between atoms: C_16  and  N_17
REMARK    5  A    between atoms: N_17  and  C_18
REMARK    6  A    between atoms: N_17  and  C_19
REMARK    7  A    between atoms: C_19  and  C_20
REMARK    8  A    between atoms: C_21  and  C_34
REMARK    9  A    between atoms: N_23  and  C_26
REMARK   10  A    between atoms: C_24  and  C_25
REMARK                            x       y       z     vdW  Elec       q    Type
REMARK                         _______ _______ _______ _____ _____    ______ ____
ROOT
ATOM      1  C   UNL     1      -5.373  -4.558  -0.224  0.00  0.00    -0.001 C 
ENDROOT
BRANCH   1   5
ATOM      2  N   UNL     1      -4.039  -9.164  -0.383  0.00  0.00    -0.283 N 
ATOM      3  C   UNL     1      -4.611  -8.119   0.315  0.00  0.00    +0.224 A 
ATOM      4  N   UNL     1      -4.717  -6.918  -0.250  0.00  0.00    -0.201 NA
ATOM      5  C   UNL     1      -5.260  -5.917   0.419  0.00  0.00    +0.120 A 
ATOM      6  N   UNL     1      -5.708  -6.104   1.648  0.00  0.00    -0.202 NA
ATOM      7  C   UNL     1      -5.610  -7.303   2.218  0.00  0.00    +0.217 A 
ATOM      8  N   UNL     1      -5.061  -8.311   1.551  0.00  0.00    -0.181 NA
ATOM      9  N   UNL     1      -6.079  -7.497   3.501  0.00  0.00    -0.327 N 
ATOM     10  H   UNL     1      -3.756  -9.031  -1.438  0.00  0.00    +0.155 HD
ATOM     11  H   UNL     1      -5.998  -8.488   3.972  0.00  0.00    +0.145 HD
ATOM     12  H   UNL     1      -6.535  -6.662   4.053  0.00  0.00    +0.145 HD
BRANCH   2  19
ATOM     13  C   UNL     1      -3.892 -11.502  -1.999  0.00  0.00    +0.045 C 
ATOM     14  C   UNL     1      -3.743 -11.558  -0.500  0.00  0.00    -0.029 A 
ATOM     15  C   UNL     1      -3.527 -12.769   0.129  0.00  0.00    +0.005 A 
ATOM     16  C   UNL     1      -3.389 -12.821   1.503  0.00  0.00    +0.000 A 
ATOM     17  C   UNL     1      -3.467 -11.662   2.253  0.00  0.00    +0.002 A 
ATOM     18  C   UNL     1      -3.677 -10.447   1.631  0.00  0.00    +0.023 A 
ATOM     19  C   UNL     1      -3.821 -10.392   0.250  0.00  0.00    +0.036 A 
ENDBRANCH   2  19
ENDBRANCH   1   5
BRANCH   1  20
ATOM     20  N   UNL     1      -4.167  -3.774   0.074  0.00  0.00    +0.385 N 
ATOM     21  C   UNL     1      -2.984  -4.365  -0.566  0.00  0.00    -0.095 C 
ATOM     22  H   UNL     1      -4.010  -3.795   1.162  0.00  0.00    -0.081 HD
BRANCH  20  23
ATOM     23  C   UNL     1      -4.339  -2.372  -0.330  0.00  0.00    -0.039 C 
BRANCH  23  24
ATOM     24  C   UNL     1      -3.194  -1.551   0.206  0.00  0.00    -0.021 A 
ATOM     25  C   UNL     1      -3.156  -0.902   1.445  0.00  0.00    +0.062 A 
ATOM     26  N   UNL     1      -1.999  -0.300   1.555  0.00  0.00    -0.176 NA
ATOM     27  N   UNL     1      -1.268  -0.539   0.385  0.00  0.00    -0.263 N 
ATOM     28  C   UNL     1      -2.021  -1.312  -0.425  0.00  0.00    +0.038 A 
ATOM     29  C   UNL     1      -1.628  -1.817  -1.790  0.00  0.00    +0.065 C 
ATOM     30  C   UNL     1      -4.254  -0.903   2.477  0.00  0.00    +0.068 C 
BRANCH  27  31
ATOM     31  C   UNL     1       0.080  -0.043   0.094  0.00  0.00    +0.130 C 
ATOM     32  C   UNL     1       0.072   1.495   0.112  0.00  0.00    +0.051 C 
ATOM     33  C   UNL     1       1.548   1.986   0.117  0.00  0.00    +0.168 C 
ATOM     34  S   UNL     1       2.302   0.777   1.285  0.00  0.00    -0.029 S 
ATOM     35  O   UNL     1       2.265   1.318   2.598  0.00  0.00    -0.174 OA
ATOM     36  O   UNL     1       3.537   0.324   0.749  0.00  0.00    -0.174 OA
ATOM     37  C   UNL     1       1.064  -0.578   1.161  0.00  0.00    +0.192 C 
ENDBRANCH  27  31
ENDBRANCH  23  24
ENDBRANCH  20  23
ENDBRANCH   1  20
TORSDOF 6
