REMARK  Name = ZINC16513843
REMARK  8 active torsions:
REMARK  status: ('A' for Active; 'I' for Inactive)
REMARK    1  A    between atoms: C_1  and  N_49
REMARK    2  A    between atoms: C_2  and  C_3
REMARK    3  A    between atoms: C_2  and  N_49
REMARK    4  A    between atoms: N_5  and  C_6
REMARK    5  A    between atoms: C_9  and  N_13
REMARK    6  A    between atoms: C_16  and  C_17
REMARK    7  A    between atoms: C_16  and  C_23
REMARK    8  A    between atoms: C_16  and  N_49
REMARK                            x       y       z     vdW  Elec       q    Type
REMARK                         _______ _______ _______ _____ _____    ______ ____
ROOT
ATOM      1  C   UNL     1      -4.961   0.380   0.967  0.00  0.00    -0.094 C 
ATOM      2  N   UNL     1      -4.804   1.140  -0.291  0.00  0.00    +0.391 N 
ATOM      3  H   UNL     1      -4.577   0.486  -1.050  0.00  0.00    -0.080 HD
ENDROOT
BRANCH   2   4
ATOM      4  C   UNL     1      -3.705   2.119  -0.156  0.00  0.00    +0.020 C 
BRANCH   4   5
ATOM      5  C   UNL     1      -2.401   1.372  -0.041  0.00  0.00    +0.201 C 
ATOM      6  O   UNL     1      -2.393   0.160  -0.053  0.00  0.00    -0.278 OA
ATOM      7  N   UNL     1      -1.243   2.053   0.075  0.00  0.00    -0.286 N 
ATOM      8  H   UNL     1      -1.255   3.018   0.166  0.00  0.00    +0.155 HD
BRANCH   7   9
ATOM      9  C   UNL     1      -0.024   1.365   0.064  0.00  0.00    +0.048 A 
ATOM     10  C   UNL     1       0.072   0.127  -0.556  0.00  0.00    +0.026 A 
ATOM     11  C   UNL     1       1.278  -0.546  -0.571  0.00  0.00    +0.034 A 
ATOM     12  C   UNL     1       2.390   0.012   0.032  0.00  0.00    +0.127 A 
ATOM     13  C   UNL     1       2.300   1.245   0.650  0.00  0.00    +0.049 A 
ATOM     14  C   UNL     1       1.096   1.924   0.669  0.00  0.00    +0.041 A 
ATOM     15 BR   UNL     1       0.972   3.610   1.515  0.00  0.00    -0.048 Br
BRANCH  12  16
ATOM     16  N   UNL     1       3.681  -0.712   0.014  0.00  0.00    +0.056 N 
ATOM     17  O   UNL     1       3.763  -1.798  -0.531  0.00  0.00    -0.126 OA
ATOM     18  O   UNL     1       4.662  -0.222   0.544  0.00  0.00    -0.126 OA
ENDBRANCH  12  16
ENDBRANCH   7   9
ENDBRANCH   4   5
ENDBRANCH   2   4
BRANCH   2  19
ATOM     19  C   UNL     1      -6.064   1.838  -0.620  0.00  0.00    -0.007 C 
BRANCH  19  20
ATOM     20  C   UNL     1      -5.865   2.644  -1.878  0.00  0.00    -0.057 A 
ATOM     21  C   UNL     1      -5.196   2.091  -2.954  0.00  0.00    +0.002 A 
ATOM     22  C   UNL     1      -5.017   2.829  -4.109  0.00  0.00    +0.000 A 
ATOM     23  C   UNL     1      -5.498   4.122  -4.185  0.00  0.00    +0.000 A 
ATOM     24  C   UNL     1      -6.162   4.677  -3.107  0.00  0.00    +0.000 A 
ATOM     25  C   UNL     1      -6.345   3.938  -1.953  0.00  0.00    +0.002 A 
ENDBRANCH  19  20
BRANCH  19  26
ATOM     26  C   UNL     1      -7.146   0.813  -0.846  0.00  0.00    -0.057 A 
ATOM     27  C   UNL     1      -6.835  -0.401  -1.429  0.00  0.00    +0.002 A 
ATOM     28  C   UNL     1      -7.826  -1.343  -1.633  0.00  0.00    +0.000 A 
ATOM     29  C   UNL     1      -9.129  -1.067  -1.262  0.00  0.00    +0.000 A 
ATOM     30  C   UNL     1      -9.440   0.149  -0.684  0.00  0.00    +0.000 A 
ATOM     31  C   UNL     1      -8.448   1.089  -0.476  0.00  0.00    +0.002 A 
ENDBRANCH  19  26
ENDBRANCH   2  19
TORSDOF 7
