REMARK  Name = ZINC22059565
REMARK  6 active torsions:
REMARK  status: ('A' for Active; 'I' for Inactive)
REMARK    1  A    between atoms: C_1  and  C_2
REMARK    2  A    between atoms: C_2  and  C_3
REMARK    3  A    between atoms: C_3  and  C_25
REMARK    4  A    between atoms: N_6  and  C_10
REMARK    5  A    between atoms: C_10  and  C_11
REMARK    6  A    between atoms: N_13  and  C_14
REMARK                            x       y       z     vdW  Elec       q    Type
REMARK                         _______ _______ _______ _____ _____    ______ ____
ROOT
ATOM      1  C   UNL     1       2.969   9.621   0.201  0.00  0.00    +0.138 C 
ATOM      2  C   UNL     1       3.272   8.247   0.764  0.00  0.00    +0.251 C 
ATOM      3  O   UNL     1       3.408   7.947   1.931  0.00  0.00    -0.272 OA
ATOM      4  N   UNL     1       3.360   7.427  -0.302  0.00  0.00    -0.215 N 
ATOM      5  C   UNL     1       3.161   8.087  -1.449  0.00  0.00    +0.310 C 
ATOM      6  O   UNL     1       3.195   7.562  -2.545  0.00  0.00    -0.252 OA
ATOM      7  N   UNL     1       2.916   9.395  -1.254  0.00  0.00    -0.281 N 
ATOM      8  H   UNL     1       2.705  10.234  -1.933  0.00  0.00    +0.152 HD
ENDROOT
BRANCH   1   9
ATOM      9  C   UNL     1       1.643  10.123   0.712  0.00  0.00    -0.015 A 
ATOM     10  C   UNL     1       1.587  10.865   1.877  0.00  0.00    +0.007 A 
ATOM     11  C   UNL     1       0.371  11.330   2.342  0.00  0.00    +0.020 A 
ATOM     12  C   UNL     1      -0.791  11.043   1.649  0.00  0.00    +0.041 A 
ATOM     13  C   UNL     1      -0.735  10.295   0.486  0.00  0.00    +0.020 A 
ATOM     14  C   UNL     1       0.482   9.835   0.018  0.00  0.00    +0.007 A 
ATOM     15 CL   UNL     1      -2.318  11.620   2.237  0.00  0.00    -0.084 Cl
ENDBRANCH   1   9
BRANCH   1  17
ATOM     16  C   UNL     1       5.385  10.166  -0.126  0.00  0.00    +0.007 C 
ATOM     17  C   UNL     1       4.086  10.605   0.553  0.00  0.00    +0.037 C 
ENDBRANCH   1  17
BRANCH   4  18
ATOM     18  C   UNL     1       3.643   5.992  -0.216  0.00  0.00    +0.214 C 
BRANCH  18  19
ATOM     19  C   UNL     1       2.349   5.231  -0.093  0.00  0.00    +0.235 C 
ATOM     20  O   UNL     1       1.293   5.828  -0.079  0.00  0.00    -0.274 OA
ATOM     21  N   UNL     1       2.364   3.886   0.000  0.00  0.00    -0.283 N 
ATOM     22  H   UNL     1       3.322   3.351   0.079  0.00  0.00    +0.155 HD
BRANCH  21  23
ATOM     23  C   UNL     1       1.160   3.170  -0.003  0.00  0.00    +0.056 A 
ATOM     24  C   UNL     1       0.029   3.714  -0.596  0.00  0.00    +0.074 A 
ATOM     25  C   UNL     1      -1.162   3.006  -0.599  0.00  0.00    +0.164 A 
ATOM     26  C   UNL     1      -1.221   1.746  -0.013  0.00  0.00    +0.164 A 
ATOM     27  C   UNL     1      -0.091   1.208   0.585  0.00  0.00    +0.071 A 
ATOM     28  C   UNL     1       1.097   1.915   0.589  0.00  0.00    +0.066 A 
ATOM     29 CL   UNL     1       2.510   1.234   1.333  0.00  0.00    -0.082 Cl
ATOM     30  O   UNL     1      -2.382   1.034  -0.008  0.00  0.00    -0.485 OA
ATOM     31  C   UNL     1      -3.585   1.761  -0.279  0.00  0.00    +0.270 C 
ATOM     32  C   UNL     1      -3.338   2.663  -1.495  0.00  0.00    +0.270 C 
ATOM     33  O   UNL     1      -2.263   3.555  -1.181  0.00  0.00    -0.485 OA
ENDBRANCH  21  23
ENDBRANCH  18  19
ENDBRANCH   4  18
TORSDOF 5
