REMARK  Name = ZINC06074895
REMARK  12 active torsions:
REMARK  status: ('A' for Active; 'I' for Inactive)
REMARK    1  A    between atoms: C_1  and  C_2
REMARK    2  A    between atoms: C_2  and  C_3
REMARK    3  A    between atoms: C_2  and  C_4
REMARK    4  A    between atoms: C_2  and  N_5
REMARK    5  A    between atoms: C_6  and  C_8
REMARK    6  A    between atoms: C_8  and  C_10
REMARK    7  A    between atoms: C_8  and  N_17
REMARK    8  A    between atoms: N_17  and  C_18
REMARK    9  A    between atoms: C_18  and  C_19
REMARK   10  A    between atoms: C_25  and  C_27
REMARK   11  A    between atoms: C_27  and  N_28
REMARK   12  A    between atoms: C_30  and  C_33
REMARK                            x       y       z     vdW  Elec       q    Type
REMARK                         _______ _______ _______ _____ _____    ______ ____
ROOT
ATOM      1  N   UNL     1       3.329   1.646   3.864  0.00  0.00    -0.282 N 
ATOM      2  C   UNL     1       4.523   1.046   4.036  0.00  0.00    +0.240 C 
ATOM      3  O   UNL     1       4.594  -0.164   4.075  0.00  0.00    -0.273 OA
ENDROOT
BRANCH   1   4
ATOM      4  C   UNL     1       2.116   0.836   3.725  0.00  0.00    +0.192 C 
BRANCH   4   5
ATOM      5  C   UNL     1       1.923   0.004   4.966  0.00  0.00    -0.018 A 
ATOM      6  C   UNL     1       2.333   0.488   6.194  0.00  0.00    +0.009 A 
ATOM      7  C   UNL     1       2.151  -0.272   7.334  0.00  0.00    +0.038 A 
ATOM      8  C   UNL     1       1.568  -1.524   7.244  0.00  0.00    +0.123 A 
ATOM      9  C   UNL     1       1.163  -2.011   6.013  0.00  0.00    +0.038 A 
ATOM     10  C   UNL     1       1.341  -1.247   4.875  0.00  0.00    +0.009 A 
ATOM     11  F   UNL     1       1.395  -2.271   8.357  0.00  0.00    -0.205 F 
ENDBRANCH   4   5
BRANCH   4  13
ATOM     12  N   UNL     1       0.054   1.511   2.536  0.00  0.00    -0.309 N 
ATOM     13  C   UNL     1       0.926   1.742   3.538  0.00  0.00    +0.238 C 
ATOM     14  O   UNL     1       0.752   2.679   4.289  0.00  0.00    -0.273 OA
ATOM     15  H   UNL     1       0.193   0.762   1.935  0.00  0.00    +0.149 HD
BRANCH  12  17
ATOM     16  C   UNL     1      -0.620   3.822   2.102  0.00  0.00    +0.031 C 
ATOM     17  C   UNL     1      -1.102   2.392   2.354  0.00  0.00    +0.026 C 
ATOM     18  C   UNL     1      -1.970   2.360   3.613  0.00  0.00    +0.031 C 
ATOM     19  C   UNL     1      -1.924   1.913   1.155  0.00  0.00    +0.031 C 
ENDBRANCH  12  17
ENDBRANCH   4  13
ENDBRANCH   1   4
BRANCH   1  20
ATOM     20  C   UNL     1       3.243   3.108   3.816  0.00  0.00    +0.140 C 
BRANCH  20  21
ATOM     21  C   UNL     1       3.103   3.657   5.237  0.00  0.00    +0.136 C 
ATOM     22  C   UNL     1       2.899   5.188   5.204  0.00  0.00    +0.035 C 
ATOM     23  C   UNL     1       3.688   5.699   6.430  0.00  0.00    +0.031 C 
ATOM     24  C   UNL     1       4.277   4.416   7.059  0.00  0.00    +0.160 C 
ATOM     25  O   UNL     1       4.330   3.462   5.975  0.00  0.00    -0.375 OA
ENDBRANCH  20  21
ENDBRANCH   1  20
BRANCH   2  26
ATOM     26  C   UNL     1       5.771   1.879   4.179  0.00  0.00    +0.264 C 
BRANCH  26  27
ATOM     27  N   UNL     1       6.929   0.998   4.353  0.00  0.00    -0.154 N 
ATOM     28  N   UNL     1       7.384   0.580   5.484  0.00  0.00    -0.130 NA
ATOM     29  C   UNL     1       8.426  -0.190   5.239  0.00  0.00    +0.205 A 
ATOM     30  N   UNL     1       8.585  -0.210   3.908  0.00  0.00    -0.108 NA
ATOM     31  N   UNL     1       7.654   0.525   3.400  0.00  0.00    -0.045 NA
BRANCH  29  32
ATOM     32  C   UNL     1       9.264  -0.892   6.243  0.00  0.00    +0.023 A 
ATOM     33  C   UNL     1       8.978  -0.770   7.601  0.00  0.00    +0.013 A 
ATOM     34  C   UNL     1       9.756  -1.431   8.530  0.00  0.00    +0.021 A 
ATOM     35  C   UNL     1      10.827  -2.203   8.115  0.00  0.00    +0.041 A 
ATOM     36  C   UNL     1      11.119  -2.322   6.767  0.00  0.00    +0.021 A 
ATOM     37  C   UNL     1      10.343  -1.671   5.830  0.00  0.00    +0.013 A 
ATOM     38 CL   UNL     1      11.807  -3.025   9.289  0.00  0.00    -0.084 Cl
ENDBRANCH  29  32
ENDBRANCH  26  27
ENDBRANCH   2  26
TORSDOF 9
