REMARK  Name = ZINC63171110
REMARK  9 active torsions:
REMARK  status: ('A' for Active; 'I' for Inactive)
REMARK    1  A    between atoms: C_1  and  C_2
REMARK    2  A    between atoms: C_2  and  C_4
REMARK    3  A    between atoms: C_2  and  N_20
REMARK    4  A    between atoms: C_4  and  C_5
REMARK    5  A    between atoms: C_5  and  N_6
REMARK    6  A    between atoms: N_6  and  S_7
REMARK    7  A    between atoms: S_7  and  C_10
REMARK    8  A    between atoms: C_15  and  O_16
REMARK    9  A    between atoms: O_16  and  C_17
REMARK                            x       y       z     vdW  Elec       q    Type
REMARK                         _______ _______ _______ _____ _____    ______ ____
ROOT
ATOM      1  S   UNL     1       1.460  -3.679   2.468  0.00  0.00    +0.062 S 
ATOM      2  O   UNL     1       1.928  -3.867   3.797  0.00  0.00    -0.153 OA
ATOM      3  O   UNL     1       0.083  -3.753   2.128  0.00  0.00    -0.153 OA
ENDROOT
BRANCH   1   4
ATOM      4  C   UNL     1       2.290  -4.870   1.470  0.00  0.00    +0.149 A 
ATOM      5  C   UNL     1       1.568  -5.673   0.608  0.00  0.00    +0.052 A 
ATOM      6  C   UNL     1       2.219  -6.609  -0.177  0.00  0.00    +0.044 A 
ATOM      7  C   UNL     1       3.594  -6.743  -0.101  0.00  0.00    +0.039 A 
ATOM      8  C   UNL     1       4.320  -5.942   0.761  0.00  0.00    +0.063 A 
ATOM      9  C   UNL     1       3.669  -4.999   1.544  0.00  0.00    +0.160 A 
ATOM     10 BR   UNL     1       6.199  -6.125   0.866  0.00  0.00    -0.046 Br
ATOM     11 CL   UNL     1       1.308  -7.616  -1.259  0.00  0.00    -0.083 Cl
BRANCH   9  12
ATOM     12  O   UNL     1       4.381  -4.206   2.388  0.00  0.00    -0.492 OA
ATOM     13  C   UNL     1       4.705  -4.749   3.670  0.00  0.00    +0.277 C 
ENDBRANCH   9  12
ENDBRANCH   1   4
BRANCH   1  14
ATOM     14  N   UNL     1       1.987  -2.185   1.987  0.00  0.00    -0.190 NA
ATOM     15  H   UNL     1       2.487  -1.626   2.602  0.00  0.00    +0.148 HD
BRANCH  14  16
ATOM     16  C   UNL     1       1.698  -1.707   0.633  0.00  0.00    +0.104 C 
BRANCH  16  17
ATOM     17  C   UNL     1       1.936  -0.197   0.563  0.00  0.00    +0.000 C 
BRANCH  17  19
ATOM     18  C   UNL     1       1.991   1.786  -0.955  0.00  0.00    -0.014 C 
ATOM     19  C   UNL     1       1.635   0.302  -0.851  0.00  0.00    -0.077 C 
BRANCH  19  20
ATOM     20  N   UNL     1       0.206   0.120  -1.140  0.00  0.00    +0.380 N 
ATOM     21  H   UNL     1       0.007   0.449  -2.073  0.00  0.00    -0.090 HD
ATOM     22  H   UNL     1      -0.029  -0.859  -1.072  0.00  0.00    -0.090 HD
ATOM     23  H   UNL     1      -0.342   0.644  -0.475  0.00  0.00    -0.090 HD
ENDBRANCH  19  20
ENDBRANCH  17  19
ENDBRANCH  16  17
ENDBRANCH  14  16
ENDBRANCH   1  14
TORSDOF 7
