REMARK  Name = ZINC09123780
REMARK  14 active torsions:
REMARK  status: ('A' for Active; 'I' for Inactive)
REMARK    1  A    between atoms: C_1  and  C_2
REMARK    2  A    between atoms: C_2  and  C_3
REMARK    3  A    between atoms: C_6  and  C_9
REMARK    4  A    between atoms: C_12  and  C_32
REMARK    5  A    between atoms: N_19  and  C_20
REMARK    6  A    between atoms: C_20  and  C_21
REMARK    7  A    between atoms: C_21  and  C_22
REMARK    8  A    between atoms: C_25  and  O_30
REMARK    9  A    between atoms: C_26  and  O_28
REMARK   10  A    between atoms: O_28  and  C_29
REMARK   11  A    between atoms: O_30  and  C_31
REMARK   12  A    between atoms: C_34  and  C_40
REMARK   13  A    between atoms: C_36  and  C_39
REMARK   14  A    between atoms: C_37  and  O_38
REMARK                            x       y       z     vdW  Elec       q    Type
REMARK                         _______ _______ _______ _____ _____    ______ ____
ROOT
ATOM      1  C   UNL     1      -5.105  -1.712  -0.232  0.00  0.00    +0.141 C 
ATOM      2  C   UNL     1      -6.257  -0.745  -0.246  0.00  0.00    +0.035 A 
ATOM      3  C   UNL     1      -6.899   0.334   0.373  0.00  0.00    +0.102 A 
ATOM      4  N   UNL     1      -7.966   0.622  -0.346  0.00  0.00    -0.173 NA
ATOM      5  N   UNL     1      -8.062  -0.167  -1.356  0.00  0.00    -0.272 N 
ATOM      6  H   UNL     1      -8.769  -0.139  -2.020  0.00  0.00    +0.189 HD
ATOM      7  C   UNL     1      -7.021  -1.052  -1.355  0.00  0.00    +0.126 A 
ATOM      8  C   UNL     1      -6.398  -2.182  -2.053  0.00  0.00    +0.265 C 
ATOM      9  O   UNL     1      -6.828  -2.693  -3.069  0.00  0.00    -0.268 OA
ATOM     10  N   UNL     1      -5.283  -2.575  -1.407  0.00  0.00    -0.285 N 
ENDROOT
BRANCH   3  11
ATOM     11  C   UNL     1      -6.459   1.026   1.610  0.00  0.00    +0.044 A 
ATOM     12  C   UNL     1      -5.376   0.538   2.337  0.00  0.00    +0.017 A 
ATOM     13  C   UNL     1      -4.971   1.185   3.487  0.00  0.00    -0.049 A 
ATOM     14  C   UNL     1      -5.638   2.317   3.921  0.00  0.00    +0.010 A 
ATOM     15  C   UNL     1      -6.714   2.809   3.207  0.00  0.00    -0.008 A 
ATOM     16  C   UNL     1      -7.127   2.173   2.047  0.00  0.00    +0.129 A 
ATOM     17  C   UNL     1      -7.435   4.043   3.686  0.00  0.00    +0.047 C 
ATOM     18  C   UNL     1      -3.799   0.656   4.273  0.00  0.00    +0.044 C 
BRANCH  16  19
ATOM     19  O   UNL     1      -8.181   2.659   1.341  0.00  0.00    -0.506 OA
ATOM     20  H   UNL     1      -9.036   2.299   1.612  0.00  0.00    +0.292 HD
ENDBRANCH  16  19
ENDBRANCH   3  11
BRANCH   1  24
ATOM     21  C   UNL     1      -1.406   0.406  -0.508  0.00  0.00    -0.048 A 
ATOM     22  C   UNL     1      -2.264   0.370  -1.591  0.00  0.00    +0.004 A 
ATOM     23  C   UNL     1      -3.461  -0.315  -1.502  0.00  0.00    +0.006 A 
ATOM     24  C   UNL     1      -3.800  -0.965  -0.330  0.00  0.00    -0.022 A 
ATOM     25  C   UNL     1      -2.941  -0.930   0.753  0.00  0.00    +0.006 A 
ATOM     26  C   UNL     1      -1.742  -0.248   0.662  0.00  0.00    +0.004 A 
BRANCH  21  28
ATOM     27  C   UNL     1       0.989   0.212  -1.120  0.00  0.00    +0.009 C 
ATOM     28  C   UNL     1      -0.101   1.154  -0.606  0.00  0.00    +0.032 C 
ENDBRANCH  21  28
ENDBRANCH   1  24
BRANCH  10  29
ATOM     29  C   UNL     1      -4.399  -3.672  -1.808  0.00  0.00    +0.114 C 
BRANCH  29  30
ATOM     30  C   UNL     1      -4.872  -4.972  -1.155  0.00  0.00    +0.054 C 
BRANCH  30  31
ATOM     31  C   UNL     1      -3.963  -6.101  -1.567  0.00  0.00    -0.042 A 
ATOM     32  C   UNL     1      -4.245  -6.834  -2.705  0.00  0.00    +0.007 A 
ATOM     33  C   UNL     1      -3.414  -7.871  -3.087  0.00  0.00    +0.049 A 
ATOM     34  C   UNL     1      -2.295  -8.177  -2.330  0.00  0.00    +0.161 A 
ATOM     35  C   UNL     1      -2.011  -7.439  -1.185  0.00  0.00    +0.162 A 
ATOM     36  C   UNL     1      -2.845  -6.398  -0.810  0.00  0.00    +0.053 A 
BRANCH  35  37
ATOM     37  O   UNL     1      -0.913  -7.735  -0.438  0.00  0.00    -0.491 OA
ATOM     38  C   UNL     1      -0.684  -6.936   0.724  0.00  0.00    +0.277 C 
ENDBRANCH  35  37
BRANCH  34  39
ATOM     39  O   UNL     1      -1.477  -9.196  -2.704  0.00  0.00    -0.491 OA
ATOM     40  C   UNL     1      -1.831  -9.910  -3.890  0.00  0.00    +0.277 C 
ENDBRANCH  34  39
ENDBRANCH  30  31
ENDBRANCH  29  30
ENDBRANCH  10  29
TORSDOF 9
