REMARK  Name = ZINC01373179
REMARK  15 active torsions:
REMARK  status: ('A' for Active; 'I' for Inactive)
REMARK    1  A    between atoms: C_1  and  C_2
REMARK    2  A    between atoms: C_7  and  C_15
REMARK    3  A    between atoms: C_13  and  C_14
REMARK    4  A    between atoms: C_15  and  N_16
REMARK    5  A    between atoms: N_16  and  C_17
REMARK    6  A    between atoms: N_16  and  C_29
REMARK    7  A    between atoms: C_17  and  C_18
REMARK    8  A    between atoms: C_18  and  C_19
REMARK    9  A    between atoms: C_22  and  O_27
REMARK   10  A    between atoms: C_23  and  O_25
REMARK   11  A    between atoms: O_25  and  C_26
REMARK   12  A    between atoms: O_27  and  C_28
REMARK   13  A    between atoms: C_29  and  C_30
REMARK   14  A    between atoms: N_34  and  C_35
REMARK   15  A    between atoms: C_35  and  C_36
REMARK                            x       y       z     vdW  Elec       q    Type
REMARK                         _______ _______ _______ _____ _____    ______ ____
ROOT
ATOM      1  N   UNL     1       0.014   1.129  -2.249  0.00  0.00    -0.290 NA
ENDROOT
BRANCH   1   2
ATOM      2  C   UNL     1      -0.532   1.996  -3.301  0.00  0.00    +0.125 C 
BRANCH   2   9
ATOM      3  C   UNL     1       3.512   8.868  -3.506  0.00  0.00    +0.044 C 
ATOM      4  C   UNL     1       2.903   7.495  -3.626  0.00  0.00    -0.046 A 
ATOM      5  C   UNL     1       3.466   6.567  -4.491  0.00  0.00    +0.004 A 
ATOM      6  C   UNL     1       2.929   5.316  -4.614  0.00  0.00    +0.010 A 
ATOM      7  C   UNL     1       1.803   4.968  -3.861  0.00  0.00    -0.001 A 
ATOM      8  C   UNL     1       1.205   3.636  -3.965  0.00  0.00    +0.020 A 
ATOM      9  C   UNL     1       0.111   3.357  -3.215  0.00  0.00    +0.031 A 
ATOM     10  C   UNL     1      -0.426   4.334  -2.350  0.00  0.00    +0.254 A 
ATOM     11  O   UNL     1      -1.408   4.061  -1.681  0.00  0.00    -0.268 OA
ATOM     12  N   UNL     1       0.119   5.559  -2.245  0.00  0.00    -0.322 N 
ATOM     13  H   UNL     1      -0.322   6.300  -1.562  0.00  0.00    +0.169 HD
ATOM     14  C   UNL     1       1.229   5.907  -2.983  0.00  0.00    +0.052 A 
ATOM     15  C   UNL     1       1.793   7.174  -2.875  0.00  0.00    -0.024 A 
ATOM     16  C   UNL     1       1.192   8.192  -1.940  0.00  0.00    +0.046 C 
ENDBRANCH   2   9
ENDBRANCH   1   2
BRANCH   1  17
ATOM     17  C   UNL     1      -0.552   1.472  -0.937  0.00  0.00    +0.090 C 
BRANCH  17  18
ATOM     18  C   UNL     1       0.213   0.729   0.159  0.00  0.00    +0.050 C 
BRANCH  18  19
ATOM     19  C   UNL     1      -0.368   1.081   1.504  0.00  0.00    -0.042 A 
ATOM     20  C   UNL     1       0.133   2.158   2.212  0.00  0.00    +0.007 A 
ATOM     21  C   UNL     1      -0.401   2.488   3.444  0.00  0.00    +0.049 A 
ATOM     22  C   UNL     1      -1.433   1.733   3.977  0.00  0.00    +0.161 A 
ATOM     23  C   UNL     1      -1.933   0.646   3.267  0.00  0.00    +0.162 A 
ATOM     24  C   UNL     1      -1.398   0.324   2.030  0.00  0.00    +0.053 A 
BRANCH  23  25
ATOM     25  O   UNL     1      -2.947  -0.098   3.786  0.00  0.00    -0.491 OA
ATOM     26  C   UNL     1      -3.410  -1.199   3.001  0.00  0.00    +0.277 C 
ENDBRANCH  23  25
BRANCH  22  27
ATOM     27  O   UNL     1      -1.955   2.054   5.191  0.00  0.00    -0.491 OA
ATOM     28  C   UNL     1      -1.392   3.182   5.862  0.00  0.00    +0.277 C 
ENDBRANCH  22  27
ENDBRANCH  18  19
ENDBRANCH  17  18
ENDBRANCH   1  17
BRANCH   1  29
ATOM     29  C   UNL     1      -0.210  -0.288  -2.564  0.00  0.00    +0.162 C 
BRANCH  29  30
ATOM     30  C   UNL     1       0.674  -0.692  -3.716  0.00  0.00    +0.166 A 
ATOM     31  N   UNL     1       0.352  -0.694  -4.987  0.00  0.00    -0.112 NA
ATOM     32  N   UNL     1       1.376  -1.100  -5.656  0.00  0.00    -0.023 NA
ATOM     33  N   UNL     1       2.340  -1.365  -4.844  0.00  0.00    -0.043 NA
ATOM     34  N   UNL     1       1.946  -1.126  -3.639  0.00  0.00    -0.221 N 
BRANCH  34  35
ATOM     35  C   UNL     1       2.736  -1.294  -2.417  0.00  0.00    +0.221 C 
BRANCH  35  36
ATOM     36  C   UNL     1       2.542  -2.690  -1.883  0.00  0.00    +0.126 A 
ATOM     37  C   UNL     1       3.286  -3.765  -2.203  0.00  0.00    +0.046 A 
ATOM     38  C   UNL     1       2.761  -4.857  -1.475  0.00  0.00    +0.041 A 
ATOM     39  C   UNL     1       1.723  -4.387  -0.760  0.00  0.00    +0.195 A 
ATOM     40  O   UNL     1       1.595  -3.074  -1.011  0.00  0.00    -0.466 OA
ENDBRANCH  35  36
ENDBRANCH  34  35
ENDBRANCH  29  30
ENDBRANCH   1  29
TORSDOF 11
