REMARK  Name = ZINC14748796
REMARK  10 active torsions:
REMARK  status: ('A' for Active; 'I' for Inactive)
REMARK    1  A    between atoms: C_1  and  O_2
REMARK    2  A    between atoms: O_2  and  C_3
REMARK    3  A    between atoms: C_5  and  C_10
REMARK    4  A    between atoms: C_8  and  O_9
REMARK    5  A    between atoms: C_11  and  C_12
REMARK    6  A    between atoms: C_12  and  N_69
REMARK    7  A    between atoms: C_14  and  O_27
REMARK    8  A    between atoms: N_17  and  C_21
REMARK    9  A    between atoms: O_27  and  C_28
REMARK   10  A    between atoms: C_28  and  C_29
REMARK                            x       y       z     vdW  Elec       q    Type
REMARK                         _______ _______ _______ _____ _____    ______ ____
ROOT
ATOM      1  C   UNL     1      -5.339   3.883  -1.397  0.00  0.00    -0.044 C 
ATOM      2  C   UNL     1      -4.181   4.864  -1.395  0.00  0.00    +0.120 C 
ATOM      3  C   UNL     1      -4.175   5.697  -2.679  0.00  0.00    +0.137 C 
ATOM      4  N   UNL     1      -5.069   6.852  -2.488  0.00  0.00    -0.298 N 
ATOM      5  C   UNL     1      -6.390   6.665  -2.418  0.00  0.00    +0.199 C 
ATOM      6  O   UNL     1      -7.126   7.614  -2.252  0.00  0.00    -0.278 OA
ATOM      7  C   UNL     1      -6.971   5.273  -2.546  0.00  0.00    +0.019 C 
ATOM      8  N   UNL     1      -6.659   4.537  -1.297  0.00  0.00    +0.389 N 
ATOM      9  H   UNL     1      -6.639   5.204  -0.517  0.00  0.00    -0.081 HD
ENDROOT
BRANCH   4  10
ATOM     10  C   UNL     1      -4.511   8.202  -2.377  0.00  0.00    +0.076 C 
ATOM     11  C   UNL     1      -4.896   8.802  -1.023  0.00  0.00    +0.022 C 
ATOM     12  C   UNL     1      -4.314  10.212  -0.906  0.00  0.00    +0.002 C 
ATOM     13  C   UNL     1      -4.870  11.089  -2.030  0.00  0.00    +0.000 C 
ATOM     14  C   UNL     1      -4.485  10.488  -3.384  0.00  0.00    +0.002 C 
ATOM     15  C   UNL     1      -5.068   9.078  -3.500  0.00  0.00    +0.022 C 
ENDBRANCH   4  10
BRANCH   8  16
ATOM     16  C   UNL     1      -7.697   3.528  -1.033  0.00  0.00    -0.050 C 
BRANCH  16  18
ATOM     17  C   UNL     1      -7.599   1.196  -1.795  0.00  0.00    +0.002 C 
ATOM     18  C   UNL     1      -7.717   2.478  -2.114  0.00  0.00    -0.045 C 
BRANCH  17  21
ATOM     19  C   UNL     1      -7.515  -2.143  -3.517  0.00  0.00    +0.162 A 
ATOM     20  C   UNL     1      -7.496  -1.183  -2.521  0.00  0.00    +0.057 A 
ATOM     21  C   UNL     1      -7.620   0.167  -2.855  0.00  0.00    -0.022 A 
ATOM     22  C   UNL     1      -7.768   0.541  -4.191  0.00  0.00    +0.012 A 
ATOM     23  C   UNL     1      -7.781  -0.420  -5.180  0.00  0.00    +0.050 A 
ATOM     24  C   UNL     1      -7.657  -1.762  -4.849  0.00  0.00    +0.158 A 
BRANCH  19  26
ATOM     25  C   UNL     1      -7.250  -3.777  -1.809  0.00  0.00    +0.277 C 
ATOM     26  O   UNL     1      -7.394  -3.458  -3.195  0.00  0.00    -0.491 OA
ENDBRANCH  19  26
BRANCH  24  27
ATOM     27  O   UNL     1      -7.676  -2.706  -5.826  0.00  0.00    -0.503 OA
ATOM     28  H   UNL     1      -8.560  -3.041  -6.033  0.00  0.00    +0.292 HD
ENDBRANCH  24  27
ENDBRANCH  17  21
ENDBRANCH  16  18
ENDBRANCH   8  16
BRANCH   2  29
ATOM     29  O   UNL     1      -2.953   4.141  -1.297  0.00  0.00    -0.372 OA
BRANCH  29  30
ATOM     30  C   UNL     1      -2.530   3.893   0.046  0.00  0.00    +0.195 C 
BRANCH  30  31
ATOM     31  C   UNL     1      -1.231   3.129   0.030  0.00  0.00    -0.019 A 
ATOM     32  C   UNL     1      -1.223   1.742   0.017  0.00  0.00    +0.025 A 
ATOM     33  C   UNL     1      -0.013   1.076   0.008  0.00  0.00    +0.111 A 
ATOM     34  N   UNL     1       1.125   1.743   0.001  0.00  0.00    -0.263 NA
ATOM     35  C   UNL     1       1.155   3.061   0.007  0.00  0.00    +0.111 A 
ATOM     36  C   UNL     1      -0.015   3.796   0.022  0.00  0.00    +0.025 A 
ENDBRANCH  30  31
ENDBRANCH  29  30
ENDBRANCH   2  29
TORSDOF 9
