REMARK  Name = ZINC35634372
REMARK  6 active torsions:
REMARK  status: ('A' for Active; 'I' for Inactive)
REMARK    1  A    between atoms: C_1  and  C_2
REMARK    2  A    between atoms: C_2  and  C_4
REMARK    3  A    between atoms: C_2  and  O_22
REMARK    4  A    between atoms: C_7  and  S_10
REMARK    5  A    between atoms: S_10  and  N_13
REMARK    6  A    between atoms: N_13  and  C_14
REMARK                            x       y       z     vdW  Elec       q    Type
REMARK                         _______ _______ _______ _____ _____    ______ ____
ROOT
ATOM      1  S   UNL     1       2.920  -2.002   4.890  0.00  0.00    +0.059 S 
ATOM      2  O   UNL     1       4.295  -1.698   4.695  0.00  0.00    -0.153 OA
ATOM      3  O   UNL     1       2.190  -1.538   6.017  0.00  0.00    -0.153 OA
ENDROOT
BRANCH   1   7
ATOM      4  C   UNL     1       0.731  -0.503   1.223  0.00  0.00    -0.019 A 
ATOM      5  C   UNL     1       0.053  -0.656   2.418  0.00  0.00    +0.008 A 
ATOM      6  C   UNL     1       0.722  -1.114   3.538  0.00  0.00    +0.029 A 
ATOM      7  C   UNL     1       2.068  -1.420   3.463  0.00  0.00    +0.105 A 
ATOM      8  C   UNL     1       2.745  -1.267   2.267  0.00  0.00    +0.029 A 
ATOM      9  C   UNL     1       2.076  -0.813   1.146  0.00  0.00    +0.008 A 
BRANCH   4  11
ATOM     10  C   UNL     1      -0.019   1.526   0.010  0.00  0.00    +0.043 C 
ATOM     11  C   UNL     1       0.002  -0.004   0.002  0.00  0.00    +0.141 C 
BRANCH  11  12
ATOM     12  O   UNL     1      -1.339  -0.499   0.012  0.00  0.00    -0.387 OA
ATOM     13  H   UNL     1      -1.853  -0.225   0.784  0.00  0.00    +0.210 HD
ENDBRANCH  11  12
ENDBRANCH   4  11
ENDBRANCH   1   7
BRANCH   1  14
ATOM     14  N   UNL     1       2.798  -3.654   4.894  0.00  0.00    -0.187 NA
ATOM     15  H   UNL     1       2.306  -4.102   5.600  0.00  0.00    +0.148 HD
BRANCH  14  16
ATOM     16  C   UNL     1       3.431  -4.438   3.831  0.00  0.00    +0.077 C 
ATOM     17  C   UNL     1       4.813  -4.903   4.295  0.00  0.00    +0.020 C 
ATOM     18  C   UNL     1       5.305  -6.028   3.382  0.00  0.00    +0.002 C 
ATOM     19  C   UNL     1       5.774  -5.435   2.051  0.00  0.00    +0.000 C 
ATOM     20  C   UNL     1       4.558  -5.061   1.203  0.00  0.00    +0.000 C 
ATOM     21  C   UNL     1       3.525  -6.187   1.266  0.00  0.00    +0.000 C 
ATOM     22  C   UNL     1       2.279  -5.696   2.006  0.00  0.00    +0.002 C 
ATOM     23  C   UNL     1       2.563  -5.655   3.509  0.00  0.00    +0.020 C 
ENDBRANCH  14  16
ENDBRANCH   1  14
TORSDOF 5
