REMARK  Name = ZINC63269255
REMARK  7 active torsions:
REMARK  status: ('A' for Active; 'I' for Inactive)
REMARK    1  A    between atoms: C_1  and  C_2
REMARK    2  A    between atoms: C_2  and  C_3
REMARK    3  A    between atoms: C_2  and  N_4
REMARK    4  A    between atoms: N_7  and  N_8
REMARK    5  A    between atoms: C_9  and  C_11
REMARK    6  A    between atoms: C_12  and  C_21
REMARK    7  A    between atoms: C_14  and  C_16
REMARK                            x       y       z     vdW  Elec       q    Type
REMARK                         _______ _______ _______ _____ _____    ______ ____
ROOT
ATOM      1  C   UNL     1      -6.283  -1.056   0.603  0.00  0.00    +0.103 A 
ATOM      2  C   UNL     1      -7.662  -1.300   0.643  0.00  0.00    +0.091 A 
ATOM      3  N   UNL     1      -8.444  -0.410   1.206  0.00  0.00    -0.235 NA
ATOM      4  C   UNL     1      -7.957   0.710   1.733  0.00  0.00    +0.145 A 
ATOM      5  S   UNL     1      -6.205   0.527   1.431  0.00  0.00    -0.059 S 
ENDROOT
BRANCH   2   6
ATOM      6  C   UNL     1      -8.227  -2.540   0.062  0.00  0.00    +0.002 A 
ATOM      7  C   UNL     1      -7.628  -3.772   0.323  0.00  0.00    +0.010 A 
ATOM      8  C   UNL     1      -8.159  -4.924  -0.221  0.00  0.00    +0.001 A 
ATOM      9  C   UNL     1      -9.283  -4.858  -1.025  0.00  0.00    +0.000 A 
ATOM     10  C   UNL     1      -9.882  -3.639  -1.288  0.00  0.00    +0.001 A 
ATOM     11  C   UNL     1      -9.364  -2.481  -0.744  0.00  0.00    +0.010 A 
ENDBRANCH   2   6
BRANCH   4  12
ATOM     12  C   UNL     1      -8.673   1.808   2.396  0.00  0.00    +0.160 A 
ATOM     13  C   UNL     1      -8.107   2.937   2.912  0.00  0.00    +0.052 A 
ATOM     14  C   UNL     1      -9.155   3.707   3.446  0.00  0.00    +0.042 A 
ATOM     15  C   UNL     1     -10.298   3.022   3.235  0.00  0.00    +0.196 A 
ATOM     16  O   UNL     1     -10.004   1.880   2.595  0.00  0.00    -0.461 OA
ENDBRANCH   4  12
BRANCH   1  18
ATOM     17  N   UNL     1      -3.922  -1.508   0.226  0.00  0.00    -0.229 N 
ATOM     18  C   UNL     1      -5.207  -1.871   0.043  0.00  0.00    +0.269 C 
ATOM     19  O   UNL     1      -5.471  -2.879  -0.588  0.00  0.00    -0.268 OA
ATOM     20  H   UNL     1      -3.711  -0.706   0.729  0.00  0.00    +0.173 HD
BRANCH  17  24
ATOM     21  N   UNL     1      -1.313  -0.812   0.571  0.00  0.00    -0.296 N 
ATOM     22  C   UNL     1      -1.605  -1.927  -0.127  0.00  0.00    +0.316 C 
ATOM     23  O   UNL     1      -0.710  -2.605  -0.592  0.00  0.00    -0.251 OA
ATOM     24  N   UNL     1      -2.890  -2.290  -0.310  0.00  0.00    -0.218 N 
ATOM     25  H   UNL     1      -2.027  -0.271   0.943  0.00  0.00    +0.151 HD
ATOM     26  H   UNL     1      -3.101  -3.092  -0.813  0.00  0.00    +0.174 HD
BRANCH  21  28
ATOM     27  C   UNL     1       0.159   1.092   1.005  0.00  0.00    +0.027 C 
ATOM     28  C   UNL     1       0.084  -0.418   0.770  0.00  0.00    +0.068 C 
ATOM     29  C   UNL     1       0.653  -1.152   1.986  0.00  0.00    +0.027 C 
ENDBRANCH  21  28
ENDBRANCH  17  24
ENDBRANCH   1  18
TORSDOF 5
