REMARK  Name = ZINC02109071
REMARK  11 active torsions:
REMARK  status: ('A' for Active; 'I' for Inactive)
REMARK    1  A    between atoms: C_1  and  C_2
REMARK    2  A    between atoms: C_2  and  C_3
REMARK    3  A    between atoms: C_3  and  C_4
REMARK    4  A    between atoms: C_13  and  O_16
REMARK    5  A    between atoms: C_14  and  C_15
REMARK    6  A    between atoms: O_16  and  C_17
REMARK    7  A    between atoms: C_17  and  C_19
REMARK    8  A    between atoms: C_17  and  C_20
REMARK    9  A    between atoms: N_22  and  C_23
REMARK   10  A    between atoms: C_23  and  C_24
REMARK   11  A    between atoms: C_29  and  O_37
REMARK                            x       y       z     vdW  Elec       q    Type
REMARK                         _______ _______ _______ _____ _____    ______ ____
ROOT
ATOM      1  C   UNL     1      -4.760   3.715   0.566  0.00  0.00    +0.254 C 
ATOM      2  O   UNL     1      -4.617   4.849   0.971  0.00  0.00    -0.272 OA
ATOM      3  N   UNL     1      -5.958   3.107   0.674  0.00  0.00    -0.304 N 
ATOM      4  H   UNL     1      -6.073   2.200   0.350  0.00  0.00    +0.149 HD
ENDROOT
BRANCH   1   5
ATOM      5  C   UNL     1      -3.599   2.986  -0.060  0.00  0.00    +0.255 C 
ATOM      6  C   UNL     1      -3.902   2.714  -1.535  0.00  0.00    +0.062 C 
BRANCH   5   7
ATOM      7  O   UNL     1      -2.421   3.788   0.045  0.00  0.00    -0.480 OA
BRANCH   7  17
ATOM      8  C   UNL     1       2.480   1.105  -0.028  0.00  0.00    -0.030 A 
ATOM      9  C   UNL     1       3.603   1.840   0.180  0.00  0.00    +0.096 A 
ATOM     10  C   UNL     1       3.502   3.228   0.403  0.00  0.00    +0.337 A 
ATOM     11  O   UNL     1       4.517   3.875   0.588  0.00  0.00    -0.245 OA
ATOM     12  O   UNL     1       2.315   3.855   0.416  0.00  0.00    -0.422 OA
ATOM     13  C   UNL     1       1.161   3.184   0.217  0.00  0.00    +0.146 A 
ATOM     14  C   UNL     1       1.189   1.795  -0.011  0.00  0.00    +0.021 A 
ATOM     15  C   UNL     1      -0.005   1.095  -0.218  0.00  0.00    +0.015 A 
ATOM     16  C   UNL     1      -1.195   1.764  -0.203  0.00  0.00    +0.047 A 
ATOM     17  C   UNL     1      -1.229   3.138   0.027  0.00  0.00    +0.128 A 
ATOM     18  C   UNL     1      -0.057   3.846   0.234  0.00  0.00    +0.034 A 
ATOM     19  C   UNL     1      -0.105   5.333   0.477  0.00  0.00    +0.051 C 
BRANCH   8  20
ATOM     20  C   UNL     1       2.561  -0.381  -0.267  0.00  0.00    +0.036 C 
BRANCH  20  22
ATOM     21  C   UNL     1       2.652  -2.163  -2.016  0.00  0.00    +0.004 C 
ATOM     22  C   UNL     1       2.570  -0.655  -1.773  0.00  0.00    +0.001 C 
ENDBRANCH  20  22
ENDBRANCH   8  20
ENDBRANCH   7  17
ENDBRANCH   5   7
ENDBRANCH   1   5
BRANCH   3  23
ATOM     23  C   UNL     1      -7.087   3.816   1.282  0.00  0.00    +0.200 C 
BRANCH  23  24
ATOM     24  C   UNL     1      -8.300   2.922   1.282  0.00  0.00    +0.233 C 
ATOM     25  O   UNL     1      -8.229   1.802   0.820  0.00  0.00    -0.274 OA
ATOM     26  N   UNL     1      -9.464   3.366   1.796  0.00  0.00    -0.300 N 
ATOM     27  C   UNL     1      -9.566   4.716   2.365  0.00  0.00    +0.110 C 
ATOM     28  C   UNL     1     -10.122   4.617   3.784  0.00  0.00    +0.054 C 
ATOM     29  C   UNL     1     -11.445   3.848   3.760  0.00  0.00    +0.072 C 
ATOM     30  C   UNL     1     -12.007   3.766   5.182  0.00  0.00    +0.035 C 
ATOM     31  C   UNL     1     -10.998   3.054   6.085  0.00  0.00    +0.003 C 
ATOM     32  C   UNL     1     -10.745   1.641   5.556  0.00  0.00    +0.001 C 
ATOM     33  C   UNL     1     -10.192   1.720   4.131  0.00  0.00    +0.008 C 
ATOM     34  C   UNL     1     -11.203   2.432   3.232  0.00  0.00    +0.038 C 
ATOM     35  C   UNL     1     -10.656   2.506   1.804  0.00  0.00    +0.114 C 
BRANCH  29  36
ATOM     36  O   UNL     1     -12.380   4.521   2.914  0.00  0.00    -0.388 OA
ATOM     37  H   UNL     1     -12.581   5.426   3.191  0.00  0.00    +0.210 HD
ENDBRANCH  29  36
ENDBRANCH  23  24
ENDBRANCH   3  23
TORSDOF 8
