REMARK  Name = ZINC03670533
REMARK  13 active torsions:
REMARK  status: ('A' for Active; 'I' for Inactive)
REMARK    1  A    between atoms: C_1  and  C_2
REMARK    2  A    between atoms: C_2  and  O_3
REMARK    3  A    between atoms: O_3  and  C_4
REMARK    4  A    between atoms: C_4  and  C_5
REMARK    5  A    between atoms: C_5  and  C_6
REMARK    6  A    between atoms: C_6  and  N_7
REMARK    7  A    between atoms: C_8  and  C_10
REMARK    8  A    between atoms: C_10  and  O_32
REMARK    9  A    between atoms: N_20  and  C_21
REMARK   10  A    between atoms: C_24  and  O_29
REMARK   11  A    between atoms: C_26  and  O_27
REMARK   12  A    between atoms: O_27  and  C_28
REMARK   13  A    between atoms: O_29  and  C_30
REMARK                            x       y       z     vdW  Elec       q    Type
REMARK                         _______ _______ _______ _____ _____    ______ ____
ROOT
ATOM      1  C   UNL     1       2.507   0.901   6.705  0.00  0.00    +0.247 C 
ATOM      2  C   UNL     1       3.048   0.417   8.030  0.00  0.00    +0.034 A 
ATOM      3  C   UNL     1       3.997   1.136   8.720  0.00  0.00    +0.025 A 
ATOM      4  C   UNL     1       4.470   0.661   9.933  0.00  0.00    +0.018 A 
ATOM      5  C   UNL     1       3.988  -0.530  10.446  0.00  0.00    +0.017 A 
ATOM      6  C   UNL     1       3.035  -1.253   9.754  0.00  0.00    +0.025 A 
ATOM      7  C   UNL     1       2.558  -0.781   8.539  0.00  0.00    +0.043 A 
ATOM      8  N   UNL     1       1.596  -1.496   7.825  0.00  0.00    -0.269 N 
ATOM      9  C   UNL     1       1.101  -1.082   6.652  0.00  0.00    +0.314 C 
ATOM     10  O   UNL     1       0.261  -1.767   6.102  0.00  0.00    -0.252 OA
ATOM     11  N   UNL     1       1.494   0.056   6.050  0.00  0.00    -0.211 N 
ATOM     12 BR   UNL     1       5.775   1.642  10.888  0.00  0.00    -0.050 Br
ATOM     13  H   UNL     1       1.268  -2.330   8.197  0.00  0.00    +0.156 HD
ENDROOT
BRANCH  11  14
ATOM     14  C   UNL     1       0.942   0.434   4.816  0.00  0.00    +0.083 A 
ATOM     15  C   UNL     1       1.538   0.024   3.634  0.00  0.00    +0.031 A 
ATOM     16  C   UNL     1       0.991   0.392   2.419  0.00  0.00    +0.048 A 
ATOM     17  C   UNL     1      -0.148   1.182   2.380  0.00  0.00    +0.124 A 
ATOM     18  C   UNL     1      -0.748   1.595   3.560  0.00  0.00    +0.093 A 
ATOM     19  C   UNL     1      -0.205   1.223   4.779  0.00  0.00    +0.145 A 
BRANCH  19  20
ATOM     20  O   UNL     1      -0.792   1.627   5.938  0.00  0.00    -0.493 OA
ATOM     21  C   UNL     1      -1.966   2.433   5.824  0.00  0.00    +0.277 C 
ENDBRANCH  19  20
BRANCH  17  22
ATOM     22  O   UNL     1      -0.682   1.547   1.184  0.00  0.00    -0.495 OA
ATOM     23  C   UNL     1      -0.013   1.086   0.008  0.00  0.00    +0.277 C 
ENDBRANCH  17  22
ENDBRANCH  11  14
BRANCH   1  25
ATOM     24  N   UNL     1       4.280  -0.040   5.258  0.00  0.00    -0.311 N 
ATOM     25  C   UNL     1       3.669   1.053   5.757  0.00  0.00    +0.269 C 
ATOM     26  O   UNL     1       4.054   2.159   5.442  0.00  0.00    -0.270 OA
ATOM     27  H   UNL     1       3.971  -0.925   5.510  0.00  0.00    +0.149 HD
BRANCH  24  28
ATOM     28  C   UNL     1       5.409   0.108   4.337  0.00  0.00    +0.106 C 
BRANCH  28  29
ATOM     29  C   UNL     1       5.915  -1.276   3.924  0.00  0.00    +0.047 C 
BRANCH  29  30
ATOM     30  C   UNL     1       7.094  -1.121   2.962  0.00  0.00    +0.161 C 
BRANCH  30  31
ATOM     31  O   UNL     1       7.567  -2.414   2.576  0.00  0.00    -0.380 OA
BRANCH  31  33
ATOM     32  C   UNL     1       9.093  -3.813   1.330  0.00  0.00    +0.034 C 
ATOM     33  C   UNL     1       8.674  -2.382   1.673  0.00  0.00    +0.156 C 
ENDBRANCH  31  33
ENDBRANCH  30  31
ENDBRANCH  29  30
ENDBRANCH  28  29
ENDBRANCH  24  28
ENDBRANCH   1  25
BRANCH   1  34
ATOM     34  O   UNL     1       1.937   2.195   6.907  0.00  0.00    -0.360 OA
ATOM     35  H   UNL     1       2.533   2.825   7.335  0.00  0.00    +0.213 HD
ENDBRANCH   1  34
TORSDOF 10
