REMARK  Name = ZINC63375241
REMARK  4 active torsions:
REMARK  status: ('A' for Active; 'I' for Inactive)
REMARK    1  A    between atoms: C_4  and  C_7
REMARK    2  A    between atoms: N_25  and  C_28
REMARK    3  A    between atoms: C_33  and  C_34
REMARK    4  A    between atoms: N_36  and  C_37
REMARK                            x       y       z     vdW  Elec       q    Type
REMARK                         _______ _______ _______ _____ _____    ______ ____
ROOT
ATOM      1  C   UNL     1       3.711  -0.707  -0.038  0.00  0.00    +0.135 C 
ATOM      2  C   UNL     1       4.047  -1.209   1.373  0.00  0.00    +0.131 C 
ATOM      3  C   UNL     1       3.162  -2.419   1.642  0.00  0.00    -0.034 C 
ATOM      4  C   UNL     1       2.472  -2.141   2.744  0.00  0.00    -0.001 A 
ATOM      5  C   UNL     1       1.508  -2.937   3.521  0.00  0.00    +0.010 A 
ATOM      6  C   UNL     1       0.969  -2.329   4.610  0.00  0.00    +0.001 A 
ATOM      7  C   UNL     1       1.288  -1.024   4.999  0.00  0.00    +0.002 A 
ATOM      8  C   UNL     1       2.168  -0.223   4.347  0.00  0.00    +0.026 A 
ATOM      9  C   UNL     1       2.803  -0.753   3.187  0.00  0.00    +0.043 A 
ATOM     10  N   UNL     1       3.692  -0.214   2.389  0.00  0.00    -0.375 N 
ATOM     11  C   UNL     1       3.105  -3.621   0.728  0.00  0.00    +0.065 C 
ATOM     12  C   UNL     1       3.946  -3.267  -0.511  0.00  0.00    +0.169 C 
ATOM     13  N   UNL     1       3.614  -1.883  -0.911  0.00  0.00    -0.264 N 
ATOM     14  C   UNL     1       3.199  -1.935  -2.183  0.00  0.00    +0.317 C 
ATOM     15  O   UNL     1       2.952  -0.954  -2.857  0.00  0.00    -0.252 OA
ATOM     16  N   UNL     1       3.088  -3.195  -2.628  0.00  0.00    -0.192 N 
ATOM     17  C   UNL     1       3.503  -4.107  -1.689  0.00  0.00    +0.248 C 
ATOM     18  O   UNL     1       3.512  -5.317  -1.771  0.00  0.00    -0.273 OA
ATOM     19  H   UNL     1       4.052   0.684   2.452  0.00  0.00    +0.160 HD
ENDROOT
BRANCH   1  23
ATOM     20  C   UNL     1      -0.017   1.378   0.010  0.00  0.00    +0.000 A 
ATOM     21  C   UNL     1       1.171   2.086   0.002  0.00  0.00    +0.000 A 
ATOM     22  C   UNL     1       2.377   1.411  -0.013  0.00  0.00    +0.005 A 
ATOM     23  C   UNL     1       2.396   0.029  -0.020  0.00  0.00    -0.025 A 
ATOM     24  C   UNL     1       1.208  -0.679  -0.012  0.00  0.00    +0.005 A 
ATOM     25  C   UNL     1       0.002  -0.004   0.002  0.00  0.00    +0.000 A 
ENDBRANCH   1  23
BRANCH  16  26
ATOM     26  C   UNL     1       2.617  -3.540  -3.897  0.00  0.00    +0.058 A 
ATOM     27  C   UNL     1       3.502  -3.664  -4.959  0.00  0.00    +0.025 A 
ATOM     28  C   UNL     1       3.034  -4.006  -6.212  0.00  0.00    +0.002 A 
ATOM     29  C   UNL     1       1.682  -4.227  -6.420  0.00  0.00    +0.001 A 
ATOM     30  C   UNL     1       0.789  -4.107  -5.377  0.00  0.00    +0.015 A 
ATOM     31  C   UNL     1       1.249  -3.767  -4.102  0.00  0.00    +0.059 A 
BRANCH  31  32
ATOM     32  C   UNL     1       0.299  -3.643  -2.980  0.00  0.00    +0.246 C 
ATOM     33  O   UNL     1       0.702  -3.342  -1.873  0.00  0.00    -0.270 OA
ATOM     34  N   UNL     1      -1.015  -3.863  -3.182  0.00  0.00    -0.308 N 
ATOM     35  H   UNL     1      -1.337  -4.103  -4.065  0.00  0.00    +0.149 HD
BRANCH  34  36
ATOM     36  C   UNL     1      -1.958  -3.739  -2.067  0.00  0.00    +0.073 C 
ATOM     37  C   UNL     1      -2.071  -5.084  -1.319  0.00  0.00    +0.022 C 
ATOM     38  C   UNL     1      -3.565  -5.174  -0.923  0.00  0.00    +0.002 C 
ATOM     39  C   UNL     1      -4.282  -4.572  -2.157  0.00  0.00    +0.002 C 
ATOM     40  C   UNL     1      -3.364  -3.414  -2.600  0.00  0.00    +0.022 C 
ENDBRANCH  34  36
ENDBRANCH  31  32
ENDBRANCH  16  26
TORSDOF 4
