REMARK  Name = ZINC39668430
REMARK  10 active torsions:
REMARK  status: ('A' for Active; 'I' for Inactive)
REMARK    1  A    between atoms: C_1  and  C_2
REMARK    2  A    between atoms: C_2  and  C_4
REMARK    3  A    between atoms: C_2  and  O_31
REMARK    4  A    between atoms: C_4  and  N_5
REMARK    5  A    between atoms: C_6  and  C_8
REMARK    6  A    between atoms: C_19  and  C_21
REMARK    7  A    between atoms: C_26  and  O_27
REMARK    8  A    between atoms: O_27  and  C_28
REMARK    9  A    between atoms: C_28  and  C_30
REMARK   10  A    between atoms: O_31  and  C_32
REMARK                            x       y       z     vdW  Elec       q    Type
REMARK                         _______ _______ _______ _____ _____    ______ ____
ROOT
ATOM      1  C   UNL     1      -2.549  -4.296   0.465  0.00  0.00    +0.100 C 
ATOM      2  C   UNL     1      -1.887  -4.668   1.810  0.00  0.00    +0.121 C 
ATOM      3  N   UNL     1      -3.019  -4.832   2.752  0.00  0.00    -0.296 N 
ATOM      4  C   UNL     1      -4.068  -5.510   1.954  0.00  0.00    +0.115 C 
ATOM      5  C   UNL     1      -3.979  -4.854   0.561  0.00  0.00    -0.004 C 
ATOM      6  C   UNL     1      -4.216  -5.894  -0.529  0.00  0.00    -0.010 C 
ATOM      7  C   UNL     1      -5.662  -6.391  -0.449  0.00  0.00    -0.082 C 
ATOM      8  N   UNL     1      -6.580  -5.258  -0.618  0.00  0.00    +0.379 N 
ATOM      9  C   UNL     1      -6.411  -4.307   0.487  0.00  0.00    -0.082 C 
ATOM     10  C   UNL     1      -4.996  -3.722   0.447  0.00  0.00    -0.010 C 
ATOM     11  C   UNL     1      -3.080  -4.451   4.044  0.00  0.00    +0.250 C 
ATOM     12  O   UNL     1      -4.065  -4.711   4.708  0.00  0.00    -0.270 OA
ATOM     13  H   UNL     1      -6.383  -4.795  -1.493  0.00  0.00    -0.086 HD
ATOM     14  H   UNL     1      -7.531  -5.596  -0.626  0.00  0.00    -0.086 HD
ENDROOT
BRANCH  11  15
ATOM     15  C   UNL     1      -1.952  -3.719   4.652  0.00  0.00    +0.079 A 
ATOM     16  C   UNL     1      -0.639  -4.030   4.295  0.00  0.00    +0.017 A 
ATOM     17  C   UNL     1       0.410  -3.342   4.866  0.00  0.00    +0.001 A 
ATOM     18  C   UNL     1       0.167  -2.342   5.793  0.00  0.00    +0.004 A 
ATOM     19  C   UNL     1      -1.127  -2.024   6.154  0.00  0.00    +0.047 A 
ATOM     20  C   UNL     1      -2.194  -2.703   5.586  0.00  0.00    +0.144 A 
BRANCH  20  21
ATOM     21  O   UNL     1      -3.467  -2.387   5.936  0.00  0.00    -0.425 OA
BRANCH  21  22
ATOM     22  C   UNL     1      -4.195  -1.657   5.076  0.00  0.00    +0.309 C 
ATOM     23  O   UNL     1      -3.745  -1.375   3.991  0.00  0.00    -0.251 OA
ATOM     24  C   UNL     1      -5.573  -1.187   5.465  0.00  0.00    +0.136 C 
ENDBRANCH  21  22
ENDBRANCH  20  21
ENDBRANCH  11  15
BRANCH   1  26
ATOM     25  N   UNL     1      -2.714  -2.267  -0.940  0.00  0.00    -0.312 N 
ATOM     26  C   UNL     1      -2.580  -2.800   0.291  0.00  0.00    +0.218 C 
ATOM     27  O   UNL     1      -2.483  -2.075   1.258  0.00  0.00    -0.275 OA
ATOM     28  H   UNL     1      -2.792  -2.847  -1.714  0.00  0.00    +0.149 HD
BRANCH  25  29
ATOM     29  C   UNL     1      -2.744  -0.812  -1.109  0.00  0.00    +0.148 C 
BRANCH  29  31
ATOM     30  C   UNL     1      -2.810   1.041  -2.784  0.00  0.00    +0.053 C 
ATOM     31  C   UNL     1      -2.904  -0.474  -2.592  0.00  0.00    +0.187 C 
BRANCH  31  32
ATOM     32  O   UNL     1      -4.177  -0.934  -3.051  0.00  0.00    -0.486 OA
BRANCH  32  33
ATOM     33  C   UNL     1      -4.298  -1.190  -4.380  0.00  0.00    +0.139 A 
ATOM     34  C   UNL     1      -3.192  -1.104  -5.219  0.00  0.00    +0.049 A 
ATOM     35  C   UNL     1      -3.365  -1.373  -6.567  0.00  0.00    +0.023 A 
ATOM     36  C   UNL     1      -4.621  -1.717  -7.031  0.00  0.00    +0.111 A 
ATOM     37  N   UNL     1      -5.649  -1.790  -6.209  0.00  0.00    -0.260 NA
ATOM     38  C   UNL     1      -5.526  -1.546  -4.919  0.00  0.00    +0.156 A 
ENDBRANCH  32  33
ENDBRANCH  31  32
ENDBRANCH  29  31
ENDBRANCH  25  29
ENDBRANCH   1  26
TORSDOF 8
