REMARK  Name = ZINC09521073
REMARK  18 active torsions:
REMARK  status: ('A' for Active; 'I' for Inactive)
REMARK    1  A    between atoms: C_1  and  C_2
REMARK    2  A    between atoms: C_2  and  O_3
REMARK    3  A    between atoms: O_3  and  C_4
REMARK    4  A    between atoms: C_4  and  C_6
REMARK    5  A    between atoms: C_7  and  C_35
REMARK    6  A    between atoms: C_8  and  C_30
REMARK    7  A    between atoms: C_10  and  N_11
REMARK    8  A    between atoms: C_12  and  C_14
REMARK    9  A    between atoms: C_14  and  S_15
REMARK   10  A    between atoms: S_15  and  C_16
REMARK   11  A    between atoms: N_22  and  C_23
REMARK   12  A    between atoms: C_23  and  C_24
REMARK   13  A    between atoms: C_23  and  C_25
REMARK   14  A    between atoms: C_23  and  C_26
REMARK   15  A    between atoms: C_27  and  O_29
REMARK   16  A    between atoms: C_30  and  O_32
REMARK   17  A    between atoms: O_32  and  C_33
REMARK   18  A    between atoms: C_33  and  C_34
REMARK                            x       y       z     vdW  Elec       q    Type
REMARK                         _______ _______ _______ _____ _____    ______ ____
ROOT
ATOM      1  N   UNL     1      -1.279  -2.329  -2.491  0.00  0.00    -0.279 N 
ATOM      2  C   UNL     1      -1.322  -3.183  -3.533  0.00  0.00    +0.228 C 
ATOM      3  O   UNL     1      -1.367  -4.379  -3.335  0.00  0.00    -0.275 OA
ATOM      4  H   UNL     1      -1.243  -1.373  -2.649  0.00  0.00    +0.155 HD
ENDROOT
BRANCH   1   9
ATOM      5  C   UNL     1      -1.248  -2.099   0.003  0.00  0.00    +0.091 A 
ATOM      6  C   UNL     1      -1.259  -2.821   1.185  0.00  0.00    -0.014 A 
ATOM      7  C   UNL     1      -1.319  -4.186   1.096  0.00  0.00    +0.102 A 
ATOM      8  S   UNL     1      -1.346  -4.463  -0.665  0.00  0.00    -0.066 S 
ATOM      9  C   UNL     1      -1.287  -2.815  -1.199  0.00  0.00    +0.087 A 
ATOM     10  C   UNL     1      -1.213  -2.129   2.523  0.00  0.00    +0.046 C 
BRANCH   5  11
ATOM     11  C   UNL     1      -1.191  -0.632   0.010  0.00  0.00    +0.342 C 
ATOM     12  O   UNL     1      -2.220   0.016   0.023  0.00  0.00    -0.245 OA
BRANCH  11  13
ATOM     13  O   UNL     1       0.002  -0.004   0.002  0.00  0.00    -0.461 OA
BRANCH  13  15
ATOM     14  C   UNL     1       1.418   1.977  -0.001  0.00  0.00    +0.048 C 
ATOM     15  C   UNL     1      -0.018   1.448   0.010  0.00  0.00    +0.229 C 
ENDBRANCH  13  15
ENDBRANCH  11  13
ENDBRANCH   5  11
BRANCH   7  16
ATOM     16  C   UNL     1      -1.348  -5.172   2.176  0.00  0.00    +0.346 C 
ATOM     17  O   UNL     1      -1.323  -4.805   3.335  0.00  0.00    -0.244 OA
BRANCH  16  18
ATOM     18  O   UNL     1      -1.402  -6.489   1.886  0.00  0.00    -0.461 OA
BRANCH  18  19
ATOM     19  C   UNL     1      -1.427  -7.396   2.990  0.00  0.00    +0.229 C 
ATOM     20  C   UNL     1      -1.488  -8.833   2.469  0.00  0.00    +0.048 C 
ENDBRANCH  18  19
ENDBRANCH  16  18
ENDBRANCH   7  16
ENDBRANCH   1   9
BRANCH   2  21
ATOM     21  C   UNL     1      -1.314  -2.653  -4.943  0.00  0.00    +0.173 C 
BRANCH  21  22
ATOM     22  S   UNL     1      -1.379  -4.036  -6.109  0.00  0.00    -0.077 S 
BRANCH  22  23
ATOM     23  C   UNL     1      -1.358  -3.153  -7.633  0.00  0.00    +0.194 A 
ATOM     24  N   UNL     1      -1.389  -3.836  -8.766  0.00  0.00    -0.202 NA
ATOM     25  C   UNL     1      -1.380  -3.205  -9.937  0.00  0.00    +0.167 A 
ATOM     26  C   UNL     1      -1.325  -1.797  -9.952  0.00  0.00    +0.100 A 
ATOM     27  C   UNL     1      -1.321  -1.398 -11.307  0.00  0.00    +0.149 A 
ATOM     28  N   UNL     1      -1.369  -2.465 -12.052  0.00  0.00    -0.176 NA
ATOM     29  N   UNL     1      -1.407  -3.606 -11.240  0.00  0.00    -0.241 N 
ATOM     30  C   UNL     1      -1.287  -1.115  -8.722  0.00  0.00    +0.227 A 
ATOM     31  N   UNL     1      -1.305  -1.826  -7.604  0.00  0.00    -0.187 NA
BRANCH  29  32
ATOM     32  C   UNL     1      -1.465  -4.992 -11.710  0.00  0.00    +0.058 C 
ATOM     33  C   UNL     1      -2.737  -5.657 -11.180  0.00  0.00    +0.036 C 
ATOM     34  C   UNL     1      -1.479  -5.012 -13.240  0.00  0.00    +0.036 C 
ATOM     35  C   UNL     1      -0.241  -5.756 -11.202  0.00  0.00    +0.036 C 
ENDBRANCH  29  32
BRANCH  30  36
ATOM     36  O   UNL     1      -1.234   0.237  -8.681  0.00  0.00    -0.492 OA
ATOM     37  H   UNL     1      -0.336   0.595  -8.677  0.00  0.00    +0.294 HD
ENDBRANCH  30  36
ENDBRANCH  22  23
ENDBRANCH  21  22
ENDBRANCH   2  21
TORSDOF 12
