REMARK  Name = ZINC46896560
REMARK  9 active torsions:
REMARK  status: ('A' for Active; 'I' for Inactive)
REMARK    1  A    between atoms: C_1  and  C_2
REMARK    2  A    between atoms: C_2  and  C_3
REMARK    3  A    between atoms: C_2  and  C_4
REMARK    4  A    between atoms: C_2  and  C_5
REMARK    5  A    between atoms: C_5  and  C_7
REMARK    6  A    between atoms: C_5  and  N_13
REMARK    7  A    between atoms: N_16  and  N_17
REMARK    8  A    between atoms: C_18  and  C_20
REMARK    9  A    between atoms: C_22  and  C_26
REMARK                            x       y       z     vdW  Elec       q    Type
REMARK                         _______ _______ _______ _____ _____    ______ ____
ROOT
ATOM      1  N   UNL     1       0.738  -1.962  -1.265  0.00  0.00    -0.291 N 
ATOM      2  C   UNL     1      -0.315  -2.648  -1.752  0.00  0.00    +0.316 C 
ATOM      3  O   UNL     1      -1.282  -2.051  -2.184  0.00  0.00    -0.251 OA
ATOM      4  N   UNL     1      -0.297  -3.995  -1.759  0.00  0.00    -0.218 N 
ATOM      5  H   UNL     1       1.509  -2.439  -0.920  0.00  0.00    +0.151 HD
ATOM      6  H   UNL     1      -1.055  -4.489  -2.110  0.00  0.00    +0.174 HD
ENDROOT
BRANCH   4   7
ATOM      7  N   UNL     1       0.817  -4.684  -1.261  0.00  0.00    -0.228 N 
ATOM      8  C   UNL     1       0.835  -6.031  -1.268  0.00  0.00    +0.278 C 
ATOM      9  O   UNL     1      -0.115  -6.650  -1.708  0.00  0.00    -0.267 OA
ATOM     10  H   UNL     1       1.575  -4.190  -0.910  0.00  0.00    +0.173 HD
BRANCH   8  11
ATOM     11  C   UNL     1       2.006  -6.754  -0.744  0.00  0.00    +0.122 A 
ATOM     12  C   UNL     1       2.175  -8.125  -0.690  0.00  0.00    +0.062 A 
ATOM     13  C   UNL     1       3.443  -8.319  -0.112  0.00  0.00    +0.093 A 
ATOM     14  N   UNL     1       3.951  -7.132   0.140  0.00  0.00    -0.173 NA
ATOM     15  N   UNL     1       3.142  -6.203  -0.222  0.00  0.00    -0.272 N 
ATOM     16  H   UNL     1       3.310  -5.252  -0.135  0.00  0.00    +0.189 HD
BRANCH  13  17
ATOM     17  C   UNL     1       4.090  -9.627   0.162  0.00  0.00    +0.002 A 
ATOM     18  C   UNL     1       3.436 -10.813  -0.163  0.00  0.00    +0.010 A 
ATOM     19  C   UNL     1       4.042 -12.026   0.095  0.00  0.00    +0.001 A 
ATOM     20  C   UNL     1       5.297 -12.065   0.675  0.00  0.00    +0.000 A 
ATOM     21  C   UNL     1       5.951 -10.890   1.000  0.00  0.00    +0.001 A 
ATOM     22  C   UNL     1       5.356  -9.672   0.741  0.00  0.00    +0.010 A 
ENDBRANCH  13  17
ENDBRANCH   8  11
ENDBRANCH   4   7
BRANCH   1  23
ATOM     23  C   UNL     1       0.718  -0.497  -1.257  0.00  0.00    +0.110 C 
BRANCH  23  24
ATOM     24  C   UNL     1       2.132   0.024  -1.268  0.00  0.00    -0.027 A 
ATOM     25  C   UNL     1       3.106  -0.605  -0.515  0.00  0.00    +0.005 A 
ATOM     26  C   UNL     1       4.403  -0.126  -0.525  0.00  0.00    +0.000 A 
ATOM     27  C   UNL     1       4.726   0.981  -1.288  0.00  0.00    +0.000 A 
ATOM     28  C   UNL     1       3.752   1.609  -2.041  0.00  0.00    +0.000 A 
ATOM     29  C   UNL     1       2.456   1.128  -2.034  0.00  0.00    +0.005 A 
ENDBRANCH  23  24
BRANCH  23  31
ATOM     30  C   UNL     1      -0.019   1.526   0.010  0.00  0.00    +0.013 C 
ATOM     31  C   UNL     1       0.002  -0.004   0.002  0.00  0.00    -0.015 C 
ATOM     32  C   UNL     1       0.742  -0.511   1.242  0.00  0.00    +0.013 C 
ATOM     33  C   UNL     1      -1.433  -0.534   0.013  0.00  0.00    +0.013 C 
ENDBRANCH  23  31
ENDBRANCH   1  23
TORSDOF 6
