REMARK  Name = ZINC67058363
REMARK  7 active torsions:
REMARK  status: ('A' for Active; 'I' for Inactive)
REMARK    1  A    between atoms: C_1  and  C_2
REMARK    2  A    between atoms: C_5  and  N_26
REMARK    3  A    between atoms: C_7  and  C_8
REMARK    4  A    between atoms: N_10  and  C_11
REMARK    5  A    between atoms: C_16  and  O_17
REMARK    6  A    between atoms: O_17  and  C_18
REMARK    7  A    between atoms: C_18  and  C_19
REMARK                            x       y       z     vdW  Elec       q    Type
REMARK                         _______ _______ _______ _____ _____    ______ ____
ROOT
ATOM      1  C   UNL     1       0.788  -0.196   2.602  0.00  0.00    +0.249 C 
ATOM      2  O   UNL     1       1.211   0.942   2.663  0.00  0.00    -0.270 OA
ATOM      3  N   UNL     1       0.422  -0.840   3.728  0.00  0.00    -0.279 N 
ATOM      4  H   UNL     1       0.161  -1.773   3.690  0.00  0.00    +0.155 HD
ENDROOT
BRANCH   1  11
ATOM      5  C   UNL     1       1.746   1.132   0.217  0.00  0.00    +0.044 C 
ATOM      6  C   UNL     1       1.132  -0.242   0.136  0.00  0.00    -0.038 A 
ATOM      7  C   UNL     1       1.028  -0.882  -1.082  0.00  0.00    +0.006 A 
ATOM      8  C   UNL     1       0.465  -2.143  -1.158  0.00  0.00    +0.033 A 
ATOM      9  C   UNL     1       0.003  -2.772  -0.015  0.00  0.00    +0.127 A 
ATOM     10  C   UNL     1       0.101  -2.143   1.209  0.00  0.00    +0.046 A 
ATOM     11  C   UNL     1       0.674  -0.873   1.293  0.00  0.00    +0.042 A 
BRANCH   9  12
ATOM     12  N   UNL     1      -0.599  -4.121  -0.106  0.00  0.00    +0.056 N 
ATOM     13  O   UNL     1      -0.686  -4.673  -1.179  0.00  0.00    -0.126 OA
ATOM     14  O   UNL     1      -1.003  -4.671   0.891  0.00  0.00    -0.126 OA
ENDBRANCH   9  12
ENDBRANCH   1  11
BRANCH   3  15
ATOM     15  C   UNL     1       0.419  -0.162   4.954  0.00  0.00    +0.076 A 
ATOM     16  C   UNL     1       0.288   1.219   4.984  0.00  0.00    +0.027 A 
ATOM     17  C   UNL     1       0.285   1.886   6.194  0.00  0.00    +0.002 A 
ATOM     18  C   UNL     1       0.412   1.181   7.377  0.00  0.00    +0.004 A 
ATOM     19  C   UNL     1       0.543  -0.195   7.354  0.00  0.00    +0.047 A 
ATOM     20  C   UNL     1       0.542  -0.872   6.146  0.00  0.00    +0.142 A 
BRANCH  20  21
ATOM     21  O   UNL     1       0.665  -2.226   6.122  0.00  0.00    -0.488 OA
BRANCH  21  22
ATOM     22  C   UNL     1       0.786  -2.888   7.383  0.00  0.00    +0.260 C 
BRANCH  22  23
ATOM     23  C   UNL     1       0.914  -4.396   7.157  0.00  0.00    +0.156 C 
ATOM     24  C   UNL     1       0.919  -5.116   8.508  0.00  0.00    +0.035 C 
ATOM     25  C   UNL     1       1.108  -6.619   8.276  0.00  0.00    +0.005 C 
ATOM     26  C   UNL     1       2.404  -6.844   7.492  0.00  0.00    +0.028 C 
ATOM     27  C   UNL     1       2.342  -6.058   6.180  0.00  0.00    +0.160 C 
ATOM     28  O   UNL     1       2.134  -4.673   6.466  0.00  0.00    -0.373 OA
ENDBRANCH  22  23
ENDBRANCH  21  22
ENDBRANCH  20  21
ENDBRANCH   3  15
TORSDOF 6
