REMARK  Name = ZINC51060123
REMARK  10 active torsions:
REMARK  status: ('A' for Active; 'I' for Inactive)
REMARK    1  A    between atoms: C_1  and  C_2
REMARK    2  A    between atoms: C_2  and  C_3
REMARK    3  A    between atoms: C_3  and  C_4
REMARK    4  A    between atoms: C_4  and  N_5
REMARK    5  A    between atoms: C_6  and  C_8
REMARK    6  A    between atoms: N_13  and  C_15
REMARK    7  A    between atoms: C_15  and  C_17
REMARK    8  A    between atoms: C_15  and  C_18
REMARK    9  A    between atoms: C_24  and  C_30
REMARK   10  A    between atoms: C_25  and  C_29
REMARK                            x       y       z     vdW  Elec       q    Type
REMARK                         _______ _______ _______ _____ _____    ______ ____
ROOT
ATOM      1  C   UNL     1       2.400  -4.287   4.011  0.00  0.00    +0.058 C 
ATOM      2  C   UNL     1       1.827  -3.801   5.346  0.00  0.00    +0.009 C 
ATOM      3  C   UNL     1       2.615  -4.442   6.492  0.00  0.00    -0.018 C 
ATOM      4  C   UNL     1       2.555  -5.965   6.356  0.00  0.00    -0.078 C 
ATOM      5  N   UNL     1       3.141  -6.369   5.072  0.00  0.00    +0.387 N 
ATOM      6  C   UNL     1       2.349  -5.816   3.966  0.00  0.00    -0.065 C 
ATOM      7  H   UNL     1       4.087  -6.022   5.012  0.00  0.00    -0.081 HD
ENDROOT
BRANCH   1   9
ATOM      8  N   UNL     1       1.482  -2.389   2.719  0.00  0.00    -0.315 N 
ATOM      9  C   UNL     1       1.584  -3.723   2.877  0.00  0.00    +0.214 C 
ATOM     10  O   UNL     1       1.018  -4.470   2.107  0.00  0.00    -0.276 OA
ATOM     11  H   UNL     1       1.935  -1.791   3.335  0.00  0.00    +0.149 HD
BRANCH   8  12
ATOM     12  C   UNL     1       0.689  -1.840   1.616  0.00  0.00    +0.104 C 
BRANCH  12  13
ATOM     13  C   UNL     1       0.739  -0.312   1.663  0.00  0.00    +0.018 C 
BRANCH  13  15
ATOM     14  C   UNL     1      -0.041   1.790   0.559  0.00  0.00    +0.004 C 
ATOM     15  C   UNL     1      -0.090   0.261   0.512  0.00  0.00    -0.002 C 
ENDBRANCH  13  15
ENDBRANCH  12  13
ENDBRANCH   8  12
ENDBRANCH   1   9
BRANCH   5  16
ATOM     16  C   UNL     1       3.152  -7.835   4.980  0.00  0.00    -0.004 C 
ATOM     17  C   UNL     1       1.714  -8.352   4.915  0.00  0.00    -0.005 C 
BRANCH  16  18
ATOM     18  C   UNL     1       3.893  -8.254   3.736  0.00  0.00    +0.097 A 
ATOM     19  N   UNL     1       3.907  -9.564   3.378  0.00  0.00    -0.312 N 
ATOM     20  H   UNL     1       3.438 -10.211   3.927  0.00  0.00    +0.170 HD
ATOM     21  C   UNL     1       4.556  -9.981   2.275  0.00  0.00    +0.260 A 
ATOM     22  O   UNL     1       4.558 -11.160   1.967  0.00  0.00    -0.267 OA
ATOM     23  C   UNL     1       5.245  -9.017   1.469  0.00  0.00    +0.075 A 
ATOM     24  C   UNL     1       6.007  -9.212   0.250  0.00  0.00    -0.026 A 
ATOM     25  C   UNL     1       6.574  -8.151  -0.345  0.00  0.00    -0.008 A 
ATOM     26  S   UNL     1       6.115  -6.790   0.711  0.00  0.00    -0.073 S 
ATOM     27  C   UNL     1       5.175  -7.686   1.921  0.00  0.00    +0.116 A 
ATOM     28  N   UNL     1       4.507  -7.351   3.020  0.00  0.00    -0.228 NA
ATOM     29  C   UNL     1       7.402  -8.118  -1.604  0.00  0.00    +0.052 C 
ATOM     30  C   UNL     1       6.160 -10.590  -0.341  0.00  0.00    +0.045 C 
ENDBRANCH  16  18
ENDBRANCH   5  16
TORSDOF 6
