REMARK  Name = ZINC56719489
REMARK  3 active torsions:
REMARK  status: ('A' for Active; 'I' for Inactive)
REMARK    1  A    between atoms: C_1  and  C_2
REMARK    2  A    between atoms: C_7  and  C_8
REMARK    3  A    between atoms: N_16  and  C_17
REMARK                            x       y       z     vdW  Elec       q    Type
REMARK                         _______ _______ _______ _____ _____    ______ ____
ROOT
ATOM      1  C   UNL     1       0.018   0.063   2.517  0.00  0.00    +0.108 C 
ATOM      2  C   UNL     1       1.439   0.566   2.846  0.00  0.00    +0.029 C 
ATOM      3  C   UNL     1       1.533   0.361   4.381  0.00  0.00    +0.021 C 
ATOM      4  C   UNL     1       0.718  -0.943   4.572  0.00  0.00    +0.110 C 
ATOM      5  N   UNL     1      -0.392  -0.840   3.602  0.00  0.00    -0.278 N 
ATOM      6  C   UNL     1      -1.581  -1.468   3.695  0.00  0.00    +0.307 C 
ATOM      7  O   UNL     1      -2.422  -1.308   2.832  0.00  0.00    -0.252 OA
ATOM      8  N   UNL     1      -1.837  -2.275   4.744  0.00  0.00    -0.266 N 
ATOM      9  H   UNL     1      -1.139  -2.468   5.389  0.00  0.00    +0.156 HD
ENDROOT
BRANCH   8  10
ATOM     10  C   UNL     1      -3.112  -2.834   4.903  0.00  0.00    +0.080 A 
ATOM     11  C   UNL     1      -4.219  -2.209   4.346  0.00  0.00    +0.027 A 
ATOM     12  C   UNL     1      -5.476  -2.760   4.503  0.00  0.00    +0.006 A 
ATOM     13  C   UNL     1      -5.636  -3.933   5.216  0.00  0.00    +0.049 A 
ATOM     14  C   UNL     1      -4.535  -4.565   5.778  0.00  0.00    +0.164 A 
ATOM     15  C   UNL     1      -3.269  -4.020   5.616  0.00  0.00    +0.183 A 
ATOM     16  O   UNL     1      -2.174  -4.630   6.148  0.00  0.00    -0.483 OA
ATOM     17  C   UNL     1      -2.413  -5.608   7.165  0.00  0.00    +0.270 C 
ATOM     18  C   UNL     1      -3.547  -6.527   6.691  0.00  0.00    +0.270 C 
ATOM     19  O   UNL     1      -4.713  -5.717   6.480  0.00  0.00    -0.485 OA
ENDBRANCH   8  10
BRANCH   1  26
ATOM     20  C   UNL     1      -0.025   1.523   0.024  0.00  0.00    +0.044 C 
ATOM     21  C   UNL     1       0.008   0.017   0.014  0.00  0.00    -0.046 A 
ATOM     22  C   UNL     1       0.023  -0.666  -1.188  0.00  0.00    +0.004 A 
ATOM     23  C   UNL     1       0.054  -2.048  -1.197  0.00  0.00    +0.000 A 
ATOM     24  C   UNL     1       0.069  -2.747  -0.004  0.00  0.00    +0.000 A 
ATOM     25  C   UNL     1       0.054  -2.064   1.198  0.00  0.00    +0.006 A 
ATOM     26  C   UNL     1       0.028  -0.682   1.207  0.00  0.00    -0.024 A 
ENDBRANCH   1  26
TORSDOF 2
