REMARK  Name = ZINC36206523
REMARK  11 active torsions:
REMARK  status: ('A' for Active; 'I' for Inactive)
REMARK    1  A    between atoms: C_1  and  C_2
REMARK    2  A    between atoms: C_5  and  C_35
REMARK    3  A    between atoms: C_6  and  C_8
REMARK    4  A    between atoms: C_17  and  C_19
REMARK    5  A    between atoms: C_19  and  N_20
REMARK    6  A    between atoms: N_20  and  C_21
REMARK    7  A    between atoms: N_20  and  C_32
REMARK    8  A    between atoms: C_21  and  C_22
REMARK    9  A    between atoms: C_22  and  C_24
REMARK   10  A    between atoms: C_22  and  O_31
REMARK   11  A    between atoms: C_24  and  C_25
REMARK                            x       y       z     vdW  Elec       q    Type
REMARK                         _______ _______ _______ _____ _____    ______ ____
ROOT
ATOM      1  C   UNL     1       0.688  -3.683   1.058  0.00  0.00    +0.004 A 
ATOM      2  C   UNL     1      -0.392  -3.278   1.770  0.00  0.00    +0.056 A 
ATOM      3  S   UNL     1      -0.047  -3.870   3.416  0.00  0.00    -0.076 S 
ATOM      4  C   UNL     1       1.522  -4.641   3.112  0.00  0.00    +0.116 A 
ATOM      5  C   UNL     1       1.740  -4.425   1.742  0.00  0.00    +0.080 A 
ATOM      6  C   UNL     1       2.960  -4.959   1.216  0.00  0.00    +0.260 A 
ATOM      7  O   UNL     1       3.240  -4.819   0.038  0.00  0.00    -0.267 OA
ATOM      8  N   UNL     1       3.793  -5.617   2.043  0.00  0.00    -0.312 N 
ATOM      9  H   UNL     1       4.621  -5.981   1.692  0.00  0.00    +0.170 HD
ATOM     10  C   UNL     1       3.498  -5.782   3.358  0.00  0.00    +0.094 A 
ATOM     11  N   UNL     1       2.397  -5.299   3.869  0.00  0.00    -0.229 NA
ENDROOT
BRANCH   1  17
ATOM     12  C   UNL     1       1.121  -0.362  -2.644  0.00  0.00    +0.044 C 
ATOM     13  C   UNL     1       1.002  -1.788  -2.173  0.00  0.00    -0.050 A 
ATOM     14  C   UNL     1       0.990  -2.821  -3.093  0.00  0.00    +0.003 A 
ATOM     15  C   UNL     1       0.880  -4.133  -2.668  0.00  0.00    +0.004 A 
ATOM     16  C   UNL     1       0.781  -4.419  -1.322  0.00  0.00    -0.043 A 
ATOM     17  C   UNL     1       0.793  -3.382  -0.389  0.00  0.00    -0.013 A 
ATOM     18  C   UNL     1       0.910  -2.062  -0.824  0.00  0.00    +0.012 A 
ATOM     19  C   UNL     1       0.661  -5.848  -0.860  0.00  0.00    +0.044 C 
ENDBRANCH   1  17
BRANCH  10  20
ATOM     20  C   UNL     1       4.462  -6.527   4.245  0.00  0.00    -0.003 C 
BRANCH  20  21
ATOM     21  N   UNL     1       3.929  -6.576   5.614  0.00  0.00    +0.388 N 
ATOM     22  H   UNL     1       3.731  -5.639   5.931  0.00  0.00    -0.081 HD
BRANCH  21  23
ATOM     23  C   UNL     1       2.693  -7.370   5.630  0.00  0.00    -0.068 C 
ATOM     24  C   UNL     1       1.398  -6.652   6.014  0.00  0.00    -0.017 C 
ATOM     25  C   UNL     1       2.044  -7.638   6.989  0.00  0.00    -0.017 C 
ENDBRANCH  21  23
BRANCH  21  26
ATOM     26  C   UNL     1       4.921  -7.195   6.503  0.00  0.00    -0.046 C 
BRANCH  26  27
ATOM     27  C   UNL     1       5.327  -8.560   5.943  0.00  0.00    +0.102 C 
BRANCH  27  28
ATOM     28  O   UNL     1       4.193  -9.430   5.941  0.00  0.00    -0.393 OA
ATOM     29  H   UNL     1       3.813  -9.583   6.817  0.00  0.00    +0.210 HD
ENDBRANCH  27  28
BRANCH  27  30
ATOM     30  C   UNL     1       6.430  -9.162   6.815  0.00  0.00    +0.064 C 
BRANCH  30  31
ATOM     31  C   UNL     1       6.916 -10.447   6.195  0.00  0.00    -0.045 A 
ATOM     32  C   UNL     1       6.312 -11.645   6.527  0.00  0.00    +0.004 A 
ATOM     33  C   UNL     1       6.757 -12.824   5.959  0.00  0.00    +0.000 A 
ATOM     34  C   UNL     1       7.806 -12.805   5.058  0.00  0.00    +0.000 A 
ATOM     35  C   UNL     1       8.409 -11.606   4.726  0.00  0.00    +0.000 A 
ATOM     36  C   UNL     1       7.961 -10.427   5.291  0.00  0.00    +0.004 A 
ENDBRANCH  30  31
ENDBRANCH  27  30
ENDBRANCH  26  27
ENDBRANCH  21  26
ENDBRANCH  20  21
ENDBRANCH  10  20
TORSDOF 9
