REMARK  Name = ZINC15543971
REMARK  6 active torsions:
REMARK  status: ('A' for Active; 'I' for Inactive)
REMARK    1  A    between atoms: C_1  and  C_2
REMARK    2  A    between atoms: N_11  and  C_15
REMARK    3  A    between atoms: C_15  and  C_16
REMARK    4  A    between atoms: N_18  and  C_19
REMARK    5  A    between atoms: C_19  and  C_20
REMARK    6  A    between atoms: C_23  and  C_25
REMARK                            x       y       z     vdW  Elec       q    Type
REMARK                         _______ _______ _______ _____ _____    ______ ____
ROOT
ATOM      1  C   UNL     1       2.909   1.266  -1.439  0.00  0.00    +0.231 C 
ATOM      2  O   UNL     1       2.166   1.556  -2.352  0.00  0.00    -0.274 OA
ATOM      3  N   UNL     1       4.141   0.787  -1.699  0.00  0.00    -0.307 N 
ATOM      4  H   UNL     1       4.736   0.555  -0.968  0.00  0.00    +0.149 HD
ENDROOT
BRANCH   1   5
ATOM      5  C   UNL     1       2.453   1.440  -0.013  0.00  0.00    +0.213 C 
BRANCH   5  15
ATOM      6  C   UNL     1      -0.712   3.293   2.520  0.00  0.00    +0.010 C 
ATOM      7  C   UNL     1      -1.213   4.053   1.290  0.00  0.00    +0.018 C 
ATOM      8  C   UNL     1      -2.743   4.086   1.300  0.00  0.00    +0.006 C 
ATOM      9  C   UNL     1      -3.244   4.828   0.059  0.00  0.00    +0.000 C 
ATOM     10  C   UNL     1      -2.767   4.099  -1.199  0.00  0.00    +0.003 C 
ATOM     11  C   UNL     1      -1.237   4.066  -1.219  0.00  0.00    +0.035 C 
ATOM     12  C   UNL     1      -0.725   3.352   0.027  0.00  0.00    +0.115 C 
ATOM     13  C   UNL     1       0.785   3.285   0.012  0.00  0.00    +0.247 C 
ATOM     14  O   UNL     1       1.561   4.217   0.010  0.00  0.00    -0.273 OA
ATOM     15  N   UNL     1       1.088   1.971   0.002  0.00  0.00    -0.215 N 
ATOM     16  C   UNL     1      -0.014   1.211   0.009  0.00  0.00    +0.310 C 
ATOM     17  O   UNL     1       0.002  -0.004   0.002  0.00  0.00    -0.252 OA
ATOM     18  N   UNL     1      -1.144   1.945   0.018  0.00  0.00    -0.285 N 
ATOM     19  H   UNL     1      -2.054   1.610   0.019  0.00  0.00    +0.151 HD
ENDBRANCH   5  15
ENDBRANCH   1   5
BRANCH   3  20
ATOM     20  C   UNL     1       4.584   0.617  -3.085  0.00  0.00    +0.178 C 
BRANCH  20  21
ATOM     21  C   UNL     1       5.989   0.071  -3.100  0.00  0.00    +0.123 A 
ATOM     22  C   UNL     1       6.324  -1.233  -3.105  0.00  0.00    +0.047 A 
ATOM     23  C   UNL     1       7.732  -1.297  -3.124  0.00  0.00    +0.050 A 
ATOM     24  C   UNL     1       8.183  -0.015  -3.120  0.00  0.00    +0.135 A 
ATOM     25  O   UNL     1       7.114   0.805  -3.106  0.00  0.00    -0.458 OA
BRANCH  24  26
ATOM     26  C   UNL     1       9.599   0.407  -3.130  0.00  0.00    +0.017 A 
ATOM     27  C   UNL     1      10.615  -0.550  -3.138  0.00  0.00    +0.012 A 
ATOM     28  C   UNL     1      11.935  -0.149  -3.151  0.00  0.00    +0.016 A 
ATOM     29  C   UNL     1      12.253   1.198  -3.147  0.00  0.00    +0.018 A 
ATOM     30  C   UNL     1      11.250   2.152  -3.133  0.00  0.00    +0.016 A 
ATOM     31  C   UNL     1       9.926   1.764  -3.125  0.00  0.00    +0.012 A 
ATOM     32 BR   UNL     1      14.066   1.738  -3.158  0.00  0.00    -0.050 Br
ENDBRANCH  24  26
ENDBRANCH  20  21
ENDBRANCH   3  20
TORSDOF 5
