REMARK  Name = ZINC14474216
REMARK  6 active torsions:
REMARK  status: ('A' for Active; 'I' for Inactive)
REMARK    1  A    between atoms: C_2  and  C_3
REMARK    2  A    between atoms: C_3  and  N_4
REMARK    3  A    between atoms: N_4  and  S_5
REMARK    4  A    between atoms: S_5  and  C_8
REMARK    5  A    between atoms: C_21  and  C_24
REMARK    6  A    between atoms: C_29  and  O_30
REMARK                            x       y       z     vdW  Elec       q    Type
REMARK                         _______ _______ _______ _____ _____    ______ ____
ROOT
ATOM      1  C   UNL     1       2.963  -2.164  -2.000  0.00  0.00    +0.106 A 
ATOM      2  C   UNL     1       1.938  -2.821  -1.345  0.00  0.00    +0.030 A 
ATOM      3  C   UNL     1       0.959  -2.102  -0.690  0.00  0.00    +0.025 A 
ATOM      4  C   UNL     1       0.996  -0.713  -0.684  0.00  0.00    +0.031 A 
ATOM      5  C   UNL     1       2.028  -0.054  -1.362  0.00  0.00    -0.018 A 
ATOM      6  C   UNL     1       3.005  -0.782  -2.005  0.00  0.00    +0.034 A 
ATOM      7  C   UNL     1       2.002   1.425  -1.372  0.00  0.00    +0.049 C 
ATOM      8  C   UNL     1       3.237   2.233  -1.535  0.00  0.00    -0.023 C 
ATOM      9  C   UNL     1       3.085   3.376  -0.876  0.00  0.00    -0.030 C 
ATOM     10  C   UNL     1       1.722   3.403  -0.182  0.00  0.00    +0.033 C 
ATOM     11  C   UNL     1       1.438   1.905  -0.001  0.00  0.00    +0.029 C 
ATOM     12  C   UNL     1      -0.018   1.475   0.010  0.00  0.00    +0.108 C 
ATOM     13  N   UNL     1       0.002  -0.004   0.002  0.00  0.00    -0.336 N 
ATOM     14  H   UNL     1      -0.686  -0.492   0.481  0.00  0.00    +0.147 HD
ENDROOT
BRANCH  12  15
ATOM     15  C   UNL     1      -0.700   1.979   1.256  0.00  0.00    +0.014 A 
ATOM     16  C   UNL     1      -0.738   1.191   2.390  0.00  0.00    +0.009 A 
ATOM     17  C   UNL     1      -1.359   1.655   3.535  0.00  0.00    +0.001 A 
ATOM     18  C   UNL     1      -1.952   2.904   3.545  0.00  0.00    +0.004 A 
ATOM     19  C   UNL     1      -1.921   3.694   2.412  0.00  0.00    +0.046 A 
ATOM     20  C   UNL     1      -1.294   3.232   1.263  0.00  0.00    +0.122 A 
BRANCH  20  21
ATOM     21  O   UNL     1      -1.263   4.007   0.147  0.00  0.00    -0.506 OA
ATOM     22  H   UNL     1      -2.014   3.872  -0.447  0.00  0.00    +0.292 HD
ENDBRANCH  20  21
ENDBRANCH  12  15
BRANCH   1  23
ATOM     23  S   UNL     1       4.217  -3.087  -2.825  0.00  0.00    +0.059 S 
ATOM     24  O   UNL     1       3.651  -4.353  -3.135  0.00  0.00    -0.153 OA
ATOM     25  O   UNL     1       4.761  -2.232  -3.821  0.00  0.00    -0.153 OA
BRANCH  23  26
ATOM     26  N   UNL     1       5.425  -3.364  -1.727  0.00  0.00    -0.186 NA
ATOM     27  H   UNL     1       6.302  -2.973  -1.862  0.00  0.00    +0.148 HD
BRANCH  26  28
ATOM     28  C   UNL     1       5.168  -4.199  -0.552  0.00  0.00    +0.132 C 
BRANCH  28  30
ATOM     29  C   UNL     1       6.701  -4.343   1.343  0.00  0.00    +0.005 C 
ATOM     30  C   UNL     1       6.479  -4.597   0.078  0.00  0.00    -0.018 C 
ENDBRANCH  28  30
ENDBRANCH  26  28
ENDBRANCH  23  26
ENDBRANCH   1  23
TORSDOF 6
