REMARK  Name = ZINC60280535
REMARK  3 active torsions:
REMARK  status: ('A' for Active; 'I' for Inactive)
REMARK    1  A    between atoms: C_5  and  C_7
REMARK    2  A    between atoms: N_9  and  C_15
REMARK    3  A    between atoms: C_10  and  C_12
REMARK                            x       y       z     vdW  Elec       q    Type
REMARK                         _______ _______ _______ _____ _____    ______ ____
ROOT
ATOM      1  C   UNL     1       1.257  -2.241   0.001  0.00  0.00    +0.175 C 
ATOM      2  C   UNL     1       1.462  -2.802  -1.394  0.00  0.00    +0.101 C 
ATOM      3  N   UNL     1       0.275  -3.436  -1.689  0.00  0.00    -0.275 N 
ATOM      4  C   UNL     1      -0.596  -3.316  -0.643  0.00  0.00    +0.080 C 
ATOM      5  N   UNL     1      -0.111  -2.654   0.352  0.00  0.00    -0.363 N 
ATOM      6  N   UNL     1       2.514  -2.706  -2.138  0.00  0.00    -0.388 N 
ATOM      7  H   UNL     1       3.266  -2.165  -1.848  0.00  0.00    +0.157 HD
ATOM      8  H   UNL     1       2.553  -3.174  -2.986  0.00  0.00    +0.157 HD
ATOM      9  H   UNL     1      -0.567  -2.461   1.186  0.00  0.00    +0.162 HD
ENDROOT
BRANCH   1  14
ATOM     10  C   UNL     1       0.332   1.419  -0.070  0.00  0.00    +0.001 A 
ATOM     11  C   UNL     1       1.576   2.020  -0.034  0.00  0.00    +0.003 A 
ATOM     12  C   UNL     1       2.718   1.244   0.014  0.00  0.00    +0.039 A 
ATOM     13  C   UNL     1       2.616  -0.138   0.025  0.00  0.00    +0.129 A 
ATOM     14  C   UNL     1       1.370  -0.739  -0.011  0.00  0.00    +0.017 A 
ATOM     15  C   UNL     1       0.229   0.040  -0.059  0.00  0.00    +0.009 A 
ATOM     16  F   UNL     1       3.732  -0.898   0.071  0.00  0.00    -0.205 F 
ENDBRANCH   1  14
BRANCH   4  17
ATOM     17  C   UNL     1      -1.984  -3.900  -0.649  0.00  0.00    +0.051 C 
ATOM     18  C   UNL     1      -3.121  -3.026  -0.117  0.00  0.00    +0.011 C 
ATOM     19  C   UNL     1      -2.624  -4.217   0.704  0.00  0.00    +0.011 C 
ENDBRANCH   4  17
BRANCH   3  20
ATOM     20  C   UNL     1      -0.013  -4.138  -2.943  0.00  0.00    +0.081 C 
ATOM     21  C   UNL     1       0.342  -3.424  -4.249  0.00  0.00    +0.025 C 
ATOM     22  C   UNL     1      -1.122  -3.571  -3.831  0.00  0.00    +0.025 C 
ENDBRANCH   3  20
TORSDOF 3
