REMARK  Name = ZINC49874102
REMARK  5 active torsions:
REMARK  status: ('A' for Active; 'I' for Inactive)
REMARK    1  A    between atoms: C_1  and  N_2
REMARK    2  A    between atoms: N_2  and  C_3
REMARK    3  A    between atoms: C_3  and  C_5
REMARK    4  A    between atoms: C_3  and  C_7
REMARK    5  A    between atoms: C_14  and  C_16
REMARK                            x       y       z     vdW  Elec       q    Type
REMARK                         _______ _______ _______ _____ _____    ______ ____
ROOT
ATOM      1  C   UNL     1       0.432  -0.636   1.327  0.00  0.00    +0.209 C 
ENDROOT
BRANCH   1   2
ATOM      2  C   UNL     1       1.793  -0.386   1.922  0.00  0.00    -0.013 A 
ATOM      3  C   UNL     1       2.594  -1.452   2.287  0.00  0.00    +0.008 A 
ATOM      4  C   UNL     1       3.843  -1.224   2.833  0.00  0.00    +0.020 A 
ATOM      5  C   UNL     1       4.292   0.073   3.014  0.00  0.00    +0.041 A 
ATOM      6  C   UNL     1       3.490   1.139   2.649  0.00  0.00    +0.020 A 
ATOM      7  C   UNL     1       2.243   0.909   2.098  0.00  0.00    +0.008 A 
ATOM      8 CL   UNL     1       5.860   0.361   3.701  0.00  0.00    -0.084 Cl
ENDBRANCH   1   2
BRANCH   1  10
ATOM      9  C   UNL     1       0.364   1.494  -0.050  0.00  0.00    +0.133 C 
ATOM     10  N   UNL     1       0.337   0.031   0.026  0.00  0.00    -0.283 N 
ATOM     11  C   UNL     1       0.226  -0.700  -1.101  0.00  0.00    +0.245 C 
ATOM     12  O   UNL     1       0.115  -1.906  -1.032  0.00  0.00    -0.273 OA
BRANCH  11  13
ATOM     13  C   UNL     1       0.241  -0.020  -2.445  0.00  0.00    +0.204 C 
ATOM     14  C   UNL     1      -1.092   0.725  -2.670  0.00  0.00    +0.043 C 
ATOM     15  C   UNL     1      -1.369   0.458  -4.175  0.00  0.00    +0.031 C 
ATOM     16  C   UNL     1      -0.788  -0.970  -4.332  0.00  0.00    +0.161 C 
ATOM     17  O   UNL     1       0.373  -0.999  -3.483  0.00  0.00    -0.367 OA
ENDBRANCH  11  13
ENDBRANCH   1  10
BRANCH   1  18
ATOM     18  C   UNL     1      -0.603  -0.103   2.228  0.00  0.00    +0.090 C 
ATOM     19  N   UNL     1      -1.402   0.308   2.923  0.00  0.00    -0.194 NA
ENDBRANCH   1  18
TORSDOF 4
