REMARK  Name = ZINC15754633
REMARK  19 active torsions:
REMARK  status: ('A' for Active; 'I' for Inactive)
REMARK    1  A    between atoms: C_1  and  C_2
REMARK    2  A    between atoms: C_3  and  C_36
REMARK    3  A    between atoms: C_4  and  C_35
REMARK    4  A    between atoms: C_5  and  S_10
REMARK    5  A    between atoms: C_6  and  C_9
REMARK    6  A    between atoms: C_7  and  C_8
REMARK    7  A    between atoms: S_10  and  N_13
REMARK    8  A    between atoms: N_13  and  C_14
REMARK    9  A    between atoms: C_14  and  C_15
REMARK   10  A    between atoms: C_15  and  C_16
REMARK   11  A    between atoms: C_16  and  O_18
REMARK   12  A    between atoms: O_18  and  C_19
REMARK   13  A    between atoms: C_19  and  C_21
REMARK   14  A    between atoms: C_19  and  C_22
REMARK   15  A    between atoms: C_22  and  C_24
REMARK   16  A    between atoms: C_25  and  C_34
REMARK   17  A    between atoms: C_26  and  C_31
REMARK   18  A    between atoms: C_27  and  C_30
REMARK   19  A    between atoms: C_31  and  C_33
REMARK                            x       y       z     vdW  Elec       q    Type
REMARK                         _______ _______ _______ _____ _____    ______ ____
ROOT
ATOM      1  C   UNL     1      -0.168  -0.896  -0.247  0.00  0.00    +0.137 C 
ENDROOT
BRANCH   1   2
ATOM      2  C   UNL     1      -0.499   0.571  -0.143  0.00  0.00    +0.309 C 
ATOM      3  O   UNL     1       0.388   1.383  -0.029  0.00  0.00    -0.251 OA
BRANCH   2   4
ATOM      4  O   UNL     1      -1.778   0.974  -0.182  0.00  0.00    -0.453 OA
BRANCH   4   5
ATOM      5  C   UNL     1      -2.022   2.402  -0.076  0.00  0.00    +0.245 C 
ATOM      6  C   UNL     1      -2.190   2.782   1.396  0.00  0.00    +0.061 C 
BRANCH   5   7
ATOM      7  C   UNL     1      -3.277   2.754  -0.832  0.00  0.00    +0.219 C 
ATOM      8  O   UNL     1      -4.092   1.892  -1.091  0.00  0.00    -0.287 OA
BRANCH   7   9
ATOM      9  C   UNL     1      -3.506   4.091  -1.240  0.00  0.00    +0.090 A 
ATOM     10  C   UNL     1      -4.605   4.547  -1.934  0.00  0.00    -0.012 A 
ATOM     11  C   UNL     1      -4.418   5.935  -2.128  0.00  0.00    +0.041 A 
ATOM     12  C   UNL     1      -3.206   6.269  -1.541  0.00  0.00    +0.024 A 
ATOM     13  N   UNL     1      -2.669   5.164  -1.007  0.00  0.00    -0.355 N 
ATOM     14  H   UNL     1      -1.824   5.123  -0.534  0.00  0.00    +0.166 HD
ATOM     15  C   UNL     1      -2.599   7.648  -1.503  0.00  0.00    +0.064 C 
ATOM     16  C   UNL     1      -5.780   3.725  -2.397  0.00  0.00    +0.047 C 
BRANCH  11  17
ATOM     17  C   UNL     1      -5.333   6.849  -2.819  0.00  0.00    +0.162 C 
ATOM     18  O   UNL     1      -5.165   7.102  -3.994  0.00  0.00    -0.292 OA
ATOM     19  C   UNL     1      -6.482   7.474  -2.071  0.00  0.00    +0.091 C 
ENDBRANCH  11  17
ENDBRANCH   7   9
ENDBRANCH   5   7
ENDBRANCH   4   5
ENDBRANCH   2   4
ENDBRANCH   1   2
BRANCH   1  20
ATOM     20  C   UNL     1       1.349  -1.083  -0.183  0.00  0.00    +0.117 C 
BRANCH  20  21
ATOM     21  N   UNL     1       1.671  -2.508  -0.284  0.00  0.00    -0.189 NA
ATOM     22  H   UNL     1       0.975  -3.172  -0.158  0.00  0.00    +0.148 HD
BRANCH  21  23
ATOM     23  S   UNL     1       3.221  -2.986  -0.616  0.00  0.00    +0.059 S 
ATOM     24  O   UNL     1       3.216  -4.407  -0.622  0.00  0.00    -0.153 OA
ATOM     25  O   UNL     1       3.652  -2.221  -1.733  0.00  0.00    -0.153 OA
BRANCH  23  30
ATOM     26  C   UNL     1       6.646  -1.296   4.056  0.00  0.00    +0.044 C 
ATOM     27  C   UNL     1       5.790  -1.718   2.889  0.00  0.00    -0.044 A 
ATOM     28  C   UNL     1       5.021  -2.863   2.975  0.00  0.00    -0.043 A 
ATOM     29  C   UNL     1       4.236  -3.250   1.905  0.00  0.00    -0.021 A 
ATOM     30  C   UNL     1       4.221  -2.492   0.749  0.00  0.00    +0.112 A 
ATOM     31  C   UNL     1       4.995  -1.350   0.661  0.00  0.00    -0.021 A 
ATOM     32  C   UNL     1       5.776  -0.960   1.733  0.00  0.00    -0.043 A 
ATOM     33  C   UNL     1       6.615   0.288   1.640  0.00  0.00    +0.044 C 
ATOM     34  C   UNL     1       4.983  -0.527  -0.601  0.00  0.00    +0.046 C 
ATOM     35  C   UNL     1       3.397  -4.499   1.998  0.00  0.00    +0.046 C 
ATOM     36  C   UNL     1       5.037  -3.689   4.235  0.00  0.00    +0.044 C 
ENDBRANCH  23  30
ENDBRANCH  21  23
ENDBRANCH  20  21
ENDBRANCH   1  20
TORSDOF 10
