REMARK  Name = ZINC15860446
REMARK  7 active torsions:
REMARK  status: ('A' for Active; 'I' for Inactive)
REMARK    1  A    between atoms: C_1  and  C_2
REMARK    2  A    between atoms: C_5  and  C_7
REMARK    3  A    between atoms: C_7  and  C_9
REMARK    4  A    between atoms: C_7  and  N_63
REMARK    5  A    between atoms: C_9  and  N_10
REMARK    6  A    between atoms: C_11  and  C_13
REMARK    7  A    between atoms: C_15  and  C_18
REMARK                            x       y       z     vdW  Elec       q    Type
REMARK                         _______ _______ _______ _____ _____    ______ ____
ROOT
ATOM      1  N   UNL     1      -5.858   1.734   3.785  0.00  0.00    -0.311 N 
ATOM      2  C   UNL     1      -6.772   0.783   4.064  0.00  0.00    +0.266 C 
ATOM      3  O   UNL     1      -6.471  -0.391   3.982  0.00  0.00    -0.268 OA
ATOM      4  H   UNL     1      -6.098   2.671   3.851  0.00  0.00    +0.149 HD
ENDROOT
BRANCH   2   5
ATOM      5  C   UNL     1      -8.145   1.171   4.471  0.00  0.00    +0.168 A 
ATOM      6  C   UNL     1      -9.216   0.297   4.790  0.00  0.00    +0.086 A 
ATOM      7  C   UNL     1     -10.246   1.142   5.099  0.00  0.00    +0.168 A 
ATOM      8  O   UNL     1      -9.770   2.390   4.948  0.00  0.00    -0.354 OA
ATOM      9  N   UNL     1      -8.611   2.389   4.602  0.00  0.00    -0.073 NA
BRANCH   7  10
ATOM     10  C   UNL     1     -11.614   0.759   5.509  0.00  0.00    +0.020 A 
ATOM     11  C   UNL     1     -11.964  -0.588   5.622  0.00  0.00    +0.012 A 
ATOM     12  C   UNL     1     -13.242  -0.929   6.002  0.00  0.00    +0.004 A 
ATOM     13  C   UNL     1     -14.188   0.052   6.275  0.00  0.00    -0.044 A 
ATOM     14  C   UNL     1     -13.848   1.384   6.170  0.00  0.00    -0.044 A 
ATOM     15  C   UNL     1     -12.562   1.739   5.791  0.00  0.00    +0.015 A 
ATOM     16  C   UNL     1     -14.822   2.495   6.462  0.00  0.00    +0.035 C 
ATOM     17  C   UNL     1     -16.257   1.972   6.435  0.00  0.00    +0.005 C 
ATOM     18  C   UNL     1     -16.338   0.737   7.340  0.00  0.00    +0.005 C 
ATOM     19  C   UNL     1     -15.570  -0.401   6.671  0.00  0.00    +0.035 C 
ENDBRANCH   7  10
ENDBRANCH   2   5
BRANCH   1  20
ATOM     20  C   UNL     1      -4.502   1.351   3.383  0.00  0.00    +0.097 C 
BRANCH  20  21
ATOM     21  C   UNL     1      -3.672   2.610   3.127  0.00  0.00    +0.016 C 
BRANCH  21  27
ATOM     22  C   UNL     1      -4.611   2.720   0.899  0.00  0.00    -0.078 C 
ATOM     23  C   UNL     1      -5.451   3.582  -0.046  0.00  0.00    -0.019 C 
ATOM     24  C   UNL     1      -4.700   4.883  -0.345  0.00  0.00    -0.004 C 
ATOM     25  C   UNL     1      -4.407   5.608   0.971  0.00  0.00    -0.019 C 
ATOM     26  C   UNL     1      -3.596   4.687   1.886  0.00  0.00    -0.078 C 
ATOM     27  N   UNL     1      -4.384   3.465   2.155  0.00  0.00    +0.387 N 
ATOM     28  H   UNL     1      -5.292   3.735   2.551  0.00  0.00    -0.081 HD
ENDBRANCH  21  27
BRANCH  21  33
ATOM     29  C   UNL     1      -0.063   0.961   0.013  0.00  0.00    +0.086 C 
ATOM     30  C   UNL     1      -0.747   1.502   1.242  0.00  0.00    +0.102 A 
ATOM     31  C   UNL     1      -0.145   1.827   2.400  0.00  0.00    +0.044 A 
ATOM     32  C   UNL     1      -1.156   2.289   3.273  0.00  0.00    +0.043 A 
ATOM     33  C   UNL     1      -2.317   2.219   2.596  0.00  0.00    +0.093 A 
ATOM     34  O   UNL     1      -2.062   1.747   1.365  0.00  0.00    -0.466 OA
ENDBRANCH  21  33
ENDBRANCH  20  21
ENDBRANCH   1  20
TORSDOF 6
