REMARK  Name = ZINC39695884
REMARK  7 active torsions:
REMARK  status: ('A' for Active; 'I' for Inactive)
REMARK    1  A    between atoms: C_1  and  C_2
REMARK    2  A    between atoms: C_2  and  C_3
REMARK    3  A    between atoms: C_6  and  C_9
REMARK    4  A    between atoms: C_9  and  C_11
REMARK    5  A    between atoms: C_9  and  N_12
REMARK    6  A    between atoms: C_13  and  C_15
REMARK    7  A    between atoms: C_26  and  C_28
REMARK                            x       y       z     vdW  Elec       q    Type
REMARK                         _______ _______ _______ _____ _____    ______ ____
ROOT
ATOM      1  C   UNL     1      -6.578  -5.301  -2.600  0.00  0.00    +0.100 C 
ATOM      2  C   UNL     1      -5.185  -5.958  -2.473  0.00  0.00    +0.121 C 
ATOM      3  N   UNL     1      -5.403  -7.128  -1.590  0.00  0.00    -0.296 N 
ATOM      4  C   UNL     1      -6.712  -7.676  -2.019  0.00  0.00    +0.115 C 
ATOM      5  C   UNL     1      -7.577  -6.432  -2.305  0.00  0.00    -0.004 C 
ATOM      6  C   UNL     1      -8.471  -6.678  -3.517  0.00  0.00    -0.010 C 
ATOM      7  C   UNL     1      -9.494  -7.766  -3.179  0.00  0.00    -0.082 C 
ATOM      8  N   UNL     1     -10.301  -7.342  -2.029  0.00  0.00    +0.379 N 
ATOM      9  C   UNL     1      -9.447  -7.198  -0.844  0.00  0.00    -0.082 C 
ATOM     10  C   UNL     1      -8.422  -6.086  -1.082  0.00  0.00    -0.010 C 
ATOM     11  C   UNL     1      -4.593  -7.591  -0.617  0.00  0.00    +0.247 C 
ATOM     12  O   UNL     1      -3.605  -6.958  -0.296  0.00  0.00    -0.270 OA
ATOM     13  H   UNL     1     -10.739  -6.457  -2.235  0.00  0.00    -0.086 HD
ATOM     14  H   UNL     1     -11.013  -8.033  -1.847  0.00  0.00    -0.086 HD
ENDROOT
BRANCH  11  15
ATOM     15  C   UNL     1      -4.905  -8.867   0.060  0.00  0.00    +0.038 A 
ATOM     16  C   UNL     1      -5.741  -9.800  -0.555  0.00  0.00    +0.014 A 
ATOM     17  C   UNL     1      -6.029 -10.989   0.081  0.00  0.00    +0.022 A 
ATOM     18  C   UNL     1      -5.491 -11.259   1.328  0.00  0.00    +0.059 A 
ATOM     19  C   UNL     1      -4.660 -10.337   1.944  0.00  0.00    +0.060 A 
ATOM     20  C   UNL     1      -4.360  -9.146   1.314  0.00  0.00    +0.034 A 
ATOM     21 CL   UNL     1      -3.990 -10.684   3.507  0.00  0.00    -0.082 Cl
ATOM     22 CL   UNL     1      -5.859 -12.758   2.123  0.00  0.00    -0.082 Cl
ENDBRANCH  11  15
BRANCH   1  24
ATOM     23  N   UNL     1      -7.610  -3.196  -1.810  0.00  0.00    -0.308 N 
ATOM     24  C   UNL     1      -6.728  -4.192  -1.591  0.00  0.00    +0.219 C 
ATOM     25  O   UNL     1      -6.056  -4.195  -0.581  0.00  0.00    -0.275 OA
ATOM     26  H   UNL     1      -8.147  -3.193  -2.618  0.00  0.00    +0.149 HD
BRANCH  23  27
ATOM     27  C   UNL     1      -7.756  -2.118  -0.829  0.00  0.00    +0.100 C 
ATOM     28  C   UNL     1      -8.739  -2.550   0.261  0.00  0.00    +0.033 C 
BRANCH  27  32
ATOM     29  C   UNL     1      -9.235   1.385  -2.776  0.00  0.00    -0.048 A 
ATOM     30  C   UNL     1      -8.259   1.495  -1.803  0.00  0.00    +0.004 A 
ATOM     31  C   UNL     1      -7.781   0.361  -1.173  0.00  0.00    +0.006 A 
ATOM     32  C   UNL     1      -8.278  -0.882  -1.516  0.00  0.00    -0.027 A 
ATOM     33  C   UNL     1      -9.254  -0.992  -2.488  0.00  0.00    +0.006 A 
ATOM     34  C   UNL     1      -9.736   0.142  -3.115  0.00  0.00    +0.004 A 
BRANCH  29  36
ATOM     35  C   UNL     1     -10.950   3.173  -2.682  0.00  0.00    +0.009 C 
ATOM     36  C   UNL     1      -9.756   2.621  -3.463  0.00  0.00    +0.032 C 
ENDBRANCH  29  36
ENDBRANCH  27  32
ENDBRANCH  23  27
ENDBRANCH   1  24
TORSDOF 5
