REMARK  Name = ZINC16502025
REMARK  11 active torsions:
REMARK  status: ('A' for Active; 'I' for Inactive)
REMARK    1  A    between atoms: C_1  and  C_2
REMARK    2  A    between atoms: C_5  and  N_9
REMARK    3  A    between atoms: C_10  and  C_31
REMARK    4  A    between atoms: C_11  and  C_27
REMARK    5  A    between atoms: C_12  and  C_17
REMARK    6  A    between atoms: C_21  and  O_25
REMARK    7  A    between atoms: C_22  and  O_23
REMARK    8  A    between atoms: O_23  and  C_24
REMARK    9  A    between atoms: O_25  and  C_26
REMARK   10  A    between atoms: C_27  and  O_29
REMARK   11  A    between atoms: O_29  and  C_30
REMARK                            x       y       z     vdW  Elec       q    Type
REMARK                         _______ _______ _______ _____ _____    ______ ____
ROOT
ATOM      1  N   UNL     1      -3.658   4.179  -2.278  0.00  0.00    -0.255 N 
ATOM      2  C   UNL     1      -2.415   3.618  -2.184  0.00  0.00    +0.027 C 
ATOM      3  C   UNL     1      -2.027   2.966  -1.066  0.00  0.00    +0.078 C 
ATOM      4  C   UNL     1      -3.017   2.879   0.078  0.00  0.00    +0.145 C 
ATOM      5  N   UNL     1      -4.329   3.517  -0.124  0.00  0.00    -0.315 N 
ATOM      6  C   UNL     1      -4.570   4.131  -1.299  0.00  0.00    +0.142 C 
ATOM      7  S   UNL     1      -6.091   4.875  -1.548  0.00  0.00    -0.018 S 
ATOM      8  C   UNL     1      -1.462   3.729  -3.346  0.00  0.00    +0.062 C 
ATOM      9  H   UNL     1      -5.005   3.495   0.571  0.00  0.00    +0.149 HD
ENDROOT
BRANCH   1  14
ATOM     10  C   UNL     1      -5.027   6.865  -7.087  0.00  0.00    +0.047 C 
ATOM     11  C   UNL     1      -4.664   6.151  -5.810  0.00  0.00    -0.015 A 
ATOM     12  C   UNL     1      -4.096   6.854  -4.764  0.00  0.00    +0.008 A 
ATOM     13  C   UNL     1      -3.766   6.204  -3.591  0.00  0.00    +0.024 A 
ATOM     14  C   UNL     1      -3.996   4.840  -3.465  0.00  0.00    +0.043 A 
ATOM     15  C   UNL     1      -4.567   4.135  -4.516  0.00  0.00    +0.062 A 
ATOM     16  C   UNL     1      -4.900   4.792  -5.686  0.00  0.00    +0.128 A 
ATOM     17  F   UNL     1      -5.456   4.107  -6.710  0.00  0.00    -0.205 F 
ENDBRANCH   1  14
BRANCH   4  18
ATOM     18  C   UNL     1      -2.380   3.503   1.293  0.00  0.00    +0.023 A 
ATOM     19  C   UNL     1      -1.284   4.334   1.148  0.00  0.00    +0.009 A 
ATOM     20  C   UNL     1      -0.698   4.909   2.260  0.00  0.00    +0.004 A 
ATOM     21  C   UNL     1      -1.204   4.656   3.522  0.00  0.00    +0.049 A 
ATOM     22  C   UNL     1      -2.305   3.829   3.673  0.00  0.00    +0.162 A 
ATOM     23  C   UNL     1      -2.892   3.245   2.554  0.00  0.00    +0.167 A 
BRANCH  23  24
ATOM     24  O   UNL     1      -3.970   2.429   2.698  0.00  0.00    -0.491 OA
ATOM     25  C   UNL     1      -3.708   1.055   2.992  0.00  0.00    +0.277 C 
ENDBRANCH  23  24
BRANCH  22  26
ATOM     26  O   UNL     1      -2.807   3.583   4.912  0.00  0.00    -0.491 OA
ATOM     27  C   UNL     1      -2.154   4.216   6.014  0.00  0.00    +0.277 C 
ENDBRANCH  22  26
ENDBRANCH   4  18
BRANCH   3  28
ATOM     28  C   UNL     1      -0.742   2.385  -0.967  0.00  0.00    +0.339 C 
ATOM     29  O   UNL     1      -0.012   2.354  -1.940  0.00  0.00    -0.245 OA
BRANCH  28  30
ATOM     30  O   UNL     1      -0.325   1.865   0.207  0.00  0.00    -0.465 OA
ATOM     31  C   UNL     1       1.024   1.399   0.267  0.00  0.00    +0.280 C 
ENDBRANCH  28  30
ENDBRANCH   3  28
TORSDOF 6
