REMARK  Name = ZINC28558363
REMARK  8 active torsions:
REMARK  status: ('A' for Active; 'I' for Inactive)
REMARK    1  A    between atoms: C_1  and  C_2
REMARK    2  A    between atoms: C_2  and  O_3
REMARK    3  A    between atoms: O_3  and  C_4
REMARK    4  A    between atoms: N_17  and  C_18
REMARK    5  A    between atoms: C_18  and  C_19
REMARK    6  A    between atoms: C_19  and  N_20
REMARK    7  A    between atoms: N_23  and  S_26
REMARK    8  A    between atoms: S_26  and  C_29
REMARK                            x       y       z     vdW  Elec       q    Type
REMARK                         _______ _______ _______ _____ _____    ______ ____
ROOT
ATOM      1  C   UNL     1       5.863   0.152  -0.055  0.00  0.00    +0.111 C 
ENDROOT
BRANCH   1  15
ATOM      2  C   UNL     1       3.821  -1.159  -0.042  0.00  0.00    +0.302 A 
ATOM      3  N   UNL     1       2.509  -1.333  -0.029  0.00  0.00    -0.189 NA
ATOM      4  C   UNL     1       1.750  -0.243  -0.016  0.00  0.00    +0.119 A 
ATOM      5  C   UNL     1       2.263   1.074  -0.013  0.00  0.00    +0.076 A 
ATOM      6  C   UNL     1       1.278   2.143   0.001  0.00  0.00    -0.023 A 
ATOM      7  C   UNL     1      -0.022   1.771   0.012  0.00  0.00    -0.004 A 
ATOM      8  S   UNL     1       0.002  -0.004   0.002  0.00  0.00    -0.073 S 
ATOM      9  C   UNL     1      -1.222   2.667   0.034  0.00  0.00    +0.043 C 
ATOM     10  C   UNL     1      -0.766   4.084   0.404  0.00  0.00    +0.005 C 
ATOM     11  C   UNL     1       0.457   4.447  -0.444  0.00  0.00    +0.005 C 
ATOM     12  C   UNL     1       1.662   3.621   0.005  0.00  0.00    +0.037 C 
ATOM     13  C   UNL     1       3.688   1.221  -0.027  0.00  0.00    +0.265 A 
ATOM     14  O   UNL     1       4.227   2.315  -0.025  0.00  0.00    -0.267 OA
ATOM     15  N   UNL     1       4.400   0.070  -0.041  0.00  0.00    -0.264 N 
BRANCH   2  16
ATOM     16  O   UNL     1       4.617  -2.250  -0.056  0.00  0.00    -0.464 OA
BRANCH  16  18
ATOM     17  C   UNL     1       5.028  -4.631  -0.074  0.00  0.00    +0.048 C 
ATOM     18  C   UNL     1       3.972  -3.525  -0.057  0.00  0.00    +0.229 C 
ENDBRANCH  16  18
ENDBRANCH   2  16
ENDBRANCH   1  15
BRANCH   1  19
ATOM     19  C   UNL     1       6.386   0.172   1.383  0.00  0.00    -0.057 C 
BRANCH  19  20
ATOM     20  N   UNL     1       7.853   0.255   1.369  0.00  0.00    +0.383 N 
ATOM     21  C   UNL     1       8.443  -0.960   0.791  0.00  0.00    -0.061 C 
ATOM     22  C   UNL     1       9.954  -0.761   0.628  0.00  0.00    +0.091 C 
ATOM     23  N   UNL     1      10.515  -0.353   1.925  0.00  0.00    -0.180 NA
ATOM     24  C   UNL     1       9.886   0.773   2.631  0.00  0.00    +0.091 C 
ATOM     25  C   UNL     1       8.378   0.515   2.716  0.00  0.00    -0.061 C 
ATOM     26  H   UNL     1       8.139   1.103   0.729  0.00  0.00    -0.082 HD
BRANCH  23  27
ATOM     27  S   UNL     1      11.819  -1.142   2.573  0.00  0.00    +0.061 S 
ATOM     28  O   UNL     1      12.511  -1.742   1.487  0.00  0.00    -0.153 OA
ATOM     29  O   UNL     1      12.444  -0.228   3.464  0.00  0.00    -0.153 OA
BRANCH  27  30
ATOM     30  C   UNL     1      11.193  -2.459   3.561  0.00  0.00    +0.106 A 
ATOM     31  C   UNL     1      10.920  -2.250   4.900  0.00  0.00    +0.031 A 
ATOM     32  C   UNL     1      10.424  -3.281   5.675  0.00  0.00    +0.040 A 
ATOM     33  C   UNL     1      10.210  -4.528   5.112  0.00  0.00    +0.124 A 
ATOM     34  C   UNL     1      10.489  -4.738   3.772  0.00  0.00    +0.040 A 
ATOM     35  C   UNL     1      10.979  -3.704   2.998  0.00  0.00    +0.031 A 
ATOM     36  F   UNL     1       9.730  -5.539   5.869  0.00  0.00    -0.205 F 
ENDBRANCH  27  30
ENDBRANCH  23  27
ENDBRANCH  19  20
ENDBRANCH   1  19
TORSDOF 7
