REMARK  Name = ZINC13985071
REMARK  4 active torsions:
REMARK  status: ('A' for Active; 'I' for Inactive)
REMARK    1  A    between atoms: C_9  and  C_12
REMARK    2  A    between atoms: C_10  and  O_11
REMARK    3  A    between atoms: N_13  and  C_14
REMARK    4  A    between atoms: C_17  and  O_20
REMARK                            x       y       z     vdW  Elec       q    Type
REMARK                         _______ _______ _______ _____ _____    ______ ____
ROOT
ATOM      1  C   UNL     1      -0.016   1.358   0.009  0.00  0.00    +0.001 A 
ATOM      2  C   UNL     1       1.168   2.091   0.002  0.00  0.00    +0.001 A 
ATOM      3  C   UNL     1       2.378   1.466  -0.013  0.00  0.00    +0.012 A 
ATOM      4  C   UNL     1       2.436   0.063  -0.021  0.00  0.00    +0.024 A 
ATOM      5  C   UNL     1       1.231  -0.684  -0.013  0.00  0.00    -0.014 A 
ATOM      6  C   UNL     1       0.002  -0.004   0.002  0.00  0.00    +0.008 A 
ATOM      7  C   UNL     1       1.280  -2.091  -0.020  0.00  0.00    +0.009 A 
ATOM      8  C   UNL     1       2.475  -2.732  -0.035  0.00  0.00    +0.013 A 
ATOM      9  C   UNL     1       3.684  -2.009  -0.043  0.00  0.00    +0.035 A 
ATOM     10  C   UNL     1       3.671  -0.615  -0.037  0.00  0.00    +0.133 A 
ENDROOT
BRANCH  10  11
ATOM     11  O   UNL     1       4.834   0.082  -0.044  0.00  0.00    -0.506 OA
ATOM     12  H   UNL     1       5.180   0.279   0.837  0.00  0.00    +0.292 HD
ENDBRANCH  10  11
BRANCH   9  13
ATOM     13  C   UNL     1       4.965  -2.728  -0.058  0.00  0.00    +0.123 C 
ATOM     14  N   UNL     1       6.086  -2.061  -0.065  0.00  0.00    -0.255 NA
BRANCH  14  15
ATOM     15  C   UNL     1       7.280  -2.731  -0.079  0.00  0.00    +0.064 A 
ATOM     16  C   UNL     1       7.479  -3.826   0.765  0.00  0.00    +0.031 A 
ATOM     17  C   UNL     1       8.683  -4.497   0.748  0.00  0.00    +0.047 A 
ATOM     18  C   UNL     1       9.697  -4.086  -0.107  0.00  0.00    +0.117 A 
ATOM     19  C   UNL     1       9.504  -2.997  -0.948  0.00  0.00    +0.047 A 
ATOM     20  C   UNL     1       8.301  -2.324  -0.942  0.00  0.00    +0.031 A 
BRANCH  18  21
ATOM     21  O   UNL     1      10.882  -4.750  -0.121  0.00  0.00    -0.507 OA
ATOM     22  H   UNL     1      10.915  -5.482  -0.752  0.00  0.00    +0.292 HD
ENDBRANCH  18  21
ENDBRANCH  14  15
ENDBRANCH   9  13
TORSDOF 4
