REMARK  Name = ZINC25543587
REMARK  6 active torsions:
REMARK  status: ('A' for Active; 'I' for Inactive)
REMARK    1  A    between atoms: C_1  and  C_2
REMARK    2  A    between atoms: C_16  and  C_18
REMARK    3  A    between atoms: C_18  and  C_20
REMARK    4  A    between atoms: C_18  and  N_27
REMARK    5  A    between atoms: C_20  and  C_21
REMARK    6  A    between atoms: C_28  and  C_30
REMARK                            x       y       z     vdW  Elec       q    Type
REMARK                         _______ _______ _______ _____ _____    ______ ____
ROOT
ATOM      1  C   UNL     1      -4.103   4.436   5.284  0.00  0.00    +0.044 C 
ATOM      2  C   UNL     1      -3.148   3.505   4.583  0.00  0.00    -0.050 A 
ATOM      3  C   UNL     1      -2.494   2.533   5.323  0.00  0.00    +0.005 A 
ATOM      4  C   UNL     1      -1.604   1.642   4.749  0.00  0.00    +0.026 A 
ATOM      5  C   UNL     1      -1.386   1.762   3.378  0.00  0.00    +0.047 A 
ATOM      6  C   UNL     1      -2.058   2.759   2.625  0.00  0.00    +0.005 A 
ATOM      7  C   UNL     1      -2.953   3.646   3.231  0.00  0.00    +0.013 A 
ATOM      8  C   UNL     1      -1.605   2.599   1.260  0.00  0.00    -0.002 A 
ATOM      9  C   UNL     1      -0.723   1.575   1.248  0.00  0.00    +0.023 A 
ATOM     10  N   UNL     1      -0.592   1.066   2.513  0.00  0.00    -0.358 N 
ATOM     11  H   UNL     1       0.026   0.234   2.882  0.00  0.00    +0.166 HD
ATOM     12  C   UNL     1      -0.013   1.086   0.008  0.00  0.00    +0.072 C 
ATOM     13  C   UNL     1      -0.758   1.595  -1.231  0.00  0.00    +0.114 C 
ATOM     14  N   UNL     1      -1.076   3.019  -1.048  0.00  0.00    -0.295 N 
ATOM     15  C   UNL     1      -2.001   3.391   0.037  0.00  0.00    +0.145 C 
ATOM     16  C   UNL     1      -0.537   3.958  -1.851  0.00  0.00    +0.237 C 
ATOM     17  O   UNL     1      -0.812   5.128  -1.686  0.00  0.00    -0.274 OA
ENDROOT
BRANCH  16  18
ATOM     18  C   UNL     1       0.405   3.554  -2.955  0.00  0.00    +0.164 C 
BRANCH  18  19
ATOM     19  N   UNL     1       0.475   4.625  -3.954  0.00  0.00    -0.297 N 
ATOM     20  C   UNL     1       0.900   5.853  -3.596  0.00  0.00    +0.280 C 
ATOM     21  O   UNL     1       1.225   6.073  -2.444  0.00  0.00    -0.267 OA
ATOM     22  H   UNL     1       0.182   4.426  -4.995  0.00  0.00    +0.150 HD
BRANCH  20  23
ATOM     23  C   UNL     1       0.970   6.924  -4.595  0.00  0.00    +0.189 A 
ATOM     24  C   UNL     1       1.379   8.207  -4.369  0.00  0.00    +0.054 A 
ATOM     25  C   UNL     1       1.288   8.882  -5.596  0.00  0.00    +0.042 A 
ATOM     26  C   UNL     1       0.833   7.993  -6.506  0.00  0.00    +0.196 A 
ATOM     27  O   UNL     1       0.647   6.813  -5.900  0.00  0.00    -0.458 OA
ENDBRANCH  20  23
ENDBRANCH  18  19
BRANCH  18  28
ATOM     28  C   UNL     1       1.798   3.309  -2.372  0.00  0.00    +0.067 C 
BRANCH  28  29
ATOM     29  C   UNL     1       2.711   2.788  -3.452  0.00  0.00    -0.045 A 
ATOM     30  C   UNL     1       2.820   1.426  -3.667  0.00  0.00    +0.004 A 
ATOM     31  C   UNL     1       3.653   0.948  -4.661  0.00  0.00    +0.000 A 
ATOM     32  C   UNL     1       4.385   1.831  -5.434  0.00  0.00    +0.000 A 
ATOM     33  C   UNL     1       4.280   3.192  -5.215  0.00  0.00    +0.000 A 
ATOM     34  C   UNL     1       3.442   3.670  -4.225  0.00  0.00    +0.004 A 
ENDBRANCH  28  29
ENDBRANCH  18  28
ENDBRANCH  16  18
TORSDOF 5
