REMARK  Name = ZINC00920952
REMARK  13 active torsions:
REMARK  status: ('A' for Active; 'I' for Inactive)
REMARK    1  A    between atoms: C_1  and  C_2
REMARK    2  A    between atoms: C_2  and  O_3
REMARK    3  A    between atoms: O_3  and  C_4
REMARK    4  A    between atoms: C_12  and  N_27
REMARK    5  A    between atoms: C_13  and  C_14
REMARK    6  A    between atoms: N_16  and  C_17
REMARK    7  A    between atoms: C_19  and  O_25
REMARK    8  A    between atoms: C_22  and  O_23
REMARK    9  A    between atoms: O_23  and  C_24
REMARK   10  A    between atoms: O_25  and  C_26
REMARK   11  A    between atoms: N_27  and  C_28
REMARK   12  A    between atoms: C_28  and  C_29
REMARK   13  A    between atoms: C_32  and  C_34
REMARK                            x       y       z     vdW  Elec       q    Type
REMARK                         _______ _______ _______ _____ _____    ______ ____
ROOT
ATOM      1  C   UNL     1       0.060   5.285  -1.027  0.00  0.00    +0.403 C 
ATOM      2  O   UNL     1      -1.014   5.831  -1.189  0.00  0.00    -0.226 OA
ATOM      3  N   UNL     1       0.157   4.220  -0.206  0.00  0.00    -0.262 N 
ATOM      4  C   UNL     1      -1.018   3.696   0.507  0.00  0.00    +0.116 C 
ATOM      5  C   UNL     1      -1.324   2.279   0.017  0.00  0.00    +0.056 C 
ATOM      6  C   UNL     1      -0.037   1.464   0.009  0.00  0.00    -0.020 A 
ATOM      7  C   UNL     1       1.173   2.062   0.001  0.00  0.00    +0.013 A 
ATOM      8  S   UNL     1       2.340   0.732  -0.018  0.00  0.00    -0.076 S 
ATOM      9  C   UNL     1       1.240  -0.606  -0.013  0.00  0.00    +0.079 A 
ATOM     10  C   UNL     1      -0.006   0.009   0.003  0.00  0.00    +0.069 A 
ATOM     11  C   UNL     1       1.447   3.536   0.012  0.00  0.00    +0.153 C 
ENDROOT
BRANCH  10  12
ATOM     12  C   UNL     1      -1.241  -0.777   0.013  0.00  0.00    +0.251 C 
ATOM     13  O   UNL     1      -1.766  -1.100  -1.037  0.00  0.00    -0.270 OA
ATOM     14  N   UNL     1      -1.797  -1.144   1.185  0.00  0.00    -0.278 N 
ATOM     15  H   UNL     1      -1.338  -0.957   2.019  0.00  0.00    +0.155 HD
BRANCH  14  16
ATOM     16  C   UNL     1      -3.037  -1.795   1.198  0.00  0.00    +0.079 A 
ATOM     17  C   UNL     1      -3.924  -1.622   0.146  0.00  0.00    +0.072 A 
ATOM     18  C   UNL     1      -5.149  -2.271   0.160  0.00  0.00    +0.122 A 
ATOM     19  C   UNL     1      -5.492  -3.085   1.230  0.00  0.00    +0.049 A 
ATOM     20  C   UNL     1      -4.611  -3.254   2.283  0.00  0.00    +0.051 A 
ATOM     21  C   UNL     1      -3.384  -2.612   2.271  0.00  0.00    +0.141 A 
BRANCH  21  22
ATOM     22  O   UNL     1      -2.519  -2.780   3.308  0.00  0.00    -0.493 OA
ATOM     23  C   UNL     1      -2.941  -3.632   4.374  0.00  0.00    +0.277 C 
ENDBRANCH  21  22
BRANCH  18  24
ATOM     24  O   UNL     1      -6.017  -2.106  -0.873  0.00  0.00    -0.495 OA
ATOM     25  C   UNL     1      -7.263  -2.800  -0.790  0.00  0.00    +0.277 C 
ENDBRANCH  18  24
ENDBRANCH  14  16
ENDBRANCH  10  12
BRANCH   9  26
ATOM     26  N   UNL     1       1.530  -1.957  -0.022  0.00  0.00    -0.331 N 
ATOM     27  H   UNL     1       0.811  -2.608  -0.018  0.00  0.00    +0.147 HD
BRANCH  26  28
ATOM     28  C   UNL     1       2.924  -2.406  -0.039  0.00  0.00    +0.176 C 
BRANCH  28  29
ATOM     29  C   UNL     1       2.967  -3.913  -0.046  0.00  0.00    +0.122 A 
ATOM     30  C   UNL     1       2.972  -4.694  -1.141  0.00  0.00    +0.046 A 
ATOM     31  C   UNL     1       3.019  -6.033  -0.689  0.00  0.00    +0.045 A 
ATOM     32  C   UNL     1       3.031  -5.990   0.655  0.00  0.00    +0.102 A 
ATOM     33  O   UNL     1       2.999  -4.703   1.039  0.00  0.00    -0.463 OA
ATOM     34  C   UNL     1       3.074  -7.183   1.575  0.00  0.00    +0.086 C 
ENDBRANCH  28  29
ENDBRANCH  26  28
ENDBRANCH   9  26
BRANCH   1  35
ATOM     35  O   UNL     1       1.152   5.743  -1.667  0.00  0.00    -0.451 OA
BRANCH  35  37
ATOM     36  C   UNL     1       2.314   7.266  -3.170  0.00  0.00    +0.048 C 
ATOM     37  C   UNL     1       0.973   6.893  -2.535  0.00  0.00    +0.230 C 
ENDBRANCH  35  37
ENDBRANCH   1  35
TORSDOF 9
