REMARK  Name = ZINC35349034
REMARK  7 active torsions:
REMARK  status: ('A' for Active; 'I' for Inactive)
REMARK    1  A    between atoms: C_1  and  C_2
REMARK    2  A    between atoms: C_2  and  N_3
REMARK    3  A    between atoms: N_3  and  S_4
REMARK    4  A    between atoms: S_4  and  C_7
REMARK    5  A    between atoms: C_10  and  N_13
REMARK    6  A    between atoms: N_13  and  C_14
REMARK    7  A    between atoms: C_20  and  C_22
REMARK                            x       y       z     vdW  Elec       q    Type
REMARK                         _______ _______ _______ _____ _____    ______ ____
ROOT
ATOM      1  C   UNL     1       1.308  -3.048   0.369  0.00  0.00    +0.105 A 
ATOM      2  C   UNL     1       0.537  -3.492  -0.689  0.00  0.00    +0.030 A 
ATOM      3  C   UNL     1       1.109  -4.254  -1.689  0.00  0.00    +0.025 A 
ATOM      4  C   UNL     1       2.459  -4.574  -1.631  0.00  0.00    +0.027 A 
ATOM      5  C   UNL     1       3.230  -4.125  -0.566  0.00  0.00    +0.025 A 
ATOM      6  C   UNL     1       2.654  -3.359   0.428  0.00  0.00    +0.030 A 
ENDROOT
BRANCH   1   7
ATOM      7  S   UNL     1       0.575  -2.076   1.643  0.00  0.00    +0.058 S 
ATOM      8  O   UNL     1       1.387  -2.239   2.797  0.00  0.00    -0.153 OA
ATOM      9  O   UNL     1      -0.813  -2.382   1.640  0.00  0.00    -0.153 OA
BRANCH   7  10
ATOM     10  N   UNL     1       0.711  -0.489   1.189  0.00  0.00    -0.190 NA
ATOM     11  H   UNL     1       1.260   0.119   1.708  0.00  0.00    +0.148 HD
BRANCH  10  13
ATOM     12  C   UNL     1      -0.019   1.526   0.010  0.00  0.00    +0.022 C 
ATOM     13  C   UNL     1       0.002  -0.004   0.002  0.00  0.00    +0.102 C 
ENDBRANCH  10  13
ENDBRANCH   7  10
ENDBRANCH   1   7
BRANCH   4  14
ATOM     14  N   UNL     1       3.040  -5.344  -2.641  0.00  0.00    -0.341 N 
ATOM     15  H   UNL     1       2.501  -5.657  -3.384  0.00  0.00    +0.146 HD
BRANCH  14  16
ATOM     16  C   UNL     1       4.465  -5.680  -2.578  0.00  0.00    +0.073 C 
ATOM     17  C   UNL     1       4.656  -6.930  -1.716  0.00  0.00    +0.022 C 
ATOM     18  C   UNL     1       3.883  -8.098  -2.332  0.00  0.00    +0.002 C 
ATOM     19  C   UNL     1       4.407  -8.367  -3.744  0.00  0.00    +0.000 C 
ATOM     20  C   UNL     1       4.215  -7.117  -4.606  0.00  0.00    +0.005 C 
ATOM     21  C   UNL     1       4.988  -5.950  -3.990  0.00  0.00    +0.006 C 
ATOM     22  C   UNL     1       4.797  -4.700  -4.851  0.00  0.00    +0.009 C 
ENDBRANCH  14  16
ENDBRANCH   4  14
TORSDOF 5
