REMARK  Name = ZINC06060077
REMARK  7 active torsions:
REMARK  status: ('A' for Active; 'I' for Inactive)
REMARK    1  A    between atoms: C_1  and  C_2
REMARK    2  A    between atoms: C_4  and  C_20
REMARK    3  A    between atoms: C_5  and  C_9
REMARK    4  A    between atoms: C_7  and  C_8
REMARK    5  A    between atoms: C_9  and  C_11
REMARK    6  A    between atoms: C_11  and  S_12
REMARK    7  A    between atoms: S_12  and  C_13
REMARK                            x       y       z     vdW  Elec       q    Type
REMARK                         _______ _______ _______ _____ _____    ______ ____
ROOT
ATOM      1  C   UNL     1       2.282   4.063  -0.473  0.00  0.00    +0.174 C 
ATOM      2  O   UNL     1       3.372   3.539  -0.558  0.00  0.00    -0.291 OA
ENDROOT
BRANCH   1   7
ATOM      3  C   UNL     1      -2.382   0.844   0.496  0.00  0.00    +0.044 C 
ATOM      4  C   UNL     1      -1.159   1.688   0.245  0.00  0.00    -0.047 A 
ATOM      5  C   UNL     1       0.097   1.108   0.278  0.00  0.00    +0.007 A 
ATOM      6  C   UNL     1       1.220   1.872   0.043  0.00  0.00    -0.040 A 
ATOM      7  C   UNL     1       1.088   3.239  -0.222  0.00  0.00    +0.021 A 
ATOM      8  C   UNL     1      -0.184   3.819  -0.248  0.00  0.00    +0.015 A 
ATOM      9  C   UNL     1      -1.298   3.041  -0.012  0.00  0.00    -0.047 A 
ATOM     10  C   UNL     1      -2.670   3.664  -0.039  0.00  0.00    +0.044 C 
ATOM     11  C   UNL     1       2.587   1.237   0.074  0.00  0.00    +0.044 C 
ENDBRANCH   1   7
BRANCH   1  12
ATOM     12  C   UNL     1       2.149   5.556  -0.624  0.00  0.00    +0.157 C 
BRANCH  12  13
ATOM     13  S   UNL     1       3.784   6.282  -0.923  0.00  0.00    -0.076 S 
BRANCH  13  14
ATOM     14  C   UNL     1       3.463   8.008  -1.075  0.00  0.00    +0.210 A 
ATOM     15  N   UNL     1       4.383   8.952  -1.303  0.00  0.00    -0.188 NA
ATOM     16  C   UNL     1       3.802  10.132  -1.360  0.00  0.00    +0.209 A 
ATOM     17  N   UNL     1       2.478   9.954  -1.165  0.00  0.00    -0.246 N 
ATOM     18  H   UNL     1       1.796  10.642  -1.153  0.00  0.00    +0.192 HD
ATOM     19  N   UNL     1       2.284   8.574  -0.989  0.00  0.00    -0.144 NA
ATOM     20  N   UNL     1       4.436  11.341  -1.580  0.00  0.00    -0.328 N 
ATOM     21  H   UNL     1       5.396  11.368  -1.710  0.00  0.00    +0.145 HD
ATOM     22  H   UNL     1       3.919  12.162  -1.604  0.00  0.00    +0.145 HD
ENDBRANCH  13  14
ENDBRANCH  12  13
ENDBRANCH   1  12
TORSDOF 4
