REMARK  Name = ZINC25749594
REMARK  14 active torsions:
REMARK  status: ('A' for Active; 'I' for Inactive)
REMARK    1  A    between atoms: C_1  and  C_2
REMARK    2  A    between atoms: C_2  and  C_3
REMARK    3  A    between atoms: C_3  and  C_4
REMARK    4  A    between atoms: C_4  and  C_6
REMARK    5  A    between atoms: C_4  and  N_7
REMARK    6  A    between atoms: C_8  and  C_10
REMARK    7  A    between atoms: C_10  and  S_11
REMARK    8  A    between atoms: S_11  and  C_12
REMARK    9  A    between atoms: C_15  and  C_25
REMARK   10  A    between atoms: N_16  and  C_17
REMARK   11  A    between atoms: C_20  and  O_23
REMARK   12  A    between atoms: O_23  and  C_24
REMARK   13  A    between atoms: C_25  and  C_27
REMARK   14  A    between atoms: C_25  and  N_28
REMARK                            x       y       z     vdW  Elec       q    Type
REMARK                         _______ _______ _______ _____ _____    ______ ____
ROOT
ATOM      1  C   UNL     1      -1.254   3.044   3.061  0.00  0.00    +0.197 A 
ATOM      2  N   UNL     1      -2.161   2.131   2.800  0.00  0.00    -0.122 NA
ATOM      3  N   UNL     1      -1.843   1.490   1.732  0.00  0.00    -0.135 NA
ATOM      4  C   UNL     1      -0.723   1.951   1.250  0.00  0.00    +0.125 A 
ATOM      5  N   UNL     1      -0.303   2.954   2.082  0.00  0.00    -0.275 N 
ENDROOT
BRANCH   5   6
ATOM      6  C   UNL     1       0.859   3.731   1.955  0.00  0.00    +0.050 A 
ATOM      7  C   UNL     1       2.108   3.135   2.074  0.00  0.00    +0.030 A 
ATOM      8  C   UNL     1       3.251   3.899   1.945  0.00  0.00    +0.047 A 
ATOM      9  C   UNL     1       3.152   5.262   1.706  0.00  0.00    +0.120 A 
ATOM     10  C   UNL     1       1.905   5.858   1.593  0.00  0.00    +0.047 A 
ATOM     11  C   UNL     1       0.761   5.094   1.717  0.00  0.00    +0.030 A 
BRANCH   9  12
ATOM     12  O   UNL     1       4.278   6.014   1.585  0.00  0.00    -0.495 OA
ATOM     13  C   UNL     1       5.529   5.335   1.713  0.00  0.00    +0.277 C 
ENDBRANCH   9  12
ENDBRANCH   5   6
BRANCH   4  14
ATOM     14  C   UNL     1      -0.018   1.465   0.010  0.00  0.00    -0.002 C 
ATOM     15  C   UNL     1      -0.758   1.972  -1.229  0.00  0.00    -0.005 C 
BRANCH  14  16
ATOM     16  N   UNL     1       0.002  -0.004   0.002  0.00  0.00    +0.386 N 
ATOM     17  C   UNL     1       0.617  -0.529   1.228  0.00  0.00    -0.078 C 
ATOM     18  C   UNL     1       0.490  -2.054   1.252  0.00  0.00    -0.019 C 
ATOM     19  C   UNL     1       1.185  -2.638   0.019  0.00  0.00    -0.004 C 
ATOM     20  C   UNL     1       0.558  -2.039  -1.243  0.00  0.00    -0.019 C 
ATOM     21  C   UNL     1       0.683  -0.515  -1.195  0.00  0.00    -0.078 C 
ATOM     22  H   UNL     1      -1.039  -0.358  -0.028  0.00  0.00    -0.081 HD
ENDBRANCH  14  16
ENDBRANCH   4  14
BRANCH   1  23
ATOM     23  S   UNL     1      -1.258   4.167   4.419  0.00  0.00    -0.076 S 
BRANCH  23  24
ATOM     24  C   UNL     1      -2.793   3.665   5.237  0.00  0.00    +0.173 C 
BRANCH  24  26
ATOM     25  N   UNL     1      -4.096   4.319   7.235  0.00  0.00    -0.312 N 
ATOM     26  C   UNL     1      -3.009   4.515   6.463  0.00  0.00    +0.224 C 
ATOM     27  O   UNL     1      -2.205   5.375   6.754  0.00  0.00    -0.275 OA
ATOM     28  H   UNL     1      -4.825   3.539   6.971  0.00  0.00    +0.149 HD
BRANCH  25  29
ATOM     29  C   UNL     1      -4.307   5.145   8.427  0.00  0.00    +0.070 C 
ATOM     30  C   UNL     1      -5.005   6.447   8.028  0.00  0.00    +0.028 C 
BRANCH  29  31
ATOM     31  C   UNL     1      -5.179   4.384   9.427  0.00  0.00    +0.022 C 
BRANCH  31  33
ATOM     32  C   UNL     1      -5.298   2.385  10.921  0.00  0.00    +0.004 C 
ATOM     33  C   UNL     1      -4.427   3.146   9.921  0.00  0.00    -0.002 C 
ENDBRANCH  31  33
ENDBRANCH  29  31
ENDBRANCH  25  29
ENDBRANCH  24  26
ENDBRANCH  23  24
ENDBRANCH   1  23
TORSDOF 10
