REMARK  Name = ZINC07247230
REMARK  6 active torsions:
REMARK  status: ('A' for Active; 'I' for Inactive)
REMARK    1  A    between atoms: C_1  and  C_2
REMARK    2  A    between atoms: C_2  and  N_3
REMARK    3  A    between atoms: C_7  and  S_9
REMARK    4  A    between atoms: S_9  and  C_10
REMARK    5  A    between atoms: C_10  and  C_11
REMARK    6  A    between atoms: N_16  and  C_17
REMARK                            x       y       z     vdW  Elec       q    Type
REMARK                         _______ _______ _______ _____ _____    ______ ____
ROOT
ATOM      1  C   UNL     1       1.501  -8.537   2.297  0.00  0.00    +0.231 C 
ATOM      2  O   UNL     1       2.110  -8.661   3.338  0.00  0.00    -0.274 OA
ATOM      3  N   UNL     1       1.119  -9.629   1.606  0.00  0.00    -0.239 N 
ATOM      4  C   UNL     1       1.412 -10.859   2.073  0.00  0.00    +0.306 C 
ATOM      5  O   UNL     1       2.023 -10.983   3.117  0.00  0.00    -0.252 OA
ATOM      6  N   UNL     1       1.030 -11.951   1.383  0.00  0.00    -0.294 N 
ATOM      7  H   UNL     1       0.631  -9.530   0.773  0.00  0.00    +0.159 HD
ATOM      8  H   UNL     1       0.542 -11.852   0.549  0.00  0.00    +0.151 HD
ENDROOT
BRANCH   6   9
ATOM      9  C   UNL     1       1.349 -13.288   1.890  0.00  0.00    +0.037 C 
ATOM     10  C   UNL     1       2.867 -13.439   2.009  0.00  0.00    +0.029 C 
ATOM     11  C   UNL     1       3.200 -14.835   2.538  0.00  0.00    -0.008 C 
ATOM     12  C   UNL     1       2.657 -15.890   1.573  0.00  0.00    +0.007 C 
ATOM     13  C   UNL     1       1.139 -15.739   1.454  0.00  0.00    -0.008 C 
ATOM     14  C   UNL     1       0.805 -14.343   0.924  0.00  0.00    +0.029 C 
ATOM     15  C   UNL     1       0.498 -15.928   2.831  0.00  0.00    +0.007 C 
ATOM     16  C   UNL     1       1.042 -14.873   3.796  0.00  0.00    -0.008 C 
ATOM     17  C   UNL     1       2.559 -15.024   3.915  0.00  0.00    +0.007 C 
ATOM     18  C   UNL     1       0.708 -13.477   3.266  0.00  0.00    +0.029 C 
ENDBRANCH   6   9
BRANCH   1  19
ATOM     19  C   UNL     1       1.173  -7.162   1.775  0.00  0.00    +0.172 C 
BRANCH  19  20
ATOM     20  S   UNL     1       1.817  -5.911   2.920  0.00  0.00    -0.088 S 
BRANCH  20  25
ATOM     21  N   UNL     1       0.711  -0.489   1.189  0.00  0.00    -0.322 N 
ATOM     22  C   UNL     1       0.858  -1.855   1.400  0.00  0.00    +0.182 A 
ATOM     23  N   UNL     1       0.445  -2.865   0.659  0.00  0.00    -0.125 NA
ATOM     24  N   UNL     1       0.701  -4.156   1.058  0.00  0.00    -0.133 NA
ATOM     25  C   UNL     1       1.359  -4.379   2.179  0.00  0.00    +0.160 A 
ATOM     26  S   UNL     1       1.665  -2.712   2.744  0.00  0.00    -0.025 S 
ATOM     27  H   UNL     1       1.077   0.142   1.827  0.00  0.00    +0.148 HD
BRANCH  21  29
ATOM     28  C   UNL     1      -0.019   1.526   0.010  0.00  0.00    +0.024 C 
ATOM     29  C   UNL     1       0.002  -0.004   0.002  0.00  0.00    +0.100 C 
ENDBRANCH  21  29
ENDBRANCH  20  25
ENDBRANCH  19  20
ENDBRANCH   1  19
TORSDOF 5
