REMARK  Name = ZINC40318332
REMARK  11 active torsions:
REMARK  status: ('A' for Active; 'I' for Inactive)
REMARK    1  A    between atoms: C_3  and  C_8
REMARK    2  A    between atoms: C_11  and  C_13
REMARK    3  A    between atoms: C_13  and  N_14
REMARK    4  A    between atoms: N_14  and  C_15
REMARK    5  A    between atoms: N_14  and  C_29
REMARK    6  A    between atoms: C_15  and  C_16
REMARK    7  A    between atoms: C_16  and  C_18
REMARK    8  A    between atoms: C_16  and  O_28
REMARK    9  A    between atoms: C_18  and  O_19
REMARK   10  A    between atoms: O_19  and  C_20
REMARK   11  A    between atoms: C_23  and  C_26
REMARK                            x       y       z     vdW  Elec       q    Type
REMARK                         _______ _______ _______ _____ _____    ______ ____
ROOT
ATOM      1  N   UNL     1       5.827   5.699  -1.375  0.00  0.00    +0.389 N 
ATOM      2  H   UNL     1       6.009   5.198  -2.232  0.00  0.00    -0.081 HD
ENDROOT
BRANCH   1   3
ATOM      3  C   UNL     1       4.398   6.027  -1.294  0.00  0.00    -0.045 C 
ATOM      4  C   UNL     1       3.561   4.747  -1.454  0.00  0.00    +0.009 C 
ATOM      5  C   UNL     1       2.076   5.113  -1.690  0.00  0.00    +0.164 C 
ATOM      6  S   UNL     1       2.190   6.761  -2.499  0.00  0.00    -0.033 S 
ATOM      7  O   UNL     1       1.571   7.730  -1.663  0.00  0.00    -0.174 OA
ATOM      8  O   UNL     1       1.779   6.641  -3.854  0.00  0.00    -0.174 OA
ATOM      9  C   UNL     1       4.016   7.001  -2.445  0.00  0.00    +0.151 C 
ENDBRANCH   1   3
BRANCH   1  10
ATOM     10  C   UNL     1       6.203   4.861  -0.229  0.00  0.00    -0.003 C 
BRANCH  10  14
ATOM     11  C   UNL     1       4.950   1.453  -0.636  0.00  0.00    +0.135 A 
ATOM     12  C   UNL     1       6.108   1.349  -1.341  0.00  0.00    +0.050 A 
ATOM     13  C   UNL     1       6.733   2.611  -1.283  0.00  0.00    +0.043 A 
ATOM     14  C   UNL     1       5.934   3.414  -0.554  0.00  0.00    +0.089 A 
ATOM     15  O   UNL     1       4.855   2.713  -0.170  0.00  0.00    -0.462 OA
BRANCH  11  18
ATOM     16  C   UNL     1       1.889  -0.396   0.510  0.00  0.00    +0.002 A 
ATOM     17  C   UNL     1       2.807   0.616   0.317  0.00  0.00    +0.011 A 
ATOM     18  C   UNL     1       3.963   0.373  -0.425  0.00  0.00    +0.019 A 
ATOM     19  C   UNL     1       4.184  -0.894  -0.968  0.00  0.00    +0.031 A 
ATOM     20  C   UNL     1       3.258  -1.898  -0.768  0.00  0.00    +0.042 A 
ATOM     21  C   UNL     1       2.113  -1.649  -0.030  0.00  0.00    +0.020 A 
ATOM     22 CL   UNL     1       3.530  -3.474  -1.441  0.00  0.00    -0.084 Cl
ENDBRANCH  11  18
ENDBRANCH  10  14
ENDBRANCH   1  10
BRANCH   1  23
ATOM     23  C   UNL     1       6.616   6.938  -1.355  0.00  0.00    -0.043 C 
BRANCH  23  24
ATOM     24  C   UNL     1       6.819   7.436  -2.788  0.00  0.00    +0.135 C 
BRANCH  24  25
ATOM     25  O   UNL     1       7.491   6.432  -3.551  0.00  0.00    -0.390 OA
ATOM     26  H   UNL     1       8.362   6.193  -3.206  0.00  0.00    +0.210 HD
ENDBRANCH  24  25
BRANCH  24  27
ATOM     27  C   UNL     1       7.663   8.712  -2.769  0.00  0.00    +0.258 C 
BRANCH  27  28
ATOM     28  O   UNL     1       7.755   9.242  -4.093  0.00  0.00    -0.489 OA
BRANCH  28  29
ATOM     29  C   UNL     1       8.475  10.381  -4.252  0.00  0.00    +0.121 A 
ATOM     30  C   UNL     1       9.086  10.974  -3.152  0.00  0.00    +0.046 A 
ATOM     31  C   UNL     1       9.815  12.125  -3.308  0.00  0.00    +0.014 A 
ATOM     32  C   UNL     1       9.943  12.704  -4.576  0.00  0.00    +0.014 A 
ATOM     33  C   UNL     1       9.326  12.102  -5.681  0.00  0.00    +0.014 A 
ATOM     34  C   UNL     1       8.604  10.949  -5.515  0.00  0.00    +0.046 A 
BRANCH  32  35
ATOM     35  C   UNL     1      10.722  13.937  -4.748  0.00  0.00    +0.258 C 
ATOM     36  O   UNL     1      10.832  14.436  -5.848  0.00  0.00    -0.296 OA
ENDBRANCH  32  35
ENDBRANCH  28  29
ENDBRANCH  27  28
ENDBRANCH  24  27
ENDBRANCH  23  24
ENDBRANCH   1  23
TORSDOF 11
