REMARK  Name = ZINC14856829
REMARK  4 active torsions:
REMARK  status: ('A' for Active; 'I' for Inactive)
REMARK    1  A    between atoms: C_1  and  S_2
REMARK    2  A    between atoms: S_2  and  C_5
REMARK    3  A    between atoms: C_15  and  C_17
REMARK    4  A    between atoms: N_20  and  C_22
REMARK                            x       y       z     vdW  Elec       q    Type
REMARK                         _______ _______ _______ _____ _____    ______ ____
ROOT
ATOM      1  C   UNL     1      -2.707   1.312   2.114  0.00  0.00    +0.089 A 
ATOM      2  C   UNL     1      -2.946   0.007   2.521  0.00  0.00    +0.029 A 
ATOM      3  C   UNL     1      -4.165  -0.590   2.332  0.00  0.00    +0.031 A 
ATOM      4  C   UNL     1      -5.226   0.112   1.713  0.00  0.00    +0.080 A 
ATOM      5  C   UNL     1      -4.946   1.438   1.313  0.00  0.00    +0.043 A 
ATOM      6  C   UNL     1      -3.723   2.030   1.510  0.00  0.00    +0.044 A 
ATOM      7  S   UNL     1      -6.491   1.952   0.601  0.00  0.00    -0.052 S 
ATOM      8  C   UNL     1      -7.381   0.426   0.871  0.00  0.00    +0.166 A 
ATOM      9  N   UNL     1      -6.477  -0.326   1.455  0.00  0.00    -0.225 NA
ATOM     10  N   UNL     1      -8.690   0.116   0.546  0.00  0.00    -0.259 N 
ATOM     11  C   UNL     1      -9.185  -1.105   0.834  0.00  0.00    +0.270 C 
ATOM     12  O   UNL     1      -8.481  -1.933   1.379  0.00  0.00    -0.268 OA
ATOM     13  H   UNL     1      -9.252   0.776   0.112  0.00  0.00    +0.157 HD
ENDROOT
BRANCH  11  14
ATOM     14  C   UNL     1     -10.581  -1.436   0.489  0.00  0.00    +0.151 A 
ATOM     15  C   UNL     1     -11.234  -2.659   0.718  0.00  0.00    +0.006 A 
ATOM     16  C   UNL     1     -12.494  -2.505   0.242  0.00  0.00    +0.049 A 
ATOM     17  N   UNL     1     -12.582  -1.251  -0.254  0.00  0.00    -0.236 N 
ATOM     18  N   UNL     1     -11.457  -0.640  -0.102  0.00  0.00    -0.161 NA
ATOM     19  C   UNL     1     -13.546  -3.583   0.283  0.00  0.00    +0.056 C 
ATOM     20  C   UNL     1     -12.848  -4.928   0.535  0.00  0.00    +0.006 C 
ATOM     21  C   UNL     1     -11.909  -4.797   1.737  0.00  0.00    +0.005 C 
ATOM     22  C   UNL     1     -10.711  -3.915   1.358  0.00  0.00    +0.039 C 
BRANCH  17  23
ATOM     23  C   UNL     1     -13.726  -0.697  -0.844  0.00  0.00    +0.066 A 
ATOM     24  C   UNL     1     -13.611   0.081  -1.988  0.00  0.00    +0.030 A 
ATOM     25  C   UNL     1     -14.739   0.623  -2.571  0.00  0.00    +0.040 A 
ATOM     26  C   UNL     1     -15.985   0.399  -2.008  0.00  0.00    +0.124 A 
ATOM     27  C   UNL     1     -16.102  -0.373  -0.864  0.00  0.00    +0.040 A 
ATOM     28  C   UNL     1     -14.976  -0.920  -0.281  0.00  0.00    +0.030 A 
ATOM     29  F   UNL     1     -17.088   0.934  -2.576  0.00  0.00    -0.205 F 
ENDBRANCH  17  23
ENDBRANCH  11  14
BRANCH   1  31
ATOM     30  C   UNL     1      -0.182   1.660   0.875  0.00  0.00    +0.200 C 
ATOM     31  S   UNL     1      -1.128   2.049   2.372  0.00  0.00    -0.006 S 
ATOM     32  O   UNL     1      -0.584   1.359   3.489  0.00  0.00    -0.170 OA
ATOM     33  O   UNL     1      -1.386   3.445   2.439  0.00  0.00    -0.170 OA
ENDBRANCH   1  31
TORSDOF 3
