REMARK  Name = ZINC63204686
REMARK  10 active torsions:
REMARK  status: ('A' for Active; 'I' for Inactive)
REMARK    1  A    between atoms: C_1  and  C_2
REMARK    2  A    between atoms: C_2  and  C_3
REMARK    3  A    between atoms: C_2  and  C_4
REMARK    4  A    between atoms: C_4  and  C_6
REMARK    5  A    between atoms: C_4  and  N_26
REMARK    6  A    between atoms: N_8  and  C_9
REMARK    7  A    between atoms: C_9  and  C_10
REMARK    8  A    between atoms: C_10  and  C_12
REMARK    9  A    between atoms: C_10  and  C_17
REMARK   10  A    between atoms: C_27  and  C_29
REMARK                            x       y       z     vdW  Elec       q    Type
REMARK                         _______ _______ _______ _____ _____    ______ ____
ROOT
ATOM      1  C   UNL     1       0.762  -2.018   1.233  0.00  0.00    +0.234 C 
ATOM      2  O   UNL     1       1.821  -2.610   1.220  0.00  0.00    -0.274 OA
ATOM      3  N   UNL     1      -0.395  -2.707   1.241  0.00  0.00    -0.313 N 
ATOM      4  H   UNL     1      -1.242  -2.234   1.251  0.00  0.00    +0.149 HD
ENDROOT
BRANCH   1   5
ATOM      5  C   UNL     1       0.742  -0.511   1.242  0.00  0.00    +0.162 C 
BRANCH   5   6
ATOM      6  N   UNL     1       2.116  -0.004   1.231  0.00  0.00    -0.300 N 
ATOM      7  C   UNL     1       2.387   1.219   1.728  0.00  0.00    +0.247 C 
ATOM      8  O   UNL     1       1.491   1.902   2.186  0.00  0.00    -0.270 OA
ATOM      9  H   UNL     1       2.832  -0.548   0.866  0.00  0.00    +0.150 HD
BRANCH   7  10
ATOM     10  C   UNL     1       3.773   1.730   1.718  0.00  0.00    +0.072 A 
ATOM     11  C   UNL     1       4.804   0.952   1.188  0.00  0.00    +0.016 A 
ATOM     12  C   UNL     1       6.095   1.435   1.181  0.00  0.00    +0.001 A 
ATOM     13  C   UNL     1       6.373   2.689   1.698  0.00  0.00    +0.003 A 
ATOM     14  C   UNL     1       5.359   3.467   2.224  0.00  0.00    +0.039 A 
ATOM     15  C   UNL     1       4.058   2.999   2.233  0.00  0.00    +0.135 A 
ATOM     16  F   UNL     1       3.066   3.762   2.743  0.00  0.00    -0.205 F 
ENDBRANCH   7  10
ENDBRANCH   5   6
BRANCH   5  18
ATOM     17  C   UNL     1      -0.019   1.526   0.010  0.00  0.00    +0.009 C 
ATOM     18  C   UNL     1       0.002  -0.004   0.002  0.00  0.00    +0.012 C 
ATOM     19  C   UNL     1       0.718  -0.497  -1.257  0.00  0.00    +0.009 C 
ENDBRANCH   5  18
ENDBRANCH   1   5
BRANCH   3  20
ATOM     20  C   UNL     1      -0.376  -4.172   1.233  0.00  0.00    +0.117 C 
BRANCH  20  21
ATOM     21  C   UNL     1      -1.811  -4.702   1.243  0.00  0.00    +0.071 C 
BRANCH  21  22
ATOM     22  C   UNL     1      -1.791  -6.204   1.359  0.00  0.00    -0.032 C 
ATOM     23  C   UNL     1      -2.345  -6.952   2.341  0.00  0.00    -0.000 A 
ATOM     24  C   UNL     1      -3.101  -6.603   3.550  0.00  0.00    +0.010 A 
ATOM     25  C   UNL     1      -3.535  -7.594   4.361  0.00  0.00    +0.001 A 
ATOM     26  C   UNL     1      -3.281  -8.943   4.077  0.00  0.00    +0.002 A 
ATOM     27  C   UNL     1      -2.594  -9.342   2.986  0.00  0.00    +0.026 A 
ATOM     28  C   UNL     1      -2.090  -8.383   2.064  0.00  0.00    +0.043 A 
ATOM     29  N   UNL     1      -1.406  -8.516   0.953  0.00  0.00    -0.380 N 
ATOM     30  C   UNL     1      -1.154  -7.182   0.397  0.00  0.00    +0.145 C 
ATOM     31  H   UNL     1      -1.118  -9.356   0.563  0.00  0.00    +0.160 HD
ENDBRANCH  21  22
BRANCH  21  32
ATOM     32  C   UNL     1      -2.502  -4.306  -0.036  0.00  0.00    -0.002 A 
ATOM     33  C   UNL     1      -3.611  -3.545  -0.206  0.00  0.00    +0.012 A 
ATOM     34  C   UNL     1      -4.072  -3.309  -1.488  0.00  0.00    +0.008 A 
ATOM     35  C   UNL     1      -3.400  -3.845  -2.537  0.00  0.00    +0.045 A 
ATOM     36  S   UNL     1      -2.068  -4.709  -1.720  0.00  0.00    -0.101 S 
ENDBRANCH  21  32
ENDBRANCH  20  21
ENDBRANCH   3  20
TORSDOF 8
