REMARK  Name = ZINC02897819
REMARK  7 active torsions:
REMARK  status: ('A' for Active; 'I' for Inactive)
REMARK    1  A    between atoms: C_4  and  O_37
REMARK    2  A    between atoms: C_5  and  N_7
REMARK    3  A    between atoms: C_8  and  C_10
REMARK    4  A    between atoms: N_18  and  C_21
REMARK    5  A    between atoms: C_24  and  S_27
REMARK    6  A    between atoms: S_27  and  C_28
REMARK    7  A    between atoms: C_31  and  N_34
REMARK                            x       y       z     vdW  Elec       q    Type
REMARK                         _______ _______ _______ _____ _____    ______ ____
ROOT
ATOM      1  C   UNL     1       2.409   0.691  -0.105  0.00  0.00    +0.038 A 
ATOM      2  C   UNL     1       2.263  -0.691   0.017  0.00  0.00    +0.014 A 
ATOM      3  C   UNL     1       3.378  -1.505   0.120  0.00  0.00    +0.014 A 
ATOM      4  C   UNL     1       4.646  -0.946   0.101  0.00  0.00    +0.050 A 
ATOM      5  C   UNL     1       4.800   0.451  -0.023  0.00  0.00    +0.050 A 
ATOM      6  C   UNL     1       3.684   1.262  -0.131  0.00  0.00    +0.027 A 
ATOM      7  C   UNL     1       6.257   0.699  -0.009  0.00  0.00    +0.258 C 
ATOM      8  O   UNL     1       6.792   1.786  -0.095  0.00  0.00    -0.269 OA
ATOM      9  N   UNL     1       6.893  -0.480   0.115  0.00  0.00    -0.202 N 
ATOM     10  C   UNL     1       6.016  -1.498   0.186  0.00  0.00    +0.258 C 
ATOM     11  O   UNL     1       6.302  -2.672   0.301  0.00  0.00    -0.269 OA
ENDROOT
BRANCH   9  12
ATOM     12  C   UNL     1       8.287  -0.629   0.164  0.00  0.00    +0.045 A 
ATOM     13  C   UNL     1       9.108   0.488   0.076  0.00  0.00    +0.025 A 
ATOM     14  C   UNL     1      10.479   0.343   0.130  0.00  0.00    +0.017 A 
ATOM     15  C   UNL     1      11.039  -0.922   0.260  0.00  0.00    +0.013 A 
ATOM     16  C   UNL     1      10.218  -2.040   0.342  0.00  0.00    +0.017 A 
ATOM     17  C   UNL     1       8.846  -1.893   0.294  0.00  0.00    +0.025 A 
BRANCH  15  18
ATOM     18  S   UNL     1      12.790  -1.109   0.321  0.00  0.00    -0.089 S 
BRANCH  18  19
ATOM     19  C   UNL     1      13.273  -1.163  -1.372  0.00  0.00    +0.013 A 
ATOM     20  C   UNL     1      12.308  -1.174  -2.372  0.00  0.00    +0.017 A 
ATOM     21  C   UNL     1      12.690  -1.211  -3.698  0.00  0.00    +0.034 A 
ATOM     22  C   UNL     1      14.032  -1.247  -4.032  0.00  0.00    +0.126 A 
ATOM     23  C   UNL     1      14.995  -1.242  -3.040  0.00  0.00    +0.034 A 
ATOM     24  C   UNL     1      14.620  -1.200  -1.712  0.00  0.00    +0.017 A 
BRANCH  22  25
ATOM     25  N   UNL     1      14.437  -1.292  -5.455  0.00  0.00    +0.056 N 
ATOM     26  O   UNL     1      15.618  -1.324  -5.751  0.00  0.00    -0.126 OA
ATOM     27  O   UNL     1      13.590  -1.297  -6.330  0.00  0.00    -0.126 OA
ENDBRANCH  22  25
ENDBRANCH  18  19
ENDBRANCH  15  18
ENDBRANCH   9  12
BRANCH   1  29
ATOM     28  N   UNL     1      -0.019   1.003  -0.195  0.00  0.00    -0.279 N 
ATOM     29  C   UNL     1       1.211   1.553  -0.214  0.00  0.00    +0.248 C 
ATOM     30  O   UNL     1       1.337   2.757  -0.321  0.00  0.00    -0.270 OA
ATOM     31  H   UNL     1      -0.119   0.039  -0.175  0.00  0.00    +0.155 HD
BRANCH  28  36
ATOM     32  C   UNL     1      -2.262   3.822  -0.938  0.00  0.00    +0.002 A 
ATOM     33  C   UNL     1      -3.396   3.450  -0.239  0.00  0.00    +0.004 A 
ATOM     34  C   UNL     1      -3.415   2.267   0.476  0.00  0.00    +0.047 A 
ATOM     35  C   UNL     1      -2.296   1.450   0.494  0.00  0.00    +0.138 A 
ATOM     36  C   UNL     1      -1.153   1.824  -0.210  0.00  0.00    +0.076 A 
ATOM     37  C   UNL     1      -1.140   3.016  -0.921  0.00  0.00    +0.027 A 
BRANCH  35  38
ATOM     38  O   UNL     1      -2.312   0.287   1.197  0.00  0.00    -0.505 OA
ATOM     39  H   UNL     1      -2.018   0.377   2.114  0.00  0.00    +0.292 HD
ENDBRANCH  35  38
ENDBRANCH  28  36
ENDBRANCH   1  29
TORSDOF 7
