REMARK  Name = ZINC41346409
REMARK  12 active torsions:
REMARK  status: ('A' for Active; 'I' for Inactive)
REMARK    1  A    between atoms: C_1  and  C_2
REMARK    2  A    between atoms: C_2  and  N_3
REMARK    3  A    between atoms: C_5  and  C_9
REMARK    4  A    between atoms: C_6  and  C_8
REMARK    5  A    between atoms: C_9  and  C_10
REMARK    6  A    between atoms: C_10  and  C_11
REMARK    7  A    between atoms: C_14  and  S_18
REMARK    8  A    between atoms: N_15  and  C_16
REMARK    9  A    between atoms: C_16  and  C_17
REMARK   10  A    between atoms: S_18  and  C_19
REMARK   11  A    between atoms: C_19  and  C_20
REMARK   12  A    between atoms: C_25  and  C_26
REMARK                            x       y       z     vdW  Elec       q    Type
REMARK                         _______ _______ _______ _____ _____    ______ ____
ROOT
ATOM      1  C   UNL     1       0.526  -2.513   6.661  0.00  0.00    +0.134 A 
ATOM      2  N   UNL     1      -0.529  -3.176   7.041  0.00  0.00    -0.134 NA
ATOM      3  N   UNL     1      -0.272  -3.839   8.112  0.00  0.00    -0.122 NA
ATOM      4  C   UNL     1       0.972  -3.631   8.476  0.00  0.00    +0.192 A 
ATOM      5  N   UNL     1       1.522  -2.782   7.559  0.00  0.00    -0.306 N 
ENDROOT
BRANCH   5   6
ATOM      6  C   UNL     1       2.892  -2.265   7.542  0.00  0.00    +0.122 C 
ATOM      7  C   UNL     1       2.954  -0.958   8.335  0.00  0.00    +0.027 C 
ENDBRANCH   5   6
BRANCH   1   8
ATOM      8  C   UNL     1       0.631  -1.618   5.453  0.00  0.00    +0.081 C 
BRANCH   8   9
ATOM      9  C   UNL     1       1.082  -2.443   4.245  0.00  0.00    +0.046 C 
BRANCH   9  12
ATOM     10  N   UNL     1       0.711  -0.489   1.189  0.00  0.00    -0.271 N 
ATOM     11  C   UNL     1       0.229  -1.360   2.100  0.00  0.00    +0.112 A 
ATOM     12  C   UNL     1       1.187  -1.549   3.037  0.00  0.00    -0.007 A 
ATOM     13  C   UNL     1       2.292  -0.767   2.686  0.00  0.00    +0.063 A 
ATOM     14  N   UNL     1       2.010  -0.136   1.575  0.00  0.00    -0.176 NA
ATOM     15  C   UNL     1       3.587  -0.673   3.450  0.00  0.00    +0.068 C 
BRANCH  10  17
ATOM     16  C   UNL     1      -0.019   1.526   0.010  0.00  0.00    +0.029 C 
ATOM     17  C   UNL     1       0.002  -0.004   0.002  0.00  0.00    +0.140 C 
ENDBRANCH  10  17
ENDBRANCH   9  12
ENDBRANCH   8   9
ENDBRANCH   1   8
BRANCH   4  18
ATOM     18  S   UNL     1       1.782  -4.322   9.881  0.00  0.00    -0.081 S 
BRANCH  18  19
ATOM     19  C   UNL     1       0.507  -5.352  10.659  0.00  0.00    +0.112 C 
BRANCH  19  20
ATOM     20  C   UNL     1       1.076  -6.010  11.890  0.00  0.00    -0.034 A 
ATOM     21  C   UNL     1       1.692  -7.244  11.791  0.00  0.00    +0.005 A 
ATOM     22  C   UNL     1       2.213  -7.848  12.920  0.00  0.00    +0.000 A 
ATOM     23  C   UNL     1       2.119  -7.218  14.147  0.00  0.00    +0.000 A 
ATOM     24  C   UNL     1       1.504  -5.984  14.245  0.00  0.00    +0.003 A 
ATOM     25  C   UNL     1       0.986  -5.378  13.116  0.00  0.00    -0.046 A 
ATOM     26  C   UNL     1       0.320  -4.031  13.222  0.00  0.00    +0.044 C 
ENDBRANCH  19  20
ENDBRANCH  18  19
ENDBRANCH   4  18
TORSDOF 8
