REMARK  Name = ZINC66503584
REMARK  8 active torsions:
REMARK  status: ('A' for Active; 'I' for Inactive)
REMARK    1  A    between atoms: C_1  and  C_2
REMARK    2  A    between atoms: C_7  and  C_11
REMARK    3  A    between atoms: C_11  and  S_12
REMARK    4  A    between atoms: S_12  and  C_15
REMARK    5  A    between atoms: C_15  and  C_17
REMARK    6  A    between atoms: C_15  and  C_18
REMARK    7  A    between atoms: C_21  and  O_24
REMARK    8  A    between atoms: O_24  and  C_25
REMARK                            x       y       z     vdW  Elec       q    Type
REMARK                         _______ _______ _______ _____ _____    ______ ____
ROOT
ATOM      1  S   UNL     1       1.806  -6.006   2.653  0.00  0.00    -0.019 S 
ATOM      2  O   UNL     1       2.416  -6.267   1.396  0.00  0.00    -0.173 OA
ATOM      3  O   UNL     1       2.409  -5.065   3.531  0.00  0.00    -0.173 OA
ENDROOT
BRANCH   1   4
ATOM      4  C   UNL     1       1.620  -7.579   3.537  0.00  0.00    +0.158 C 
ATOM      5  C   UNL     1       0.741  -7.369   4.772  0.00  0.00    +0.037 C 
BRANCH   4   6
ATOM      6  C   UNL     1       2.975  -8.079   3.965  0.00  0.00    -0.024 A 
ATOM      7  C   UNL     1       3.757  -7.314   4.812  0.00  0.00    +0.009 A 
ATOM      8  C   UNL     1       5.000  -7.770   5.206  0.00  0.00    +0.046 A 
ATOM      9  C   UNL     1       5.465  -8.996   4.751  0.00  0.00    +0.130 A 
ATOM     10  C   UNL     1       4.678  -9.761   3.901  0.00  0.00    +0.046 A 
ATOM     11  C   UNL     1       3.434  -9.303   3.515  0.00  0.00    +0.009 A 
BRANCH   9  12
ATOM     12  O   UNL     1       6.688  -9.446   5.136  0.00  0.00    -0.406 OA
BRANCH  12  13
ATOM     13  C   UNL     1       7.101 -10.716   4.629  0.00  0.00    +0.575 C 
ATOM     14  F   UNL     1       7.140 -10.670   3.231  0.00  0.00    -0.133 F 
ATOM     15  F   UNL     1       8.373 -11.024   5.122  0.00  0.00    -0.133 F 
ATOM     16  F   UNL     1       6.192 -11.699   5.037  0.00  0.00    -0.133 F 
ENDBRANCH  12  13
ENDBRANCH   9  12
ENDBRANCH   4   6
ENDBRANCH   1   4
BRANCH   1  17
ATOM     17  C   UNL     1       0.088  -5.503   2.364  0.00  0.00    +0.223 C 
BRANCH  17  24
ATOM     18  C   UNL     1      -0.018   1.503   0.010  0.00  0.00    +0.045 C 
ATOM     19  C   UNL     1       0.002  -0.004   0.002  0.00  0.00    -0.034 A 
ATOM     20  C   UNL     1       0.006  -0.697  -1.220  0.00  0.00    +0.008 A 
ATOM     21  C   UNL     1       0.025  -2.057  -1.224  0.00  0.00    +0.047 A 
ATOM     22  C   UNL     1       0.040  -2.750   0.003  0.00  0.00    +0.138 A 
ATOM     23  N   UNL     1       0.059  -4.043   0.297  0.00  0.00    -0.231 NA
ATOM     24  C   UNL     1       0.067  -4.189   1.625  0.00  0.00    +0.081 A 
ATOM     25  C   UNL     1       0.053  -2.964   2.194  0.00  0.00    +0.117 A 
ATOM     26  N   UNL     1       0.036  -2.047   1.179  0.00  0.00    -0.306 N 
ATOM     27  C   UNL     1       0.022  -0.682   1.169  0.00  0.00    +0.096 A 
ENDBRANCH  17  24
ENDBRANCH   1  17
TORSDOF 6
