REMARK  Name = ZINC03139875
REMARK  5 active torsions:
REMARK  status: ('A' for Active; 'I' for Inactive)
REMARK    1  A    between atoms: C_1  and  N_2
REMARK    2  A    between atoms: C_3  and  C_16
REMARK    3  A    between atoms: C_5  and  C_7
REMARK    4  A    between atoms: N_9  and  C_10
REMARK    5  A    between atoms: N_18  and  C_19
REMARK                            x       y       z     vdW  Elec       q    Type
REMARK                         _______ _______ _______ _____ _____    ______ ____
ROOT
ATOM      1  C   UNL     1      -0.395   4.265  -0.172  0.00  0.00    +0.173 C 
ATOM      2  N   UNL     1      -1.457   3.263  -0.055  0.00  0.00    -0.262 N 
ATOM      3  C   UNL     1      -1.275   1.911  -0.154  0.00  0.00    +0.124 A 
ATOM      4  C   UNL     1      -2.506   1.334   0.018  0.00  0.00    +0.067 A 
ATOM      5  C   UNL     1      -3.400   2.406   0.214  0.00  0.00    +0.148 A 
ATOM      6  N   UNL     1      -2.698   3.522   0.153  0.00  0.00    -0.166 NA
ENDROOT
BRANCH   5   7
ATOM      7  C   UNL     1      -4.855   2.301   0.445  0.00  0.00    +0.264 C 
ATOM      8  O   UNL     1      -5.387   1.208   0.479  0.00  0.00    -0.268 OA
ATOM      9  N   UNL     1      -5.593   3.415   0.618  0.00  0.00    -0.307 N 
ATOM     10  H   UNL     1      -5.111   4.404   0.587  0.00  0.00    +0.149 HD
BRANCH   9  11
ATOM     11  C   UNL     1      -7.036   3.310   0.847  0.00  0.00    +0.073 C 
ATOM     12  C   UNL     1      -7.760   3.216  -0.498  0.00  0.00    +0.022 C 
ATOM     13  C   UNL     1      -9.267   3.107  -0.259  0.00  0.00    +0.002 C 
ATOM     14  C   UNL     1      -9.755   4.344   0.498  0.00  0.00    +0.000 C 
ATOM     15  C   UNL     1      -9.031   4.438   1.842  0.00  0.00    +0.002 C 
ATOM     16  C   UNL     1      -7.523   4.548   1.603  0.00  0.00    +0.022 C 
ENDBRANCH   9  11
ENDBRANCH   5   7
BRANCH   3  17
ATOM     17  C   UNL     1      -0.003   1.210  -0.394  0.00  0.00    +0.262 C 
ATOM     18  O   UNL     1       1.007   1.847  -0.627  0.00  0.00    -0.269 OA
ATOM     19  N   UNL     1       0.044  -0.136  -0.348  0.00  0.00    -0.307 N 
ATOM     20  H   UNL     1      -0.850  -0.708  -0.061  0.00  0.00    +0.149 HD
BRANCH  19  21
ATOM     21  C   UNL     1       1.287  -0.837  -0.683  0.00  0.00    +0.073 C 
ATOM     22  C   UNL     1       1.371  -1.031  -2.198  0.00  0.00    +0.022 C 
ATOM     23  C   UNL     1       2.668  -1.763  -2.547  0.00  0.00    +0.002 C 
ATOM     24  C   UNL     1       2.685  -3.128  -1.857  0.00  0.00    +0.000 C 
ATOM     25  C   UNL     1       2.601  -2.934  -0.341  0.00  0.00    +0.002 C 
ATOM     26  C   UNL     1       1.304  -2.202   0.008  0.00  0.00    +0.022 C 
ENDBRANCH  19  21
ENDBRANCH   3  17
TORSDOF 4
