REMARK  Name = ZINC03189460
REMARK  7 active torsions:
REMARK  status: ('A' for Active; 'I' for Inactive)
REMARK    1  A    between atoms: C_1  and  C_2
REMARK    2  A    between atoms: C_2  and  C_12
REMARK    3  A    between atoms: C_4  and  O_11
REMARK    4  A    between atoms: C_7  and  C_9
REMARK    5  A    between atoms: C_7  and  C_10
REMARK    6  A    between atoms: C_12  and  N_13
REMARK    7  A    between atoms: N_13  and  C_14
REMARK                            x       y       z     vdW  Elec       q    Type
REMARK                         _______ _______ _______ _____ _____    ______ ____
ROOT
ATOM      1  N   UNL     1       0.109   0.027  -2.455  0.00  0.00    -0.348 N 
ATOM      2  H   UNL     1      -0.792   0.376  -2.381  0.00  0.00    +0.146 HD
ENDROOT
BRANCH   1   3
ATOM      3  C   UNL     1       0.656  -0.176  -3.671  0.00  0.00    +0.085 C 
ATOM      4  C   UNL     1      -0.022   0.222  -4.808  0.00  0.00    +0.112 C 
ATOM      5  C   UNL     1      -1.255   1.025  -4.727  0.00  0.00    +0.258 C 
ATOM      6  O   UNL     1      -1.712   1.362  -3.651  0.00  0.00    -0.270 OA
ATOM      7  N   UNL     1      -1.864   1.377  -5.879  0.00  0.00    -0.236 N 
ATOM      8  C   UNL     1      -1.371   1.013  -7.071  0.00  0.00    +0.313 C 
ATOM      9  O   UNL     1      -1.967   1.363  -8.071  0.00  0.00    -0.252 OA
ATOM     10  N   UNL     1      -0.256   0.284  -7.219  0.00  0.00    -0.236 N 
ATOM     11  C   UNL     1       0.459  -0.134  -6.155  0.00  0.00    +0.258 C 
ATOM     12  O   UNL     1       1.472  -0.791  -6.303  0.00  0.00    -0.270 OA
ATOM     13  H   UNL     1      -2.676   1.906  -5.843  0.00  0.00    +0.159 HD
ATOM     14  H   UNL     1       0.045   0.056  -8.112  0.00  0.00    +0.159 HD
ENDBRANCH   1   3
BRANCH   1  15
ATOM     15  C   UNL     1       0.878  -0.281  -1.247  0.00  0.00    +0.107 C 
BRANCH  15  17
ATOM     16  C   UNL     1      -0.313   1.532  -0.059  0.00  0.00    +0.013 C 
ATOM     17  C   UNL     1       0.024   0.040   0.004  0.00  0.00    -0.014 C 
ATOM     18  C   UNL     1      -1.243  -0.799  -0.084  0.00  0.00    +0.039 C 
ATOM     19  C   UNL     1      -2.036  -0.793   1.214  0.00  0.00    +0.116 C 
ATOM     20  C   UNL     1      -1.172  -1.266   2.374  0.00  0.00    +0.037 C 
ATOM     21  C   UNL     1       0.101  -0.448   2.528  0.00  0.00    -0.032 C 
ATOM     22  C   UNL     1       0.861  -0.282   1.226  0.00  0.00    +0.014 C 
ATOM     23  C   UNL     1       1.022  -1.206   3.514  0.00  0.00    +0.011 C 
ATOM     24  C   UNL     1      -0.208   0.911   3.163  0.00  0.00    +0.011 C 
BRANCH  19  25
ATOM     25  O   UNL     1      -2.607   0.485   1.474  0.00  0.00    -0.392 OA
ATOM     26  H   UNL     1      -3.119   0.528   2.293  0.00  0.00    +0.210 HD
ENDBRANCH  19  25
ENDBRANCH  15  17
ENDBRANCH   1  15
TORSDOF 4
