REMARK  Name = ZINC35375748
REMARK  13 active torsions:
REMARK  status: ('A' for Active; 'I' for Inactive)
REMARK    1  A    between atoms: C_1  and  C_2
REMARK    2  A    between atoms: C_6  and  C_29
REMARK    3  A    between atoms: C_7  and  C_11
REMARK    4  A    between atoms: C_11  and  C_12
REMARK    5  A    between atoms: N_17  and  C_20
REMARK    6  A    between atoms: C_20  and  C_21
REMARK    7  A    between atoms: N_23  and  C_24
REMARK    8  A    between atoms: C_24  and  C_25
REMARK    9  A    between atoms: C_25  and  N_26
REMARK   10  A    between atoms: N_26  and  C_27
REMARK   11  A    between atoms: N_26  and  C_28
REMARK   12  A    between atoms: C_32  and  C_36
REMARK   13  A    between atoms: C_33  and  C_35
REMARK                            x       y       z     vdW  Elec       q    Type
REMARK                         _______ _______ _______ _____ _____    ______ ____
ROOT
ATOM      1  C   UNL     1       0.081  -6.360  -1.373  0.00  0.00    +0.138 C 
ENDROOT
BRANCH   1   8
ATOM      2  C   UNL     1      -0.018   1.503   0.010  0.00  0.00    +0.044 C 
ATOM      3  C   UNL     1       0.002  -0.004   0.002  0.00  0.00    -0.036 A 
ATOM      4  C   UNL     1       0.006  -0.675  -1.187  0.00  0.00    +0.051 A 
ATOM      5  C   UNL     1       0.024  -2.067  -1.213  0.00  0.00    +0.143 A 
ATOM      6  C   UNL     1       0.040  -2.791  -0.009  0.00  0.00    +0.064 A 
ATOM      7  C   UNL     1       0.059  -4.253  -0.056  0.00  0.00    -0.026 A 
ATOM      8  C   UNL     1       0.061  -4.856  -1.274  0.00  0.00    +0.049 A 
ATOM      9  C   UNL     1       0.044  -4.069  -2.443  0.00  0.00    +0.341 A 
ATOM     10  O   UNL     1       0.045  -4.621  -3.530  0.00  0.00    -0.245 OA
ATOM     11  O   UNL     1       0.027  -2.729  -2.391  0.00  0.00    -0.422 OA
ATOM     12  C   UNL     1       0.077  -5.067   1.211  0.00  0.00    +0.045 C 
ATOM     13  C   UNL     1       0.037  -2.106   1.218  0.00  0.00    +0.147 A 
ATOM     14  C   UNL     1       0.023  -0.704   1.212  0.00  0.00    +0.027 A 
ATOM     15  C   UNL     1       0.031  -0.306   2.625  0.00  0.00    -0.002 A 
ATOM     16  C   UNL     1       0.054  -1.444   3.333  0.00  0.00    +0.106 A 
ATOM     17  O   UNL     1       0.049  -2.502   2.504  0.00  0.00    -0.459 OA
ATOM     18  C   UNL     1       0.069  -1.524   4.838  0.00  0.00    +0.086 C 
ATOM     19  C   UNL     1       0.017   1.099   3.170  0.00  0.00    +0.048 C 
ENDBRANCH   1   8
BRANCH   1  20
ATOM     20  C   UNL     1      -1.329  -6.872  -1.522  0.00  0.00    +0.220 C 
ATOM     21  O   UNL     1      -2.258  -6.093  -1.546  0.00  0.00    -0.275 OA
ATOM     22  N   UNL     1      -1.557  -8.196  -1.630  0.00  0.00    -0.299 N 
ATOM     23  C   UNL     1      -0.445  -9.158  -1.598  0.00  0.00    +0.123 C 
ATOM     24  C   UNL     1      -0.765 -10.238  -0.558  0.00  0.00    +0.104 C 
ATOM     25  N   UNL     1      -2.082 -10.819  -0.851  0.00  0.00    -0.291 NA
ATOM     26  C   UNL     1      -3.147  -9.813  -0.735  0.00  0.00    +0.104 C 
ATOM     27  C   UNL     1      -2.924  -8.717  -1.776  0.00  0.00    +0.123 C 
BRANCH  25  28
ATOM     28  C   UNL     1      -2.352 -11.973   0.017  0.00  0.00    +0.180 C 
BRANCH  28  29
ATOM     29  C   UNL     1      -3.587 -12.689  -0.469  0.00  0.00    +0.227 C 
ATOM     30  O   UNL     1      -4.182 -12.278  -1.442  0.00  0.00    -0.274 OA
ATOM     31  N   UNL     1      -4.028 -13.786   0.178  0.00  0.00    -0.316 N 
ATOM     32  H   UNL     1      -3.552 -14.114   0.957  0.00  0.00    +0.149 HD
BRANCH  31  33
ATOM     33  C   UNL     1      -5.228 -14.481  -0.294  0.00  0.00    +0.085 C 
BRANCH  33  34
ATOM     34  C   UNL     1      -5.509 -15.683   0.610  0.00  0.00    -0.061 C 
BRANCH  34  35
ATOM     35  N   UNL     1      -6.712 -16.381   0.137  0.00  0.00    +0.377 N 
ATOM     36  C   UNL     1      -6.458 -16.947  -1.195  0.00  0.00    -0.097 C 
ATOM     37  C   UNL     1      -7.051 -17.462   1.071  0.00  0.00    -0.097 C 
ATOM     38  H   UNL     1      -7.480 -15.729   0.084  0.00  0.00    -0.083 HD
ENDBRANCH  34  35
ENDBRANCH  33  34
ENDBRANCH  31  33
ENDBRANCH  28  29
ENDBRANCH  25  28
ENDBRANCH   1  20
TORSDOF 7
