REMARK  Name = ZINC13495838
REMARK  12 active torsions:
REMARK  status: ('A' for Active; 'I' for Inactive)
REMARK    1  A    between atoms: C_1  and  C_2
REMARK    2  A    between atoms: C_2  and  C_3
REMARK    3  A    between atoms: C_3  and  C_5
REMARK    4  A    between atoms: C_3  and  N_72
REMARK    5  A    between atoms: N_9  and  C_10
REMARK    6  A    between atoms: C_15  and  C_16
REMARK    7  A    between atoms: C_15  and  N_72
REMARK    8  A    between atoms: C_16  and  C_17
REMARK    9  A    between atoms: C_23  and  C_24
REMARK   10  A    between atoms: C_23  and  N_72
REMARK   11  A    between atoms: C_28  and  C_37
REMARK   12  A    between atoms: C_30  and  C_36
REMARK                            x       y       z     vdW  Elec       q    Type
REMARK                         _______ _______ _______ _____ _____    ______ ____
ROOT
ATOM      1  N   UNL     1       1.447   3.805   0.891  0.00  0.00    +0.389 N 
ATOM      2  H   UNL     1       1.636   3.341   1.788  0.00  0.00    -0.080 HD
ENDROOT
BRANCH   1   3
ATOM      3  C   UNL     1       2.087   3.031  -0.194  0.00  0.00    +0.003 C 
BRANCH   3   4
ATOM      4  C   UNL     1       2.127   1.580   0.211  0.00  0.00    +0.138 A 
ATOM      5  N   UNL     1       1.426   1.014   1.164  0.00  0.00    -0.115 NA
ATOM      6  N   UNL     1       1.741  -0.235   1.200  0.00  0.00    -0.023 NA
ATOM      7  N   UNL     1       2.624  -0.480   0.296  0.00  0.00    -0.044 NA
ATOM      8  N   UNL     1       2.888   0.614  -0.335  0.00  0.00    -0.228 N 
BRANCH   8   9
ATOM      9  C   UNL     1       3.837   0.774  -1.439  0.00  0.00    +0.111 C 
ATOM     10  C   UNL     1       3.459  -0.167  -2.602  0.00  0.00    +0.027 C 
ATOM     11  C   UNL     1       4.822  -0.642  -3.164  0.00  0.00    +0.002 C 
ATOM     12  C   UNL     1       5.680  -0.810  -1.885  0.00  0.00    +0.002 C 
ATOM     13  C   UNL     1       5.249   0.365  -0.984  0.00  0.00    +0.027 C 
ENDBRANCH   8   9
ENDBRANCH   3   4
BRANCH   3  15
ATOM     14  C   UNL     1       1.361   4.627  -1.974  0.00  0.00    +0.002 C 
ATOM     15  C   UNL     1       1.291   3.176  -1.492  0.00  0.00    -0.011 C 
ENDBRANCH   3  15
ENDBRANCH   1   3
BRANCH   1  16
ATOM     16  C   UNL     1      -0.014   3.861   0.678  0.00  0.00    -0.073 C 
BRANCH  16  17
ATOM     17  C   UNL     1      -0.611   2.489   0.999  0.00  0.00    +0.016 C 
BRANCH  17  18
ATOM     18  C   UNL     1      -2.115   2.567   0.931  0.00  0.00    -0.049 A 
ATOM     19  C   UNL     1      -2.842   2.886   2.063  0.00  0.00    +0.003 A 
ATOM     20  C   UNL     1      -4.221   2.962   1.999  0.00  0.00    +0.000 A 
ATOM     21  C   UNL     1      -4.873   2.710   0.806  0.00  0.00    +0.000 A 
ATOM     22  C   UNL     1      -4.146   2.385  -0.324  0.00  0.00    +0.000 A 
ATOM     23  C   UNL     1      -2.767   2.314  -0.261  0.00  0.00    +0.003 A 
ENDBRANCH  17  18
ENDBRANCH  16  17
ENDBRANCH   1  16
BRANCH   1  24
ATOM     24  C   UNL     1       2.005   5.173   0.932  0.00  0.00    -0.037 C 
BRANCH  24  25
ATOM     25  C   UNL     1       3.354   5.125   1.602  0.00  0.00    +0.001 A 
ATOM     26  C   UNL     1       4.479   5.050   0.849  0.00  0.00    +0.017 A 
ATOM     27  C   UNL     1       5.774   5.004   1.531  0.00  0.00    -0.001 A 
ATOM     28  C   UNL     1       6.970   4.927   0.808  0.00  0.00    +0.013 A 
ATOM     29  C   UNL     1       8.162   4.886   1.474  0.00  0.00    -0.050 A 
ATOM     30  C   UNL     1       8.198   4.921   2.861  0.00  0.00    +0.008 A 
ATOM     31  C   UNL     1       7.033   4.998   3.593  0.00  0.00    -0.026 A 
ATOM     32  C   UNL     1       5.807   5.040   2.937  0.00  0.00    +0.052 A 
ATOM     33  N   UNL     1       4.626   5.117   3.645  0.00  0.00    -0.322 N 
ATOM     34  H   UNL     1       4.650   5.141   4.614  0.00  0.00    +0.169 HD
ATOM     35  C   UNL     1       3.442   5.163   3.010  0.00  0.00    +0.251 A 
ATOM     36  O   UNL     1       2.418   5.236   3.667  0.00  0.00    -0.268 OA
ATOM     37  C   UNL     1       7.087   5.035   5.099  0.00  0.00    +0.046 C 
ATOM     38  C   UNL     1       9.449   4.803   0.695  0.00  0.00    +0.044 C 
ENDBRANCH  24  25
ENDBRANCH   1  24
TORSDOF 9
