REMARK  Name = ZINC15349992
REMARK  4 active torsions:
REMARK  status: ('A' for Active; 'I' for Inactive)
REMARK    1  A    between atoms: C_1  and  C_2
REMARK    2  A    between atoms: C_15  and  C_17
REMARK    3  A    between atoms: C_17  and  C_19
REMARK    4  A    between atoms: C_17  and  N_20
REMARK                            x       y       z     vdW  Elec       q    Type
REMARK                         _______ _______ _______ _____ _____    ______ ____
ROOT
ATOM      1  C   UNL     1      -6.191   4.399  -9.593  0.00  0.00    +0.008 C 
ATOM      2  C   UNL     1      -5.361   3.580  -8.603  0.00  0.00    -0.009 C 
ATOM      3  C   UNL     1      -3.922   3.460  -9.114  0.00  0.00    +0.008 C 
ATOM      4  C   UNL     1      -3.152   2.446  -8.267  0.00  0.00    +0.037 C 
ATOM      5  C   UNL     1      -3.299   2.821  -6.795  0.00  0.00    -0.023 A 
ATOM      6  C   UNL     1      -4.288   3.644  -6.389  0.00  0.00    -0.004 A 
ATOM      7  S   UNL     1      -4.070   3.795  -4.636  0.00  0.00    -0.073 S 
ATOM      8  C   UNL     1      -2.648   2.748  -4.455  0.00  0.00    +0.116 A 
ATOM      9  C   UNL     1      -2.390   2.318  -5.766  0.00  0.00    +0.075 A 
ATOM     10  C   UNL     1      -1.268   1.439  -5.921  0.00  0.00    +0.260 A 
ATOM     11  O   UNL     1      -0.963   1.012  -7.021  0.00  0.00    -0.267 OA
ATOM     12  N   UNL     1      -0.554   1.099  -4.832  0.00  0.00    -0.309 N 
ATOM     13  H   UNL     1       0.209   0.508  -4.930  0.00  0.00    +0.170 HD
ATOM     14  C   UNL     1      -0.882   1.562  -3.598  0.00  0.00    +0.131 A 
ATOM     15  N   UNL     1      -1.899   2.364  -3.425  0.00  0.00    -0.225 NA
ATOM     16  C   UNL     1      -5.341   4.287  -7.240  0.00  0.00    +0.046 C 
ENDROOT
BRANCH  14  17
ATOM     17  C   UNL     1      -0.055   1.148  -2.408  0.00  0.00    +0.136 C 
ATOM     18  C   UNL     1       0.033  -0.379  -2.355  0.00  0.00    +0.036 C 
BRANCH  17  19
ATOM     19  N   UNL     1      -0.685   1.645  -1.178  0.00  0.00    -0.320 N 
ATOM     20  C   UNL     1      -1.987   1.011  -0.961  0.00  0.00    +0.106 C 
ATOM     21  C   UNL     1      -2.583   1.542   0.349  0.00  0.00    +0.024 C 
ATOM     22  C   UNL     1      -1.727   1.020   1.504  0.00  0.00    +0.038 C 
ATOM     23  C   UNL     1      -0.267   1.229   1.191  0.00  0.00    -0.026 A 
ATOM     24  C   UNL     1       0.176   1.516  -0.089  0.00  0.00    +0.033 A 
ATOM     25  C   UNL     1       1.542   1.690  -0.318  0.00  0.00    +0.023 A 
ATOM     26  C   UNL     1       2.443   1.580   0.719  0.00  0.00    +0.002 A 
ATOM     27  C   UNL     1       1.995   1.297   1.996  0.00  0.00    +0.000 A 
ATOM     28  C   UNL     1       0.645   1.123   2.229  0.00  0.00    +0.005 A 
ENDBRANCH  17  19
ENDBRANCH  14  17
TORSDOF 2
