REMARK  Name = ZINC59148473
REMARK  11 active torsions:
REMARK  status: ('A' for Active; 'I' for Inactive)
REMARK    1  A    between atoms: C_1  and  C_2
REMARK    2  A    between atoms: C_5  and  C_34
REMARK    3  A    between atoms: C_6  and  O_8
REMARK    4  A    between atoms: O_8  and  C_9
REMARK    5  A    between atoms: C_9  and  C_10
REMARK    6  A    between atoms: N_12  and  N_13
REMARK    7  A    between atoms: N_21  and  C_24
REMARK    8  A    between atoms: C_24  and  C_25
REMARK    9  A    between atoms: C_28  and  N_31
REMARK   10  A    between atoms: C_34  and  C_35
REMARK   11  A    between atoms: C_34  and  C_36
REMARK                            x       y       z     vdW  Elec       q    Type
REMARK                         _______ _______ _______ _____ _____    ______ ____
ROOT
ATOM      1  N   UNL     1       0.078  -3.286   7.105  0.00  0.00    -0.174 NA
ATOM      2  C   UNL     1       0.176  -2.796   8.317  0.00  0.00    +0.153 C 
ATOM      3  C   UNL     1       0.170  -1.369   8.716  0.00  0.00    +0.028 A 
ATOM      4  C   UNL     1       0.068  -0.181   8.001  0.00  0.00    +0.012 A 
ATOM      5  C   UNL     1       0.094   1.026   8.671  0.00  0.00    +0.001 A 
ATOM      6  C   UNL     1       0.221   1.051  10.050  0.00  0.00    +0.002 A 
ATOM      7  C   UNL     1       0.324  -0.123  10.768  0.00  0.00    +0.024 A 
ATOM      8  C   UNL     1       0.299  -1.348  10.110  0.00  0.00    +0.046 A 
ATOM      9  N   UNL     1       0.383  -2.652  10.585  0.00  0.00    -0.261 N 
ATOM     10  C   UNL     1       0.310  -3.545   9.582  0.00  0.00    +0.272 C 
ATOM     11  O   UNL     1       0.351  -4.756   9.697  0.00  0.00    -0.268 OA
ENDROOT
BRANCH   1  14
ATOM     12  C   UNL     1      -0.071  -2.919   4.758  0.00  0.00    +0.270 C 
ATOM     13  O   UNL     1      -0.315  -4.097   4.603  0.00  0.00    -0.270 OA
ATOM     14  N   UNL     1       0.140  -2.432   5.996  0.00  0.00    -0.203 N 
ATOM     15  H   UNL     1       0.335  -1.490   6.120  0.00  0.00    +0.177 HD
BRANCH  12  16
ATOM     16  C   UNL     1      -0.005  -2.000   3.565  0.00  0.00    +0.326 C 
BRANCH  16  17
ATOM     17  O   UNL     1      -0.262  -2.746   2.374  0.00  0.00    -0.482 OA
BRANCH  17  23
ATOM     18  C   UNL     1       0.333   1.473  -0.006  0.00  0.00    +0.044 C 
ATOM     19  C   UNL     1       0.047  -0.006   0.001  0.00  0.00    -0.047 A 
ATOM     20  C   UNL     1      -0.194  -0.668  -1.189  0.00  0.00    +0.004 A 
ATOM     21  C   UNL     1      -0.457  -2.026  -1.187  0.00  0.00    +0.008 A 
ATOM     22  C   UNL     1      -0.481  -2.724   0.005  0.00  0.00    -0.003 A 
ATOM     23  C   UNL     1      -0.239  -2.062   1.200  0.00  0.00    +0.125 A 
ATOM     24  C   UNL     1       0.030  -0.701   1.194  0.00  0.00    +0.049 A 
BRANCH  22  25
ATOM     25  C   UNL     1      -0.768  -4.203   0.007  0.00  0.00    +0.016 C 
ATOM     26  C   UNL     1      -2.152  -4.454  -0.595  0.00  0.00    +0.012 C 
ATOM     27  C   UNL     1       0.290  -4.930  -0.826  0.00  0.00    +0.012 C 
ENDBRANCH  22  25
ENDBRANCH  17  23
ENDBRANCH  16  17
ENDBRANCH  12  16
ENDBRANCH   1  14
BRANCH   9  28
ATOM     28  C   UNL     1       0.525  -3.009  11.998  0.00  0.00    +0.149 C 
BRANCH  28  29
ATOM     29  C   UNL     1      -0.840  -3.174  12.615  0.00  0.00    -0.030 A 
ATOM     30  C   UNL     1      -1.476  -2.088  13.186  0.00  0.00    +0.007 A 
ATOM     31  C   UNL     1      -2.728  -2.239  13.751  0.00  0.00    +0.033 A 
ATOM     32  C   UNL     1      -3.345  -3.477  13.745  0.00  0.00    +0.126 A 
ATOM     33  C   UNL     1      -2.709  -4.562  13.173  0.00  0.00    +0.033 A 
ATOM     34  C   UNL     1      -1.458  -4.410  12.604  0.00  0.00    +0.007 A 
BRANCH  32  35
ATOM     35  N   UNL     1      -4.685  -3.639  14.352  0.00  0.00    +0.056 N 
ATOM     36  O   UNL     1      -5.241  -2.689  14.852  0.00  0.00    -0.126 OA
ATOM     37  O   UNL     1      -5.224  -4.721  14.346  0.00  0.00    -0.126 OA
ENDBRANCH  32  35
ENDBRANCH  28  29
ENDBRANCH   9  28
TORSDOF 8
