REMARK  Name = ZINC20800616
REMARK  4 active torsions:
REMARK  status: ('A' for Active; 'I' for Inactive)
REMARK    1  A    between atoms: C_1  and  O_2
REMARK    2  A    between atoms: O_2  and  C_3
REMARK    3  A    between atoms: C_3  and  C_5
REMARK    4  A    between atoms: C_14  and  C_19
REMARK                            x       y       z     vdW  Elec       q    Type
REMARK                         _______ _______ _______ _____ _____    ______ ____
ROOT
ATOM      1  C   UNL     1       1.244   1.966   0.001  0.00  0.00    +0.124 A 
ATOM      2  C   UNL     1       1.178   3.353   0.011  0.00  0.00    +0.033 A 
ATOM      3  C   UNL     1      -0.088   3.975   0.029  0.00  0.00    +0.038 A 
ATOM      4  C   UNL     1      -1.248   3.218   0.030  0.00  0.00    +0.030 A 
ATOM      5  N   UNL     1      -1.186   1.871   0.018  0.00  0.00    -0.325 N 
ATOM      6  H   UNL     1      -2.112   1.278   0.015  0.00  0.00    +0.169 HD
ATOM      7  C   UNL     1      -0.014   1.214   0.009  0.00  0.00    +0.263 A 
ATOM      8  O   UNL     1       0.002  -0.004   0.002  0.00  0.00    -0.267 OA
ATOM      9  C   UNL     1      -2.609   3.866   0.036  0.00  0.00    +0.062 C 
ATOM     10  C   UNL     1      -2.547   5.283   0.599  0.00  0.00    +0.032 C 
ATOM     11  C   UNL     1      -1.507   6.093  -0.187  0.00  0.00    +0.088 C 
ATOM     12  C   UNL     1      -0.160   5.446   0.051  0.00  0.00    +0.165 C 
ATOM     13  O   UNL     1       0.830   6.118   0.256  0.00  0.00    -0.292 OA
ENDROOT
BRANCH  10  14
ATOM     14  C   UNL     1      -3.898   5.936   0.468  0.00  0.00    -0.043 A 
ATOM     15  C   UNL     1      -4.470   6.098  -0.780  0.00  0.00    +0.007 A 
ATOM     16  C   UNL     1      -5.712   6.692  -0.901  0.00  0.00    +0.038 A 
ATOM     17  C   UNL     1      -6.379   7.135   0.229  0.00  0.00    +0.123 A 
ATOM     18  C   UNL     1      -5.803   6.977   1.478  0.00  0.00    +0.038 A 
ATOM     19  C   UNL     1      -4.564   6.378   1.597  0.00  0.00    +0.007 A 
ATOM     20  F   UNL     1      -7.590   7.721   0.111  0.00  0.00    -0.205 F 
ENDBRANCH  10  14
BRANCH   1  21
ATOM     21  C   UNL     1       2.539   1.271  -0.018  0.00  0.00    +0.344 C 
ATOM     22  O   UNL     1       3.572   1.911  -0.025  0.00  0.00    -0.245 OA
BRANCH  21  24
ATOM     23  C   UNL     1       3.894  -0.695  -0.048  0.00  0.00    +0.280 C 
ATOM     24  O   UNL     1       2.581  -0.077  -0.029  0.00  0.00    -0.464 OA
ENDBRANCH  21  24
ENDBRANCH   1  21
TORSDOF 3
