REMARK  Name = ZINC01506897
REMARK  4 active torsions:
REMARK  status: ('A' for Active; 'I' for Inactive)
REMARK    1  A    between atoms: C_4  and  C_7
REMARK    2  A    between atoms: C_9  and  C_21
REMARK    3  A    between atoms: C_10  and  C_15
REMARK    4  A    between atoms: C_21  and  C_23
REMARK                            x       y       z     vdW  Elec       q    Type
REMARK                         _______ _______ _______ _____ _____    ______ ____
ROOT
ATOM      1  C   UNL     1       1.161   2.956   0.140  0.00  0.00    +0.141 C 
ATOM      2  C   UNL     1       1.176   3.800   1.398  0.00  0.00    +0.046 C 
ATOM      3  C   UNL     1       2.099   4.806   1.475  0.00  0.00    +0.051 C 
ATOM      4  N   UNL     1       2.977   5.034   0.442  0.00  0.00    -0.268 N 
ATOM      5  C   UNL     1       2.997   4.311  -0.685  0.00  0.00    +0.305 C 
ATOM      6  O   UNL     1       3.812   4.588  -1.543  0.00  0.00    -0.252 OA
ATOM      7  N   UNL     1       2.148   3.289  -0.901  0.00  0.00    -0.288 N 
ATOM      8  H   UNL     1       3.617   5.757   0.535  0.00  0.00    +0.156 HD
ATOM      9  H   UNL     1       2.186   2.783  -1.727  0.00  0.00    +0.151 HD
ENDROOT
BRANCH   1  13
ATOM     10  C   UNL     1       1.779  -1.115   1.280  0.00  0.00    +0.000 A 
ATOM     11  C   UNL     1       0.501  -0.657   1.016  0.00  0.00    +0.000 A 
ATOM     12  C   UNL     1       0.302   0.660   0.647  0.00  0.00    +0.006 A 
ATOM     13  C   UNL     1       1.379   1.520   0.542  0.00  0.00    -0.023 A 
ATOM     14  C   UNL     1       2.657   1.062   0.804  0.00  0.00    +0.006 A 
ATOM     15  C   UNL     1       2.857  -0.255   1.174  0.00  0.00    +0.000 A 
ENDBRANCH   1  13
BRANCH   3  16
ATOM     16  C   UNL     1       2.153   5.657   2.680  0.00  0.00    -0.003 A 
ATOM     17  C   UNL     1       0.983   6.222   3.193  0.00  0.00    +0.010 A 
ATOM     18  C   UNL     1       1.040   7.012   4.322  0.00  0.00    +0.001 A 
ATOM     19  C   UNL     1       2.255   7.255   4.940  0.00  0.00    +0.000 A 
ATOM     20  C   UNL     1       3.418   6.703   4.434  0.00  0.00    +0.001 A 
ATOM     21  C   UNL     1       3.376   5.907   3.308  0.00  0.00    +0.010 A 
ENDBRANCH   3  16
BRANCH   2  22
ATOM     22  C   UNL     1       0.272   3.558   2.450  0.00  0.00    +0.193 C 
ATOM     23  O   UNL     1       0.684   3.181   3.533  0.00  0.00    -0.287 OA
BRANCH  22  24
ATOM     24  C   UNL     1      -1.179   3.761   2.241  0.00  0.00    +0.022 A 
ATOM     25  C   UNL     1      -1.645   4.312   1.046  0.00  0.00    +0.012 A 
ATOM     26  C   UNL     1      -2.999   4.494   0.855  0.00  0.00    +0.001 A 
ATOM     27  C   UNL     1      -3.894   4.141   1.849  0.00  0.00    +0.000 A 
ATOM     28  C   UNL     1      -3.439   3.599   3.038  0.00  0.00    +0.001 A 
ATOM     29  C   UNL     1      -2.088   3.407   3.239  0.00  0.00    +0.012 A 
ENDBRANCH  22  24
ENDBRANCH   2  22
TORSDOF 4
