REMARK  Name = ZINC39711479
REMARK  11 active torsions:
REMARK  status: ('A' for Active; 'I' for Inactive)
REMARK    1  A    between atoms: C_1  and  C_2
REMARK    2  A    between atoms: C_2  and  O_3
REMARK    3  A    between atoms: O_3  and  C_4
REMARK    4  A    between atoms: C_11  and  C_16
REMARK    5  A    between atoms: C_16  and  C_18
REMARK    6  A    between atoms: C_16  and  N_28
REMARK    7  A    between atoms: N_23  and  C_24
REMARK    8  A    between atoms: C_24  and  C_25
REMARK    9  A    between atoms: C_24  and  C_26
REMARK   10  A    between atoms: C_24  and  C_27
REMARK   11  A    between atoms: N_31  and  C_34
REMARK                            x       y       z     vdW  Elec       q    Type
REMARK                         _______ _______ _______ _____ _____    ______ ____
ROOT
ATOM      1  C   UNL     1      -4.886  -6.357   1.207  0.00  0.00    -0.009 C 
ENDROOT
BRANCH   1   9
ATOM      2  C   UNL     1      -1.949  -1.396   0.285  0.00  0.00    +0.121 A 
ATOM      3  C   UNL     1      -0.774  -2.094  -0.020  0.00  0.00    +0.047 A 
ATOM      4  C   UNL     1      -0.756  -3.433  -0.244  0.00  0.00    +0.027 A 
ATOM      5  C   UNL     1      -1.943  -4.186  -0.177  0.00  0.00    +0.041 A 
ATOM      6  N   UNL     1      -1.911  -5.500  -0.399  0.00  0.00    -0.285 N 
ATOM      7  C   UNL     1      -2.986  -6.267  -0.352  0.00  0.00    +0.223 C 
ATOM      8  O   UNL     1      -2.894  -7.462  -0.564  0.00  0.00    -0.275 OA
ATOM      9  C   UNL     1      -4.332  -5.655  -0.035  0.00  0.00    +0.088 C 
ATOM     10  C   UNL     1      -4.375  -4.160   0.219  0.00  0.00    -0.006 C 
ATOM     11  C   UNL     1      -3.196  -3.479   0.142  0.00  0.00    -0.004 A 
ATOM     12  C   UNL     1      -3.147  -2.036   0.379  0.00  0.00    +0.055 A 
ATOM     13  H   UNL     1      -1.057  -5.913  -0.605  0.00  0.00    +0.155 HD
BRANCH   2  14
ATOM     14  O   UNL     1      -1.892  -0.054   0.497  0.00  0.00    -0.492 OA
BRANCH  14  16
ATOM     15  C   UNL     1      -0.743   2.066   0.657  0.00  0.00    +0.048 C 
ATOM     16  C   UNL     1      -0.609   0.566   0.387  0.00  0.00    +0.225 C 
ENDBRANCH  14  16
ENDBRANCH   2  14
ENDBRANCH   1   9
BRANCH   1  17
ATOM     17  N   UNL     1      -5.011  -7.796   0.940  0.00  0.00    +0.387 N 
ATOM     18  C   UNL     1      -5.751  -8.432   2.037  0.00  0.00    -0.059 C 
ATOM     19  C   UNL     1      -5.783  -9.948   1.818  0.00  0.00    +0.086 C 
ATOM     20  N   UNL     1      -6.333 -10.215   0.480  0.00  0.00    -0.333 N 
ATOM     21  C   UNL     1      -5.756  -9.491  -0.663  0.00  0.00    +0.086 C 
ATOM     22  C   UNL     1      -5.725  -7.997  -0.327  0.00  0.00    -0.059 C 
ATOM     23  H   UNL     1      -4.092  -8.206   0.875  0.00  0.00    -0.081 HD
BRANCH  20  24
ATOM     24  C   UNL     1      -7.374 -11.129   0.300  0.00  0.00    +0.030 A 
ATOM     25  C   UNL     1      -7.801 -11.455  -0.981  0.00  0.00    +0.023 A 
ATOM     26  C   UNL     1      -8.830 -12.359  -1.155  0.00  0.00    +0.002 A 
ATOM     27  C   UNL     1      -9.436 -12.940  -0.055  0.00  0.00    +0.000 A 
ATOM     28  C   UNL     1      -9.013 -12.618   1.221  0.00  0.00    +0.002 A 
ATOM     29  C   UNL     1      -7.981 -11.718   1.402  0.00  0.00    +0.023 A 
ENDBRANCH  20  24
ENDBRANCH   1  17
BRANCH   1  30
ATOM     30  C   UNL     1      -3.934  -6.137   2.384  0.00  0.00    +0.205 C 
ATOM     31  N   UNL     1      -2.714  -6.938   2.214  0.00  0.00    -0.152 NA
ATOM     32  N   UNL     1      -2.624  -7.731   3.153  0.00  0.00    -0.070 NA
ATOM     33  N   UNL     1      -3.679  -7.623   4.058  0.00  0.00    -0.179 N 
ATOM     34  N   UNL     1      -4.538  -6.639   3.636  0.00  0.00    -0.183 NA
ATOM     35  H   UNL     1      -3.789  -8.159   4.860  0.00  0.00    +0.191 HD
BRANCH  34  36
ATOM     36  C   UNL     1      -4.646  -5.568   4.635  0.00  0.00    +0.035 C 
ATOM     37  C   UNL     1      -5.502  -4.430   4.073  0.00  0.00    +0.029 C 
ATOM     38  C   UNL     1      -5.300  -6.118   5.904  0.00  0.00    +0.029 C 
ATOM     39  C   UNL     1      -3.250  -5.039   4.969  0.00  0.00    +0.029 C 
ENDBRANCH  34  36
ENDBRANCH   1  30
TORSDOF 7
