REMARK  Name = ZINC29145134
REMARK  11 active torsions:
REMARK  status: ('A' for Active; 'I' for Inactive)
REMARK    1  A    between atoms: C_1  and  C_2
REMARK    2  A    between atoms: C_2  and  C_4
REMARK    3  A    between atoms: C_2  and  N_32
REMARK    4  A    between atoms: C_7  and  S_16
REMARK    5  A    between atoms: N_8  and  C_9
REMARK    6  A    between atoms: S_16  and  C_17
REMARK    7  A    between atoms: C_17  and  C_19
REMARK    8  A    between atoms: C_17  and  C_20
REMARK    9  A    between atoms: N_25  and  C_26
REMARK   10  A    between atoms: N_32  and  C_33
REMARK   11  A    between atoms: N_32  and  C_34
REMARK                            x       y       z     vdW  Elec       q    Type
REMARK                         _______ _______ _______ _____ _____    ______ ____
ROOT
ATOM      1  C   UNL     1       2.920   4.694   1.545  0.00  0.00    +0.125 A 
ATOM      2  N   UNL     1       3.080   3.401   1.545  0.00  0.00    -0.135 NA
ATOM      3  N   UNL     1       1.940   2.814   1.463  0.00  0.00    -0.122 NA
ATOM      4  C   UNL     1       0.981   3.708   1.397  0.00  0.00    +0.197 A 
ATOM      5  N   UNL     1       1.576   4.938   1.450  0.00  0.00    -0.275 N 
ENDROOT
BRANCH   5   6
ATOM      6  C   UNL     1       0.942   6.189   1.416  0.00  0.00    +0.050 A 
ATOM      7  C   UNL     1       1.161   7.051   0.350  0.00  0.00    +0.029 A 
ATOM      8  C   UNL     1       0.532   8.280   0.316  0.00  0.00    +0.040 A 
ATOM      9  C   UNL     1      -0.310   8.657   1.349  0.00  0.00    +0.124 A 
ATOM     10  C   UNL     1      -0.526   7.801   2.416  0.00  0.00    +0.040 A 
ATOM     11  C   UNL     1       0.098   6.569   2.451  0.00  0.00    +0.029 A 
ATOM     12  F   UNL     1      -0.920   9.861   1.316  0.00  0.00    -0.205 F 
ENDBRANCH   5   6
BRANCH   1  14
ATOM     13  C   UNL     1       4.537   5.796   3.068  0.00  0.00    -0.005 C 
ATOM     14  C   UNL     1       4.012   5.729   1.633  0.00  0.00    -0.003 C 
BRANCH  14  15
ATOM     15  N   UNL     1       5.108   5.363   0.726  0.00  0.00    +0.382 N 
ATOM     16  C   UNL     1       6.139   6.410   0.696  0.00  0.00    -0.096 C 
ATOM     17  C   UNL     1       5.687   4.065   1.098  0.00  0.00    -0.096 C 
ATOM     18  H   UNL     1       4.692   5.269  -0.288  0.00  0.00    -0.082 HD
ENDBRANCH  14  15
ENDBRANCH   1  14
BRANCH   4  19
ATOM     19  S   UNL     1      -0.747   3.384   1.270  0.00  0.00    -0.073 S 
BRANCH  19  20
ATOM     20  C   UNL     1      -0.727   1.574   1.255  0.00  0.00    +0.137 C 
ATOM     21  C   UNL     1      -0.020   1.082  -0.009  0.00  0.00    +0.029 C 
BRANCH  20  22
ATOM     22  C   UNL     1      -2.142   1.056   1.274  0.00  0.00    +0.234 C 
ATOM     23  O   UNL     1      -3.045   1.745   0.850  0.00  0.00    -0.274 OA
ATOM     24  N   UNL     1      -2.403  -0.173   1.761  0.00  0.00    -0.239 N 
ATOM     25  C   UNL     1      -3.669  -0.636   1.778  0.00  0.00    +0.310 C 
ATOM     26  O   UNL     1      -4.574   0.054   1.353  0.00  0.00    -0.252 OA
ATOM     27  N   UNL     1      -3.930  -1.866   2.265  0.00  0.00    -0.269 N 
ATOM     28  H   UNL     1      -1.583  -0.798   2.146  0.00  0.00    +0.159 HD
ATOM     29  H   UNL     1      -3.103  -2.520   2.579  0.00  0.00    +0.156 HD
BRANCH  27  30
ATOM     30  C   UNL     1      -5.253  -2.309   2.372  0.00  0.00    +0.035 A 
ATOM     31  C   UNL     1      -5.628  -3.129   3.429  0.00  0.00    +0.023 A 
ATOM     32  C   UNL     1      -6.936  -3.562   3.534  0.00  0.00    +0.002 A 
ATOM     33  C   UNL     1      -7.868  -3.187   2.583  0.00  0.00    +0.000 A 
ATOM     34  C   UNL     1      -7.496  -2.375   1.528  0.00  0.00    +0.002 A 
ATOM     35  C   UNL     1      -6.191  -1.935   1.420  0.00  0.00    +0.023 A 
ENDBRANCH  27  30
ENDBRANCH  20  22
ENDBRANCH  19  20
ENDBRANCH   4  19
TORSDOF 7
