REMARK  Name = ZINC35399285
REMARK  3 active torsions:
REMARK  status: ('A' for Active; 'I' for Inactive)
REMARK    1  A    between atoms: C_1  and  C_2
REMARK    2  A    between atoms: N_12  and  S_15
REMARK    3  A    between atoms: S_15  and  C_18
REMARK                            x       y       z     vdW  Elec       q    Type
REMARK                         _______ _______ _______ _____ _____    ______ ____
ROOT
ATOM      1  C   UNL     1      -0.018   1.503   0.010  0.00  0.00    +0.044 C 
ATOM      2  C   UNL     1       0.002  -0.004   0.002  0.00  0.00    -0.049 A 
ATOM      3  C   UNL     1       0.006  -0.685  -1.202  0.00  0.00    +0.005 A 
ATOM      4  C   UNL     1       0.012  -2.068  -1.217  0.00  0.00    +0.028 A 
ATOM      5  C   UNL     1       0.015  -2.768  -0.027  0.00  0.00    +0.067 A 
ATOM      6  C   UNL     1       0.036  -2.083   1.194  0.00  0.00    +0.052 A 
ATOM      7  C   UNL     1       0.023  -0.697   1.198  0.00  0.00    +0.028 A 
ATOM      8  N   UNL     1       0.109  -2.796   2.397  0.00  0.00    -0.331 N 
ATOM      9  C   UNL     1      -0.459  -4.148   2.492  0.00  0.00    +0.075 C 
ATOM     10  C   UNL     1      -1.963  -4.057   2.745  0.00  0.00    +0.049 C 
ATOM     11  C   UNL     1      -2.214  -3.300   4.053  0.00  0.00    +0.112 C 
ATOM     12  N   UNL     1      -1.454  -3.952   5.129  0.00  0.00    -0.176 NA
ATOM     13  C   UNL     1      -0.011  -4.161   4.949  0.00  0.00    +0.112 C 
ATOM     14  C   UNL     1       0.217  -4.909   3.631  0.00  0.00    +0.049 C 
ATOM     15  C   UNL     1      -0.204  -4.856   1.185  0.00  0.00    +0.047 A 
ATOM     16  N   UNL     1      -0.000  -4.170   0.008  0.00  0.00    -0.316 N 
ATOM     17  C   UNL     1       0.173  -5.068  -0.992  0.00  0.00    +0.092 A 
ATOM     18  C   UNL     1       0.102  -6.309  -0.460  0.00  0.00    +0.020 A 
ATOM     19  C   UNL     1      -0.133  -6.166   0.924  0.00  0.00    +0.025 A 
ATOM     20  H   UNL     1       0.536  -2.396   3.170  0.00  0.00    +0.147 HD
ENDROOT
BRANCH  12  21
ATOM     21  S   UNL     1      -2.211  -4.441   6.519  0.00  0.00    +0.061 S 
ATOM     22  O   UNL     1      -1.211  -4.494   7.528  0.00  0.00    -0.153 OA
ATOM     23  O   UNL     1      -3.381  -3.645   6.646  0.00  0.00    -0.153 OA
BRANCH  21  24
ATOM     24  C   UNL     1      -2.753  -6.097   6.261  0.00  0.00    +0.108 A 
ATOM     25  C   UNL     1      -4.007  -6.339   5.731  0.00  0.00    +0.029 A 
ATOM     26  C   UNL     1      -4.435  -7.638   5.528  0.00  0.00    +0.005 A 
ATOM     27  C   UNL     1      -3.609  -8.697   5.856  0.00  0.00    +0.038 A 
ATOM     28  C   UNL     1      -2.353  -8.456   6.387  0.00  0.00    +0.125 A 
ATOM     29  C   UNL     1      -1.924  -7.154   6.584  0.00  0.00    +0.066 A 
ATOM     30  F   UNL     1      -1.546  -9.490   6.708  0.00  0.00    -0.205 F 
ENDBRANCH  21  24
ENDBRANCH  12  21
TORSDOF 2
