REMARK  Name = ZINC41341445
REMARK  11 active torsions:
REMARK  status: ('A' for Active; 'I' for Inactive)
REMARK    1  A    between atoms: C_1  and  C_2
REMARK    2  A    between atoms: C_2  and  C_3
REMARK    3  A    between atoms: C_3  and  C_4
REMARK    4  A    between atoms: C_11  and  O_23
REMARK    5  A    between atoms: C_12  and  O_21
REMARK    6  A    between atoms: C_15  and  C_17
REMARK    7  A    between atoms: C_17  and  C_18
REMARK    8  A    between atoms: C_18  and  C_19
REMARK    9  A    between atoms: C_18  and  C_20
REMARK   10  A    between atoms: O_21  and  C_22
REMARK   11  A    between atoms: O_23  and  C_24
REMARK                            x       y       z     vdW  Elec       q    Type
REMARK                         _______ _______ _______ _____ _____    ______ ____
ROOT
ATOM      1  C   UNL     1      -1.413  -2.041   0.005  0.00  0.00    +0.216 C 
ATOM      2  O   UNL     1      -0.354  -2.632  -0.009  0.00  0.00    -0.276 OA
ATOM      3  N   UNL     1      -2.571  -2.730   0.012  0.00  0.00    -0.294 N 
ATOM      4  C   UNL     1      -3.872  -2.042   0.022  0.00  0.00    +0.113 C 
ATOM      5  C   UNL     1      -4.591  -2.379  -1.283  0.00  0.00    +0.054 C 
ATOM      6  C   UNL     1      -4.540  -3.859  -1.557  0.00  0.00    -0.037 A 
ATOM      7  C   UNL     1      -5.479  -4.382  -2.439  0.00  0.00    +0.053 A 
ATOM      8  C   UNL     1      -5.484  -5.730  -2.744  0.00  0.00    +0.162 A 
ATOM      9  C   UNL     1      -4.539  -6.571  -2.163  0.00  0.00    +0.162 A 
ATOM     10  C   UNL     1      -3.609  -6.048  -1.285  0.00  0.00    +0.055 A 
ATOM     11  C   UNL     1      -3.612  -4.694  -0.977  0.00  0.00    -0.020 A 
ATOM     12  C   UNL     1      -2.585  -4.197   0.004  0.00  0.00    +0.107 C 
ENDROOT
BRANCH   9  13
ATOM     13  O   UNL     1      -4.531  -7.899  -2.459  0.00  0.00    -0.491 OA
ATOM     14  C   UNL     1      -3.531  -8.698  -1.825  0.00  0.00    +0.277 C 
ENDBRANCH   9  13
BRANCH   8  15
ATOM     15  O   UNL     1      -6.409  -6.232  -3.606  0.00  0.00    -0.491 OA
ATOM     16  C   UNL     1      -7.347  -5.308  -4.161  0.00  0.00    +0.277 C 
ENDBRANCH   8  15
BRANCH   1  17
ATOM     17  C   UNL     1      -1.433  -0.534   0.013  0.00  0.00    +0.096 C 
BRANCH  17  19
ATOM     18  C   UNL     1      -0.019   1.526   0.010  0.00  0.00    +0.004 C 
ATOM     19  C   UNL     1       0.002  -0.004   0.002  0.00  0.00    +0.006 C 
ENDBRANCH  17  19
ENDBRANCH   1  17
BRANCH  12  20
ATOM     20  C   UNL     1      -2.934  -4.710   1.403  0.00  0.00    +0.030 C 
BRANCH  20  21
ATOM     21  C   UNL     1      -1.823  -4.321   2.381  0.00  0.00    -0.015 C 
ATOM     22  C   UNL     1      -2.229  -4.723   3.800  0.00  0.00    +0.007 C 
ATOM     23  C   UNL     1      -0.530  -5.041   1.996  0.00  0.00    +0.007 C 
ENDBRANCH  20  21
ENDBRANCH  12  20
TORSDOF 6
