REMARK  Name = ZINC43527191
REMARK  5 active torsions:
REMARK  status: ('A' for Active; 'I' for Inactive)
REMARK    1  A    between atoms: C_4  and  N_7
REMARK    2  A    between atoms: N_10  and  C_11
REMARK    3  A    between atoms: C_11  and  C_12
REMARK    4  A    between atoms: C_21  and  C_23
REMARK    5  A    between atoms: C_23  and  N_24
REMARK                            x       y       z     vdW  Elec       q    Type
REMARK                         _______ _______ _______ _____ _____    ______ ____
ROOT
ATOM      1  C   UNL     1       6.298  -4.586   0.331  0.00  0.00    -0.051 C 
ATOM      2  C   UNL     1       6.327  -6.116   0.318  0.00  0.00    -0.010 C 
ATOM      3  C   UNL     1       7.142  -6.585  -0.895  0.00  0.00    -0.015 C 
ATOM      4  C   UNL     1       6.471  -6.048  -2.166  0.00  0.00    -0.015 C 
ATOM      5  C   UNL     1       6.416  -4.521  -2.087  0.00  0.00    -0.078 C 
ATOM      6  N   UNL     1       7.051  -4.062  -0.811  0.00  0.00    +0.383 N 
ATOM      7  C   UNL     1       8.454  -4.475  -0.737  0.00  0.00    -0.076 C 
ATOM      8  C   UNL     1       8.556  -5.999  -0.784  0.00  0.00    -0.041 C 
ATOM      9  H   UNL     1       7.020  -3.054  -0.779  0.00  0.00    -0.081 HD
ENDROOT
BRANCH   1  10
ATOM     10  C   UNL     1       4.848  -4.106   0.247  0.00  0.00    +0.090 C 
BRANCH  10  14
ATOM     11  N   UNL     1       3.622  -0.651  -0.036  0.00  0.00    -0.269 N 
ATOM     12  C   UNL     1       3.645  -1.995   0.058  0.00  0.00    +0.304 C 
ATOM     13  O   UNL     1       2.603  -2.622   0.065  0.00  0.00    -0.253 OA
ATOM     14  N   UNL     1       4.823  -2.644   0.144  0.00  0.00    -0.301 N 
ATOM     15  H   UNL     1       4.452  -0.156  -0.120  0.00  0.00    +0.156 HD
ATOM     16  H   UNL     1       5.654  -2.144   0.139  0.00  0.00    +0.150 HD
BRANCH  11  20
ATOM     17  C   UNL     1      -0.015   1.381   0.031  0.00  0.00    +0.000 A 
ATOM     18  C   UNL     1       0.140   0.219   0.765  0.00  0.00    +0.002 A 
ATOM     19  C   UNL     1       1.344  -0.457   0.744  0.00  0.00    +0.023 A 
ATOM     20  C   UNL     1       2.400   0.031  -0.014  0.00  0.00    +0.035 A 
ATOM     21  C   UNL     1       2.241   1.198  -0.750  0.00  0.00    +0.023 A 
ATOM     22  C   UNL     1       1.034   1.870  -0.725  0.00  0.00    +0.002 A 
ENDBRANCH  11  20
ENDBRANCH  10  14
ENDBRANCH   1  10
BRANCH   8  23
ATOM     23  C   UNL     1       9.382  -6.420  -2.001  0.00  0.00    -0.077 C 
BRANCH  23  24
ATOM     24  N   UNL     1      10.767  -5.959  -1.836  0.00  0.00    +0.380 N 
ATOM     25  C   UNL     1      11.526  -6.249  -3.056  0.00  0.00    -0.074 C 
ATOM     26  C   UNL     1      12.970  -5.789  -2.928  0.00  0.00    -0.007 C 
ATOM     27  C   UNL     1      13.636  -6.429  -1.705  0.00  0.00    +0.011 C 
ATOM     28  C   UNL     1      12.787  -6.070  -0.480  0.00  0.00    +0.020 C 
ATOM     29  C   UNL     1      11.379  -6.650  -0.692  0.00  0.00    -0.069 C 
ATOM     30  C   UNL     1      12.662  -4.565  -0.390  0.00  0.00    +0.023 A 
ATOM     31  C   UNL     1      12.499  -4.022   0.846  0.00  0.00    +0.022 A 
ATOM     32  C   UNL     1      12.313  -2.643   0.997  0.00  0.00    +0.007 A 
ATOM     33  C   UNL     1      12.273  -1.858  -0.118  0.00  0.00    +0.070 A 
ATOM     34  C   UNL     1      12.441  -2.451  -1.377  0.00  0.00    +0.251 A 
ATOM     35  O   UNL     1      12.345  -1.768  -2.385  0.00  0.00    -0.268 OA
ATOM     36  N   UNL     1      12.708  -3.776  -1.488  0.00  0.00    -0.312 N 
ATOM     37  C   UNL     1      13.073  -4.277  -2.809  0.00  0.00    +0.126 C 
ATOM     38  H   UNL     1      10.771  -4.964  -1.668  0.00  0.00    -0.082 HD
ENDBRANCH  23  24
ENDBRANCH   8  23
TORSDOF 5
