REMARK  Name = ZINC39663911
REMARK  12 active torsions:
REMARK  status: ('A' for Active; 'I' for Inactive)
REMARK    1  A    between atoms: C_1  and  C_2
REMARK    2  A    between atoms: C_5  and  C_9
REMARK    3  A    between atoms: C_6  and  C_8
REMARK    4  A    between atoms: C_13  and  C_22
REMARK    5  A    between atoms: N_24  and  C_25
REMARK    6  A    between atoms: C_25  and  C_26
REMARK    7  A    between atoms: C_26  and  C_28
REMARK    8  A    between atoms: C_26  and  N_36
REMARK    9  A    between atoms: C_31  and  O_34
REMARK   10  A    between atoms: O_34  and  C_35
REMARK   11  A    between atoms: N_36  and  C_37
REMARK   12  A    between atoms: N_36  and  C_38
REMARK                            x       y       z     vdW  Elec       q    Type
REMARK                         _______ _______ _______ _____ _____    ______ ____
ROOT
ATOM      1  C   UNL     1       0.417  -4.755   0.112  0.00  0.00    +0.247 C 
ATOM      2  O   UNL     1       0.438  -5.496   1.075  0.00  0.00    -0.270 OA
ATOM      3  N   UNL     1       0.302  -5.266  -1.129  0.00  0.00    -0.296 N 
ATOM      4  C   UNL     1       0.358  -4.539  -2.420  0.00  0.00    +0.121 C 
ATOM      5  C   UNL     1       1.152  -5.474  -3.360  0.00  0.00    +0.100 C 
ATOM      6  C   UNL     1       0.972  -6.879  -2.761  0.00  0.00    -0.004 C 
ATOM      7  C   UNL     1       0.098  -6.684  -1.513  0.00  0.00    +0.115 C 
ATOM      8  C   UNL     1       2.325  -7.462  -2.364  0.00  0.00    -0.010 C 
ATOM      9  C   UNL     1       2.125  -8.881  -1.824  0.00  0.00    -0.082 C 
ATOM     10  N   UNL     1       1.494  -9.714  -2.854  0.00  0.00    +0.379 N 
ATOM     11  C   UNL     1       0.154  -9.199  -3.164  0.00  0.00    -0.082 C 
ATOM     12  C   UNL     1       0.271  -7.794  -3.760  0.00  0.00    -0.010 C 
ATOM     13  H   UNL     1       2.059  -9.699  -3.690  0.00  0.00    -0.086 HD
ATOM     14  H   UNL     1       1.419 -10.662  -2.519  0.00  0.00    -0.086 HD
ENDROOT
BRANCH   1  19
ATOM     15  C   UNL     1       0.809   0.938   0.854  0.00  0.00    +0.044 C 
ATOM     16  C   UNL     1       0.707  -0.552   0.660  0.00  0.00    -0.050 A 
ATOM     17  C   UNL     1       1.545  -1.190  -0.238  0.00  0.00    +0.004 A 
ATOM     18  C   UNL     1       1.456  -2.554  -0.421  0.00  0.00    +0.013 A 
ATOM     19  C   UNL     1       0.518  -3.292   0.303  0.00  0.00    +0.040 A 
ATOM     20  C   UNL     1      -0.324  -2.644   1.207  0.00  0.00    -0.038 A 
ATOM     21  C   UNL     1      -0.222  -1.279   1.384  0.00  0.00    +0.007 A 
ATOM     22  C   UNL     1      -1.340  -3.433   1.993  0.00  0.00    +0.044 C 
ENDBRANCH   1  19
BRANCH   5  23
ATOM     23  C   UNL     1       0.585  -5.419  -4.755  0.00  0.00    +0.218 C 
ATOM     24  O   UNL     1      -0.605  -5.250  -4.920  0.00  0.00    -0.275 OA
ATOM     25  N   UNL     1       1.400  -5.559  -5.820  0.00  0.00    -0.316 N 
ATOM     26  H   UNL     1       2.351  -5.694  -5.688  0.00  0.00    +0.149 HD
BRANCH  25  27
ATOM     27  C   UNL     1       0.848  -5.505  -7.176  0.00  0.00    +0.093 C 
BRANCH  27  28
ATOM     28  C   UNL     1       1.952  -5.819  -8.188  0.00  0.00    -0.021 C 
BRANCH  28  29
ATOM     29  C   UNL     1       2.479  -7.209  -7.943  0.00  0.00    -0.059 A 
ATOM     30  C   UNL     1       1.785  -8.305  -8.421  0.00  0.00    +0.005 A 
ATOM     31  C   UNL     1       2.266  -9.580  -8.197  0.00  0.00    +0.046 A 
ATOM     32  C   UNL     1       3.447  -9.761  -7.492  0.00  0.00    +0.120 A 
ATOM     33  C   UNL     1       4.142  -8.660  -7.013  0.00  0.00    +0.046 A 
ATOM     34  C   UNL     1       3.660  -7.386  -7.245  0.00  0.00    +0.005 A 
BRANCH  32  35
ATOM     35  O   UNL     1       3.921 -11.015  -7.270  0.00  0.00    -0.495 OA
ATOM     36  C   UNL     1       5.143 -11.126  -6.536  0.00  0.00    +0.277 C 
ENDBRANCH  32  35
ENDBRANCH  28  29
BRANCH  28  37
ATOM     37  N   UNL     1       1.407  -5.735  -9.549  0.00  0.00    +0.382 N 
ATOM     38  C   UNL     1       0.964  -4.360  -9.816  0.00  0.00    -0.096 C 
ATOM     39  C   UNL     1       2.446  -6.111 -10.517  0.00  0.00    -0.096 C 
ATOM     40  H   UNL     1       0.623  -6.364  -9.637  0.00  0.00    -0.082 HD
ENDBRANCH  28  37
ENDBRANCH  27  28
ENDBRANCH  25  27
ENDBRANCH   5  23
TORSDOF 7
