REMARK  Name = ZINC63361819
REMARK  12 active torsions:
REMARK  status: ('A' for Active; 'I' for Inactive)
REMARK    1  A    between atoms: C_1  and  C_2
REMARK    2  A    between atoms: C_2  and  C_3
REMARK    3  A    between atoms: C_3  and  C_4
REMARK    4  A    between atoms: C_4  and  C_5
REMARK    5  A    between atoms: C_5  and  C_6
REMARK    6  A    between atoms: C_6  and  C_8
REMARK    7  A    between atoms: C_6  and  N_9
REMARK    8  A    between atoms: C_10  and  C_12
REMARK    9  A    between atoms: C_17  and  N_18
REMARK   10  A    between atoms: C_21  and  C_39
REMARK   11  A    between atoms: C_27  and  O_32
REMARK   12  A    between atoms: O_32  and  C_33
REMARK                            x       y       z     vdW  Elec       q    Type
REMARK                         _______ _______ _______ _____ _____    ______ ____
ROOT
ATOM      1  N   UNL     1      -0.392  -8.377   1.436  0.00  0.00    -0.192 N 
ATOM      2  C   UNL     1       0.604  -8.355   0.527  0.00  0.00    +0.253 C 
ATOM      3  O   UNL     1       1.586  -7.644   0.534  0.00  0.00    -0.272 OA
ATOM      4  C   UNL     1       0.243  -9.403  -0.504  0.00  0.00    +0.137 C 
ATOM      5  C   UNL     1       0.053  -8.747  -1.877  0.00  0.00    +0.139 C 
ATOM      6  C   UNL     1      -0.807  -9.703  -2.695  0.00  0.00    -0.034 C 
ATOM      7  C   UNL     1      -0.107  -9.994  -3.787  0.00  0.00    +0.003 A 
ATOM      8  C   UNL     1      -0.427 -10.809  -4.968  0.00  0.00    +0.055 A 
ATOM      9  C   UNL     1       0.541 -10.913  -5.920  0.00  0.00    +0.121 A 
ATOM     10  C   UNL     1       1.797 -10.295  -5.830  0.00  0.00    +0.047 A 
ATOM     11  C   UNL     1       2.194  -9.518  -4.789  0.00  0.00    +0.029 A 
ATOM     12  C   UNL     1       1.229  -9.328  -3.697  0.00  0.00    +0.043 A 
ATOM     13  N   UNL     1       1.326  -8.630  -2.593  0.00  0.00    -0.375 N 
ATOM     14  C   UNL     1      -2.150 -10.212  -2.231  0.00  0.00    +0.052 C 
ATOM     15  C   UNL     1      -1.954 -10.783  -0.812  0.00  0.00    +0.115 C 
ATOM     16  N   UNL     1      -1.092  -9.866  -0.061  0.00  0.00    -0.268 N 
ATOM     17  C   UNL     1      -1.340  -9.265   1.109  0.00  0.00    +0.317 C 
ATOM     18  O   UNL     1      -2.316  -9.497   1.796  0.00  0.00    -0.252 OA
ATOM     19  C   UNL     1       1.262 -10.543  -0.542  0.00  0.00    +0.044 C 
ATOM     20  H   UNL     1       2.099  -8.125  -2.296  0.00  0.00    +0.160 HD
ENDROOT
BRANCH   1  26
ATOM     21  C   UNL     1      -1.035  -6.315   2.539  0.00  0.00    +0.059 A 
ATOM     22  C   UNL     1      -1.068  -5.527   3.691  0.00  0.00    +0.015 A 
ATOM     23  C   UNL     1      -0.500  -5.991   4.858  0.00  0.00    +0.001 A 
ATOM     24  C   UNL     1       0.105  -7.236   4.894  0.00  0.00    +0.002 A 
ATOM     25  C   UNL     1       0.145  -8.026   3.762  0.00  0.00    +0.025 A 
ATOM     26  C   UNL     1      -0.427  -7.578   2.580  0.00  0.00    +0.058 A 
BRANCH  21  28
ATOM     27  N   UNL     1      -2.225  -4.610   1.250  0.00  0.00    -0.309 N 
ATOM     28  C   UNL     1      -1.641  -5.824   1.286  0.00  0.00    +0.246 C 
ATOM     29  O   UNL     1      -1.615  -6.516   0.286  0.00  0.00    -0.270 OA
ATOM     30  H   UNL     1      -2.246  -4.058   2.048  0.00  0.00    +0.149 HD
BRANCH  27  31
ATOM     31  C   UNL     1      -2.827  -4.123   0.007  0.00  0.00    +0.070 C 
ATOM     32  C   UNL     1      -4.258  -4.652  -0.108  0.00  0.00    +0.028 C 
BRANCH  31  33
ATOM     33  C   UNL     1      -2.848  -2.593   0.015  0.00  0.00    +0.022 C 
BRANCH  33  34
ATOM     34  C   UNL     1      -1.413  -2.063   0.004  0.00  0.00    +0.002 C 
BRANCH  34  35
ATOM     35  C   UNL     1      -1.433  -0.534   0.013  0.00  0.00    -0.000 C 
BRANCH  35  37
ATOM     36  C   UNL     1      -0.019   1.526   0.010  0.00  0.00    +0.004 C 
ATOM     37  C   UNL     1       0.002  -0.004   0.002  0.00  0.00    -0.003 C 
ENDBRANCH  35  37
ENDBRANCH  34  35
ENDBRANCH  33  34
ENDBRANCH  31  33
ENDBRANCH  27  31
ENDBRANCH  21  28
ENDBRANCH   1  26
BRANCH   9  38
ATOM     38  O   UNL     1       0.275 -11.660  -7.023  0.00  0.00    -0.495 OA
ATOM     39  C   UNL     1       1.307 -11.754  -8.007  0.00  0.00    +0.277 C 
ENDBRANCH   9  38
TORSDOF 8
