REMARK  Name = ZINC08433343
REMARK  12 active torsions:
REMARK  status: ('A' for Active; 'I' for Inactive)
REMARK    1  A    between atoms: C_1  and  C_2
REMARK    2  A    between atoms: C_3  and  C_30
REMARK    3  A    between atoms: C_4  and  C_10
REMARK    4  A    between atoms: N_12  and  C_24
REMARK    5  A    between atoms: C_14  and  C_15
REMARK    6  A    between atoms: C_18  and  O_22
REMARK    7  A    between atoms: O_22  and  C_23
REMARK    8  A    between atoms: C_30  and  O_32
REMARK    9  A    between atoms: O_32  and  C_33
REMARK   10  A    between atoms: C_33  and  C_34
REMARK   11  A    between atoms: C_34  and  O_35
REMARK   12  A    between atoms: O_35  and  C_36
REMARK                            x       y       z     vdW  Elec       q    Type
REMARK                         _______ _______ _______ _____ _____    ______ ____
ROOT
ATOM      1  C   UNL     1      -3.819   3.917  -0.731  0.00  0.00    +0.023 A 
ATOM      2  C   UNL     1      -4.720   4.879  -0.434  0.00  0.00    +0.121 A 
ATOM      3  N   UNL     1      -4.053   5.907   0.153  0.00  0.00    -0.239 N 
ATOM      4  N   UNL     1      -2.698   5.561   0.223  0.00  0.00    -0.166 NA
ATOM      5  C   UNL     1      -2.551   4.367  -0.313  0.00  0.00    +0.098 A 
ENDROOT
BRANCH   1   9
ATOM      6  C   UNL     1      -3.668  -0.574   0.754  0.00  0.00    +0.061 C 
ATOM      7  C   UNL     1      -3.507   0.479  -0.312  0.00  0.00    +0.021 C 
ATOM      8  C   UNL     1      -4.313   1.562  -0.303  0.00  0.00    +0.078 C 
ATOM      9  C   UNL     1      -4.118   2.596  -1.393  0.00  0.00    +0.147 C 
ATOM     10  N   UNL     1      -3.057   2.333  -2.380  0.00  0.00    -0.288 N 
ATOM     11  C   UNL     1      -2.333   1.203  -2.257  0.00  0.00    +0.304 C 
ATOM     12  O   UNL     1      -1.455   0.976  -3.067  0.00  0.00    -0.252 OA
ATOM     13  N   UNL     1      -2.549   0.322  -1.272  0.00  0.00    -0.273 N 
ATOM     14  H   UNL     1      -2.884   2.958  -3.101  0.00  0.00    +0.151 HD
ATOM     15  H   UNL     1      -1.993  -0.473  -1.239  0.00  0.00    +0.156 HD
BRANCH   8  16
ATOM     16  C   UNL     1      -5.305   1.726   0.692  0.00  0.00    +0.339 C 
ATOM     17  O   UNL     1      -5.374   0.940   1.618  0.00  0.00    -0.245 OA
BRANCH  16  18
ATOM     18  O   UNL     1      -6.175   2.754   0.614  0.00  0.00    -0.459 OA
BRANCH  18  19
ATOM     19  C   UNL     1      -7.084   2.919   1.704  0.00  0.00    +0.260 C 
BRANCH  19  20
ATOM     20  C   UNL     1      -8.071   4.043   1.380  0.00  0.00    +0.200 C 
BRANCH  20  21
ATOM     21  O   UNL     1      -8.891   3.653   0.277  0.00  0.00    -0.380 OA
ATOM     22  C   UNL     1      -9.775   4.677  -0.181  0.00  0.00    +0.194 C 
ENDBRANCH  20  21
ENDBRANCH  19  20
ENDBRANCH  18  19
ENDBRANCH  16  18
ENDBRANCH   8  16
ENDBRANCH   1   9
BRANCH   5  23
ATOM     23  C   UNL     1      -1.275   3.623  -0.447  0.00  0.00    +0.004 A 
ATOM     24  C   UNL     1      -0.178   4.223  -1.062  0.00  0.00    +0.014 A 
ATOM     25  C   UNL     1       1.008   3.529  -1.186  0.00  0.00    +0.048 A 
ATOM     26  C   UNL     1       1.109   2.233  -0.698  0.00  0.00    +0.138 A 
ATOM     27  C   UNL     1       0.018   1.632  -0.084  0.00  0.00    +0.083 A 
ATOM     28  C   UNL     1      -1.172   2.320   0.038  0.00  0.00    +0.033 A 
ATOM     29 CL   UNL     1       0.149   0.011   0.524  0.00  0.00    -0.080 Cl
BRANCH  26  30
ATOM     30  O   UNL     1       2.279   1.552  -0.822  0.00  0.00    -0.494 OA
ATOM     31  C   UNL     1       3.323   2.184  -1.565  0.00  0.00    +0.277 C 
ENDBRANCH  26  30
ENDBRANCH   5  23
BRANCH   3  32
ATOM     32  C   UNL     1      -4.623   7.101   0.614  0.00  0.00    +0.065 A 
ATOM     33  C   UNL     1      -5.988   7.317   0.482  0.00  0.00    +0.028 A 
ATOM     34  C   UNL     1      -6.547   8.493   0.942  0.00  0.00    +0.002 A 
ATOM     35  C   UNL     1      -5.747   9.460   1.522  0.00  0.00    +0.000 A 
ATOM     36  C   UNL     1      -4.386   9.251   1.650  0.00  0.00    +0.002 A 
ATOM     37  C   UNL     1      -3.822   8.074   1.198  0.00  0.00    +0.028 A 
ENDBRANCH   3  32
TORSDOF 9
