REMARK  Name = ZINC49124319
REMARK  5 active torsions:
REMARK  status: ('A' for Active; 'I' for Inactive)
REMARK    1  A    between atoms: C_1  and  C_2
REMARK    2  A    between atoms: C_2  and  C_3
REMARK    3  A    between atoms: C_6  and  N_9
REMARK    4  A    between atoms: C_16  and  C_18
REMARK    5  A    between atoms: C_18  and  C_19
REMARK                            x       y       z     vdW  Elec       q    Type
REMARK                         _______ _______ _______ _____ _____    ______ ____
ROOT
ATOM      1  N   UNL     1      -0.277  -2.933  -3.573  0.00  0.00    -0.296 N 
ATOM      2  C   UNL     1      -0.601  -4.160  -4.028  0.00  0.00    +0.303 C 
ATOM      3  O   UNL     1       0.262  -4.889  -4.478  0.00  0.00    -0.253 OA
ATOM      4  N   UNL     1      -1.881  -4.578  -3.985  0.00  0.00    -0.282 N 
ATOM      5  C   UNL     1      -3.006  -3.843  -3.378  0.00  0.00    +0.110 C 
ATOM      6  C   UNL     1      -4.050  -4.932  -3.030  0.00  0.00    +0.021 C 
ATOM      7  C   UNL     1      -3.900  -5.903  -4.231  0.00  0.00    +0.024 C 
ATOM      8  C   UNL     1      -2.389  -5.841  -4.541  0.00  0.00    +0.088 C 
ATOM      9  H   UNL     1      -0.966  -2.352  -3.214  0.00  0.00    +0.151 HD
ENDROOT
BRANCH   1  13
ATOM     10  C   UNL     1       1.214  -0.888  -1.161  0.00  0.00    -0.011 C 
ATOM     11  C   UNL     1       0.473  -0.392  -2.404  0.00  0.00    +0.005 C 
ATOM     12  C   UNL     1       1.150  -0.949  -3.658  0.00  0.00    +0.022 C 
ATOM     13  C   UNL     1       1.115  -2.478  -3.620  0.00  0.00    +0.074 C 
ATOM     14  C   UNL     1       1.855  -2.975  -2.376  0.00  0.00    +0.022 C 
ATOM     15  C   UNL     1       1.178  -2.417  -1.123  0.00  0.00    +0.005 C 
BRANCH  10  17
ATOM     16  C   UNL     1       0.682   1.193   0.116  0.00  0.00    +0.004 C 
ATOM     17  C   UNL     1       0.537  -0.330   0.093  0.00  0.00    -0.000 C 
ENDBRANCH  10  17
ENDBRANCH   1  13
BRANCH   8  18
ATOM     18  C   UNL     1      -2.164  -5.870  -6.054  0.00  0.00    +0.147 C 
BRANCH  18  19
ATOM     19  C   UNL     1      -2.551  -7.224  -6.593  0.00  0.00    +0.358 C 
ATOM     20  O   UNL     1      -3.041  -8.058  -5.851  0.00  0.00    -0.246 OA
ATOM     21  O   UNL     1      -2.374  -7.484  -7.771  0.00  0.00    -0.246 OA
ENDBRANCH  18  19
ENDBRANCH   8  18
TORSDOF 4
