REMARK  Name = ZINC12913489
REMARK  12 active torsions:
REMARK  status: ('A' for Active; 'I' for Inactive)
REMARK    1  A    between atoms: C_1  and  C_2
REMARK    2  A    between atoms: C_2  and  C_3
REMARK    3  A    between atoms: C_2  and  C_4
REMARK    4  A    between atoms: C_4  and  C_6
REMARK    5  A    between atoms: C_4  and  N_61
REMARK    6  A    between atoms: C_17  and  C_18
REMARK    7  A    between atoms: C_17  and  N_61
REMARK    8  A    between atoms: C_21  and  C_23
REMARK    9  A    between atoms: C_26  and  O_31
REMARK   10  A    between atoms: C_27  and  O_29
REMARK   11  A    between atoms: O_29  and  C_30
REMARK   12  A    between atoms: O_31  and  C_32
REMARK                            x       y       z     vdW  Elec       q    Type
REMARK                         _______ _______ _______ _____ _____    ______ ____
ROOT
ATOM      1  N   UNL     1      -2.942   1.427   0.218  0.00  0.00    +0.387 N 
ATOM      2  H   UNL     1      -2.584   2.318  -0.147  0.00  0.00    -0.084 HD
ATOM      3  H   UNL     1      -3.927   1.539   0.485  0.00  0.00    -0.084 HD
ENDROOT
BRANCH   1   4
ATOM      4  C   UNL     1      -2.157   1.037   1.404  0.00  0.00    -0.038 C 
BRANCH   4   5
ATOM      5  C   UNL     1      -2.718   1.730   2.619  0.00  0.00    -0.057 A 
ATOM      6  C   UNL     1      -3.138   3.045   2.529  0.00  0.00    +0.006 A 
ATOM      7  C   UNL     1      -3.654   3.688   3.640  0.00  0.00    +0.049 A 
ATOM      8  C   UNL     1      -3.749   3.010   4.843  0.00  0.00    +0.162 A 
ATOM      9  C   UNL     1      -3.328   1.691   4.933  0.00  0.00    +0.162 A 
ATOM     10  C   UNL     1      -2.817   1.048   3.818  0.00  0.00    +0.051 A 
ATOM     11  O   UNL     1      -3.425   1.031   6.124  0.00  0.00    -0.488 OA
ATOM     12  C   UNL     1      -4.752   0.748   6.574  0.00  0.00    +0.232 C 
ATOM     13  C   UNL     1      -5.335   1.941   7.315  0.00  0.00    +0.082 C 
ATOM     14  C   UNL     1      -5.518   3.150   6.412  0.00  0.00    +0.232 C 
ATOM     15  O   UNL     1      -4.256   3.632   5.947  0.00  0.00    -0.488 OA
ENDBRANCH   4   5
BRANCH   4  17
ATOM     16  C   UNL     1      -0.609   2.975   1.101  0.00  0.00    +0.006 C 
ATOM     17  C   UNL     1      -0.697   1.451   1.209  0.00  0.00    -0.027 C 
ATOM     18  C   UNL     1       0.132   0.976   2.405  0.00  0.00    +0.006 C 
ENDBRANCH   4  17
ENDBRANCH   1   4
BRANCH   1  19
ATOM     19  C   UNL     1      -2.836   0.394  -0.829  0.00  0.00    -0.025 C 
BRANCH  19  20
ATOM     20  C   UNL     1      -3.745   0.756  -1.975  0.00  0.00    +0.032 A 
ATOM     21  C   UNL     1      -3.255   1.435  -3.045  0.00  0.00    +0.068 A 
ATOM     22  S   UNL     1      -4.728   1.580  -4.048  0.00  0.00    -0.075 S 
ATOM     23  C   UNL     1      -5.834   0.723  -2.936  0.00  0.00    +0.109 A 
ATOM     24  N   UNL     1      -5.012   0.412  -1.943  0.00  0.00    -0.246 NA
BRANCH  23  25
ATOM     25  C   UNL     1      -7.276   0.434  -3.085  0.00  0.00    +0.011 A 
ATOM     26  C   UNL     1      -7.958  -0.258  -2.082  0.00  0.00    +0.014 A 
ATOM     27  C   UNL     1      -9.304  -0.526  -2.223  0.00  0.00    +0.050 A 
ATOM     28  C   UNL     1      -9.982  -0.111  -3.358  0.00  0.00    +0.162 A 
ATOM     29  C   UNL     1      -9.308   0.580  -4.362  0.00  0.00    +0.162 A 
ATOM     30  C   UNL     1      -7.960   0.858  -4.225  0.00  0.00    +0.060 A 
BRANCH  29  31
ATOM     31  O   UNL     1      -9.976   0.987  -5.475  0.00  0.00    -0.491 OA
ATOM     32  C   UNL     1      -9.222   1.690  -6.464  0.00  0.00    +0.277 C 
ENDBRANCH  29  31
BRANCH  28  33
ATOM     33  O   UNL     1     -11.309  -0.377  -3.492  0.00  0.00    -0.491 OA
ATOM     34  C   UNL     1     -11.938  -1.089  -2.424  0.00  0.00    +0.277 C 
ENDBRANCH  28  33
ENDBRANCH  23  25
ENDBRANCH  19  20
ENDBRANCH   1  19
TORSDOF 8
