REMARK  Name = ZINC18344160
REMARK  3 active torsions:
REMARK  status: ('A' for Active; 'I' for Inactive)
REMARK    1  A    between atoms: C_4  and  S_8
REMARK    2  A    between atoms: S_8  and  C_9
REMARK    3  A    between atoms: C_9  and  C_10
REMARK                            x       y       z     vdW  Elec       q    Type
REMARK                         _______ _______ _______ _____ _____    ______ ____
ROOT
ATOM      1  C   UNL     1       4.825  -3.288  -0.056  0.00  0.00    +0.142 A 
ATOM      2  N   UNL     1       5.344  -3.649  -1.216  0.00  0.00    -0.216 NA
ATOM      3  C   UNL     1       6.317  -4.542  -1.306  0.00  0.00    +0.128 A 
ATOM      4  C   UNL     1       6.824  -5.135  -0.116  0.00  0.00    +0.051 A 
ATOM      5  C   UNL     1       7.883  -6.134   0.030  0.00  0.00    -0.025 A 
ATOM      6  C   UNL     1       8.177  -6.535   1.284  0.00  0.00    -0.004 A 
ATOM      7  S   UNL     1       7.078  -5.620   2.332  0.00  0.00    -0.073 S 
ATOM      8  C   UNL     1       6.222  -4.699   1.081  0.00  0.00    +0.114 A 
ATOM      9  N   UNL     1       5.258  -3.798   1.081  0.00  0.00    -0.224 NA
ATOM     10  C   UNL     1       9.210  -7.538   1.698  0.00  0.00    +0.043 C 
ATOM     11  C   UNL     1       9.642  -8.329   0.455  0.00  0.00    +0.005 C 
ATOM     12  C   UNL     1       9.937  -7.341  -0.678  0.00  0.00    +0.005 C 
ATOM     13  C   UNL     1       8.633  -6.709  -1.168  0.00  0.00    +0.037 C 
ATOM     14  N   UNL     1       6.833  -4.894  -2.539  0.00  0.00    -0.343 N 
ATOM     15  H   UNL     1       6.658  -4.338  -3.315  0.00  0.00    +0.144 HD
ATOM     16  H   UNL     1       7.371  -5.696  -2.629  0.00  0.00    +0.144 HD
ENDROOT
BRANCH   1  17
ATOM     17  C   UNL     1       3.718  -2.265  -0.030  0.00  0.00    +0.150 C 
BRANCH  17  18
ATOM     18  S   UNL     1       4.433  -0.603   0.101  0.00  0.00    -0.114 S 
BRANCH  18  22
ATOM     19  C   UNL     1       0.828   2.143   0.146  0.00  0.00    +0.041 A 
ATOM     20  C   UNL     1       2.103   2.676   0.226  0.00  0.00    +0.042 A 
ATOM     21  C   UNL     1       3.204   1.841   0.212  0.00  0.00    +0.137 A 
ATOM     22  C   UNL     1       3.031   0.464   0.119  0.00  0.00    +0.046 A 
ATOM     23  C   UNL     1       1.751  -0.068   0.039  0.00  0.00    +0.056 A 
ATOM     24  C   UNL     1       0.652   0.773   0.053  0.00  0.00    +0.125 A 
ATOM     25  F   UNL     1      -0.594   0.256  -0.025  0.00  0.00    -0.205 F 
ATOM     26  F   UNL     1       4.448   2.363   0.290  0.00  0.00    -0.204 F 
ENDBRANCH  18  22
ENDBRANCH  17  18
ENDBRANCH   1  17
TORSDOF 3
