REMARK  Name = ZINC20509008
REMARK  10 active torsions:
REMARK  status: ('A' for Active; 'I' for Inactive)
REMARK    1  A    between atoms: C_1  and  O_2
REMARK    2  A    between atoms: O_2  and  C_3
REMARK    3  A    between atoms: C_6  and  N_9
REMARK    4  A    between atoms: C_11  and  C_20
REMARK    5  A    between atoms: N_22  and  C_23
REMARK    6  A    between atoms: C_23  and  C_24
REMARK    7  A    between atoms: C_24  and  N_25
REMARK    8  A    between atoms: N_25  and  C_26
REMARK    9  A    between atoms: N_25  and  C_32
REMARK   10  A    between atoms: C_26  and  C_27
REMARK                            x       y       z     vdW  Elec       q    Type
REMARK                         _______ _______ _______ _____ _____    ______ ____
ROOT
ATOM      1  N   UNL     1       3.317   0.604   4.964  0.00  0.00    -0.283 N 
ATOM      2  C   UNL     1       2.517   0.957   3.927  0.00  0.00    +0.108 A 
ATOM      3  C   UNL     1       1.316   1.572   4.115  0.00  0.00    +0.061 A 
ATOM      4  C   UNL     1       0.862   1.854   5.488  0.00  0.00    +0.001 A 
ATOM      5  C   UNL     1      -0.357   2.475   5.748  0.00  0.00    +0.009 A 
ATOM      6  C   UNL     1      -0.733   2.715   7.052  0.00  0.00    +0.001 A 
ATOM      7  C   UNL     1       0.091   2.344   8.107  0.00  0.00    +0.001 A 
ATOM      8  C   UNL     1       1.301   1.729   7.871  0.00  0.00    +0.014 A 
ATOM      9  C   UNL     1       1.700   1.476   6.559  0.00  0.00    +0.048 A 
ATOM     10  C   UNL     1       2.978   0.824   6.249  0.00  0.00    +0.263 A 
ATOM     11  O   UNL     1       3.726   0.485   7.147  0.00  0.00    -0.267 OA
ENDROOT
BRANCH   1  15
ATOM     12  C   UNL     1       6.959  -1.254   4.143  0.00  0.00    +0.120 A 
ATOM     13  C   UNL     1       5.771  -1.857   3.759  0.00  0.00    +0.047 A 
ATOM     14  C   UNL     1       4.565  -1.243   4.030  0.00  0.00    +0.030 A 
ATOM     15  C   UNL     1       4.541  -0.021   4.689  0.00  0.00    +0.050 A 
ATOM     16  C   UNL     1       5.731   0.586   5.068  0.00  0.00    +0.030 A 
ATOM     17  C   UNL     1       6.937  -0.032   4.801  0.00  0.00    +0.047 A 
BRANCH  12  19
ATOM     18  C   UNL     1       9.331  -1.182   4.300  0.00  0.00    +0.277 C 
ATOM     19  O   UNL     1       8.147  -1.859   3.876  0.00  0.00    -0.495 OA
ENDBRANCH  12  19
ENDBRANCH   1  15
BRANCH   3  20
ATOM     20  C   UNL     1       0.481   1.944   2.962  0.00  0.00    +0.246 C 
ATOM     21  O   UNL     1      -0.530   2.600   3.130  0.00  0.00    -0.270 OA
ATOM     22  N   UNL     1       0.837   1.560   1.720  0.00  0.00    -0.313 N 
ATOM     23  H   UNL     1       1.700   0.893   1.577  0.00  0.00    +0.149 HD
BRANCH  22  24
ATOM     24  C   UNL     1       0.073   2.028   0.562  0.00  0.00    +0.086 C 
BRANCH  24  25
ATOM     25  C   UNL     1       0.680   1.449  -0.718  0.00  0.00    -0.059 C 
BRANCH  25  26
ATOM     26  N   UNL     1      -0.169   1.798  -1.865  0.00  0.00    +0.387 N 
ATOM     27  H   UNL     1      -1.189   1.449  -1.648  0.00  0.00    -0.081 HD
BRANCH  26  28
ATOM     28  C   UNL     1      -0.221   3.253  -2.057  0.00  0.00    -0.068 C 
ATOM     29  C   UNL     1       1.004   3.918  -1.398  0.00  0.00    -0.015 C 
ATOM     30  C   UNL     1       0.451   5.242  -0.815  0.00  0.00    -0.002 C 
ATOM     31  C   UNL     1      -0.950   4.830  -0.300  0.00  0.00    -0.002 C 
ATOM     32  C   UNL     1      -1.464   3.833  -1.359  0.00  0.00    -0.015 C 
ENDBRANCH  26  28
BRANCH  26  33
ATOM     33  C   UNL     1       0.290   1.121  -3.085  0.00  0.00    -0.003 C 
BRANCH  33  34
ATOM     34  C   UNL     1      -0.800   1.165  -4.124  0.00  0.00    +0.089 A 
ATOM     35  C   UNL     1      -0.913   2.075  -5.108  0.00  0.00    +0.042 A 
ATOM     36  C   UNL     1      -2.071   1.738  -5.846  0.00  0.00    +0.041 A 
ATOM     37  C   UNL     1      -2.601   0.648  -5.264  0.00  0.00    +0.195 A 
ATOM     38  O   UNL     1      -1.827   0.305  -4.221  0.00  0.00    -0.470 OA
ENDBRANCH  33  34
ENDBRANCH  26  33
ENDBRANCH  25  26
ENDBRANCH  24  25
ENDBRANCH  22  24
ENDBRANCH   3  20
TORSDOF 9
