REMARK  Name = ZINC49105036
REMARK  10 active torsions:
REMARK  status: ('A' for Active; 'I' for Inactive)
REMARK    1  A    between atoms: C_1  and  C_2
REMARK    2  A    between atoms: C_2  and  C_3
REMARK    3  A    between atoms: C_3  and  C_5
REMARK    4  A    between atoms: C_3  and  C_6
REMARK    5  A    between atoms: C_6  and  C_8
REMARK    6  A    between atoms: C_6  and  N_9
REMARK    7  A    between atoms: C_10  and  C_12
REMARK    8  A    between atoms: C_14  and  S_19
REMARK    9  A    between atoms: C_17  and  C_18
REMARK   10  A    between atoms: S_19  and  N_22
REMARK                            x       y       z     vdW  Elec       q    Type
REMARK                         _______ _______ _______ _____ _____    ______ ____
ROOT
ATOM      1  C   UNL     1       1.490  -4.075  -4.458  0.00  0.00    +0.041 A 
ATOM      2  C   UNL     1       2.429  -3.261  -5.094  0.00  0.00    +0.041 A 
ATOM      3  C   UNL     1       3.243  -3.788  -6.075  0.00  0.00    +0.106 A 
ATOM      4  C   UNL     1       3.130  -5.121  -6.429  0.00  0.00    +0.029 A 
ATOM      5  C   UNL     1       2.202  -5.934  -5.803  0.00  0.00    +0.006 A 
ATOM      6  C   UNL     1       1.385  -5.420  -4.816  0.00  0.00    -0.038 A 
ATOM      7  C   UNL     1       0.379  -6.308  -4.131  0.00  0.00    +0.044 C 
ENDROOT
BRANCH   1   9
ATOM      8  N   UNL     1       0.805  -2.256  -2.969  0.00  0.00    -0.308 N 
ATOM      9  C   UNL     1       0.615  -3.517  -3.405  0.00  0.00    +0.245 C 
ATOM     10  O   UNL     1      -0.277  -4.195  -2.933  0.00  0.00    -0.270 OA
ATOM     11  H   UNL     1       1.516  -1.715  -3.346  0.00  0.00    +0.149 HD
BRANCH   8  12
ATOM     12  C   UNL     1      -0.063  -1.703  -1.926  0.00  0.00    +0.073 C 
ATOM     13  C   UNL     1       0.474  -2.104  -0.551  0.00  0.00    +0.028 C 
BRANCH  12  14
ATOM     14  C   UNL     1      -0.087  -0.177  -2.040  0.00  0.00    +0.006 C 
ATOM     15  C   UNL     1       1.331   0.370  -1.867  0.00  0.00    +0.009 C 
BRANCH  14  17
ATOM     16  C   UNL     1      -1.117   1.913  -1.140  0.00  0.00    +0.004 C 
ATOM     17  C   UNL     1      -0.993   0.400  -0.951  0.00  0.00    +0.002 C 
ENDBRANCH  14  17
ENDBRANCH  12  14
ENDBRANCH   8  12
ENDBRANCH   1   9
BRANCH   3  18
ATOM     18  S   UNL     1       4.428  -2.762  -6.879  0.00  0.00    +0.056 S 
ATOM     19  O   UNL     1       4.693  -3.359  -8.140  0.00  0.00    -0.153 OA
ATOM     20  O   UNL     1       3.962  -1.426  -6.751  0.00  0.00    -0.153 OA
BRANCH  18  21
ATOM     21  N   UNL     1       5.832  -2.858  -6.005  0.00  0.00    -0.204 NA
ATOM     22  H   UNL     1       5.872  -3.414  -5.211  0.00  0.00    +0.144 HD
ATOM     23  H   UNL     1       6.614  -2.360  -6.288  0.00  0.00    +0.144 HD
ENDBRANCH  18  21
ENDBRANCH   3  18
TORSDOF 6
