REMARK  Name = ZINC63514215
REMARK  9 active torsions:
REMARK  status: ('A' for Active; 'I' for Inactive)
REMARK    1  A    between atoms: C_1  and  C_2
REMARK    2  A    between atoms: C_4  and  C_14
REMARK    3  A    between atoms: C_7  and  O_12
REMARK    4  A    between atoms: O_12  and  C_13
REMARK    5  A    between atoms: C_14  and  C_15
REMARK    6  A    between atoms: C_15  and  N_16
REMARK    7  A    between atoms: N_16  and  S_17
REMARK    8  A    between atoms: S_17  and  C_20
REMARK    9  A    between atoms: C_23  and  C_26
REMARK                            x       y       z     vdW  Elec       q    Type
REMARK                         _______ _______ _______ _____ _____    ______ ____
ROOT
ATOM      1  N   UNL     1       0.997  -0.729  -4.977  0.00  0.00    -0.190 NA
ATOM      2  H   UNL     1       0.113  -0.396  -5.198  0.00  0.00    +0.148 HD
ENDROOT
BRANCH   1   3
ATOM      3  S   UNL     1       2.092  -1.035  -6.182  0.00  0.00    +0.058 S 
ATOM      4  O   UNL     1       1.438  -0.740  -7.409  0.00  0.00    -0.153 OA
ATOM      5  O   UNL     1       3.306  -0.406  -5.796  0.00  0.00    -0.153 OA
BRANCH   3   6
ATOM      6  C   UNL     1       2.399  -2.770  -6.179  0.00  0.00    +0.105 A 
ATOM      7  C   UNL     1       3.414  -3.291  -5.399  0.00  0.00    +0.029 A 
ATOM      8  C   UNL     1       3.655  -4.652  -5.397  0.00  0.00    +0.006 A 
ATOM      9  C   UNL     1       2.881  -5.492  -6.175  0.00  0.00    -0.044 A 
ATOM     10  C   UNL     1       1.865  -4.971  -6.955  0.00  0.00    +0.006 A 
ATOM     11  C   UNL     1       1.621  -3.610  -6.954  0.00  0.00    +0.029 A 
BRANCH   9  12
ATOM     12  C   UNL     1       3.144  -6.976  -6.174  0.00  0.00    +0.019 C 
ATOM     13  C   UNL     1       3.495  -7.433  -7.591  0.00  0.00    +0.008 C 
ATOM     14  C   UNL     1       3.762  -8.939  -7.590  0.00  0.00    +0.001 C 
ATOM     15  C   UNL     1       2.511  -9.679  -7.110  0.00  0.00    +0.000 C 
ATOM     16  C   UNL     1       2.161  -9.222  -5.693  0.00  0.00    +0.001 C 
ATOM     17  C   UNL     1       1.893  -7.715  -5.694  0.00  0.00    +0.008 C 
ENDBRANCH   9  12
ENDBRANCH   3   6
ENDBRANCH   1   3
BRANCH   1  18
ATOM     18  C   UNL     1       1.363  -0.963  -3.578  0.00  0.00    +0.110 C 
BRANCH  18  19
ATOM     19  C   UNL     1       0.352  -0.269  -2.664  0.00  0.00    +0.050 C 
BRANCH  19  22
ATOM     20  C   UNL     1      -0.019   1.526   0.010  0.00  0.00    +0.035 C 
ATOM     21  C   UNL     1       0.002  -0.004   0.002  0.00  0.00    +0.103 C 
ATOM     22  C   UNL     1       0.729  -0.509  -1.224  0.00  0.00    -0.037 C 
ATOM     23  C   UNL     1       1.785  -1.220  -0.768  0.00  0.00    +0.003 A 
ATOM     24  C   UNL     1       2.858  -1.954  -1.447  0.00  0.00    +0.055 A 
ATOM     25  C   UNL     1       3.803  -2.586  -0.711  0.00  0.00    +0.121 A 
ATOM     26  C   UNL     1       3.796  -2.567   0.695  0.00  0.00    +0.047 A 
ATOM     27  C   UNL     1       2.851  -1.919   1.409  0.00  0.00    +0.029 A 
ATOM     28  C   UNL     1       1.779  -1.200   0.713  0.00  0.00    +0.043 A 
ATOM     29  N   UNL     1       0.758  -0.506   1.155  0.00  0.00    -0.378 N 
ATOM     30  H   UNL     1       0.540  -0.349   2.087  0.00  0.00    +0.160 HD
BRANCH  25  31
ATOM     31  O   UNL     1       4.792  -3.263  -1.353  0.00  0.00    -0.495 OA
ATOM     32  C   UNL     1       5.767  -3.915  -0.537  0.00  0.00    +0.277 C 
ENDBRANCH  25  31
ENDBRANCH  19  22
ENDBRANCH  18  19
ENDBRANCH   1  18
TORSDOF 7
