REMARK  Name = ZINC59363510
REMARK  15 active torsions:
REMARK  status: ('A' for Active; 'I' for Inactive)
REMARK    1  A    between atoms: C_1  and  C_2
REMARK    2  A    between atoms: C_7  and  N_8
REMARK    3  A    between atoms: C_9  and  C_11
REMARK    4  A    between atoms: C_11  and  C_13
REMARK    5  A    between atoms: C_11  and  N_14
REMARK    6  A    between atoms: C_18  and  C_21
REMARK    7  A    between atoms: C_21  and  N_22
REMARK    8  A    between atoms: N_22  and  C_23
REMARK    9  A    between atoms: C_23  and  C_24
REMARK   10  A    between atoms: C_23  and  C_25
REMARK   11  A    between atoms: C_26  and  O_28
REMARK   12  A    between atoms: O_28  and  C_29
REMARK   13  A    between atoms: C_29  and  C_30
REMARK   14  A    between atoms: C_29  and  C_31
REMARK   15  A    between atoms: C_29  and  C_32
REMARK                            x       y       z     vdW  Elec       q    Type
REMARK                         _______ _______ _______ _____ _____    ______ ____
ROOT
ATOM      1  N   UNL     1      -0.121  -0.902   5.998  0.00  0.00    +0.387 N 
ATOM      2  C   UNL     1      -1.298  -1.777   5.941  0.00  0.00    -0.078 C 
ATOM      3  C   UNL     1      -1.213  -2.825   7.053  0.00  0.00    -0.018 C 
ATOM      4  C   UNL     1      -1.167  -2.118   8.411  0.00  0.00    +0.001 C 
ATOM      5  C   UNL     1       0.021  -1.152   8.432  0.00  0.00    -0.010 C 
ATOM      6  C   UNL     1      -0.109  -0.166   7.269  0.00  0.00    -0.073 C 
ATOM      7  H   UNL     1       0.716  -1.461   5.927  0.00  0.00    -0.081 HD
ENDROOT
BRANCH   1   8
ATOM      8  C   UNL     1      -0.168   0.052   4.882  0.00  0.00    +0.016 C 
ATOM      9  C   UNL     1       1.028   1.003   4.973  0.00  0.00    -0.004 C 
BRANCH   8  11
ATOM     10  N   UNL     1      -0.688  -0.176   2.475  0.00  0.00    -0.287 N 
ATOM     11  C   UNL     1      -0.114  -0.699   3.577  0.00  0.00    +0.203 C 
ATOM     12  O   UNL     1       0.446  -1.773   3.518  0.00  0.00    -0.277 OA
ATOM     13  H   UNL     1      -1.079   0.711   2.506  0.00  0.00    +0.155 HD
BRANCH  10  20
ATOM     14  C   UNL     1      -2.863   0.244   0.689  0.00  0.00    +0.045 C 
ATOM     15  C   UNL     1      -1.762  -0.739   0.386  0.00  0.00    -0.029 A 
ATOM     16  C   UNL     1      -1.787  -1.465  -0.789  0.00  0.00    +0.005 A 
ATOM     17  C   UNL     1      -0.778  -2.368  -1.067  0.00  0.00    +0.000 A 
ATOM     18  C   UNL     1       0.260  -2.547  -0.171  0.00  0.00    +0.002 A 
ATOM     19  C   UNL     1       0.291  -1.825   1.005  0.00  0.00    +0.023 A 
ATOM     20  C   UNL     1      -0.719  -0.914   1.286  0.00  0.00    +0.036 A 
ENDBRANCH  10  20
ENDBRANCH   8  11
ENDBRANCH   1   8
BRANCH   5  21
ATOM     21  C   UNL     1       0.032  -0.384   9.755  0.00  0.00    +0.113 C 
BRANCH  21  22
ATOM     22  N   UNL     1       0.271  -1.316  10.859  0.00  0.00    -0.265 N 
ATOM     23  C   UNL     1      -0.769  -1.914  11.474  0.00  0.00    +0.404 C 
ATOM     24  O   UNL     1      -1.905  -1.679  11.112  0.00  0.00    -0.226 OA
BRANCH  22  25
ATOM     25  C   UNL     1       1.641  -1.599  11.295  0.00  0.00    +0.073 C 
ATOM     26  C   UNL     1       1.801  -1.201  12.763  0.00  0.00    +0.028 C 
ATOM     27  C   UNL     1       1.928  -3.094  11.137  0.00  0.00    +0.028 C 
ENDBRANCH  22  25
BRANCH  23  28
ATOM     28  O   UNL     1      -0.548  -2.771  12.489  0.00  0.00    -0.445 OA
BRANCH  28  29
ATOM     29  C   UNL     1      -1.697  -3.368  13.094  0.00  0.00    +0.107 C 
ATOM     30  C   UNL     1      -2.471  -4.165  12.043  0.00  0.00    +0.055 C 
ATOM     31  C   UNL     1      -1.251  -4.304  14.219  0.00  0.00    +0.055 C 
ATOM     32  C   UNL     1      -2.598  -2.272  13.669  0.00  0.00    +0.055 C 
ENDBRANCH  28  29
ENDBRANCH  23  28
ENDBRANCH  21  22
ENDBRANCH   5  21
TORSDOF 8
