REMARK  Name = ZINC10633181
REMARK  11 active torsions:
REMARK  status: ('A' for Active; 'I' for Inactive)
REMARK    1  A    between atoms: C_1  and  C_2
REMARK    2  A    between atoms: C_2  and  C_3
REMARK    3  A    between atoms: C_2  and  C_4
REMARK    4  A    between atoms: C_4  and  C_5
REMARK    5  A    between atoms: C_5  and  C_7
REMARK    6  A    between atoms: C_5  and  N_24
REMARK    7  A    between atoms: C_7  and  O_9
REMARK    8  A    between atoms: O_9  and  C_10
REMARK    9  A    between atoms: C_10  and  C_11
REMARK   10  A    between atoms: N_16  and  C_19
REMARK   11  A    between atoms: C_25  and  C_27
REMARK                            x       y       z     vdW  Elec       q    Type
REMARK                         _______ _______ _______ _____ _____    ______ ____
ROOT
ATOM      1  C   UNL     1      -6.462   4.864  -4.284  0.00  0.00    +0.328 C 
ATOM      2  O   UNL     1      -6.703   3.709  -4.544  0.00  0.00    -0.249 OA
ENDROOT
BRANCH   1   3
ATOM      3  C   UNL     1      -7.149   5.967  -5.047  0.00  0.00    +0.182 C 
BRANCH   3   4
ATOM      4  N   UNL     1      -8.053   5.383  -6.041  0.00  0.00    -0.298 N 
ATOM      5  C   UNL     1      -8.384   6.084  -7.144  0.00  0.00    +0.245 C 
ATOM      6  O   UNL     1      -7.933   7.199  -7.314  0.00  0.00    -0.270 OA
ATOM      7  H   UNL     1      -8.414   4.493  -5.905  0.00  0.00    +0.150 HD
BRANCH   5   8
ATOM      8  C   UNL     1      -9.297   5.495  -8.147  0.00  0.00    +0.037 A 
ATOM      9  C   UNL     1      -9.813   4.212  -7.957  0.00  0.00    +0.014 A 
ATOM     10  C   UNL     1     -10.669   3.670  -8.892  0.00  0.00    +0.021 A 
ATOM     11  C   UNL     1     -11.007   4.392 -10.025  0.00  0.00    +0.041 A 
ATOM     12  C   UNL     1     -10.493   5.663 -10.222  0.00  0.00    +0.021 A 
ATOM     13  C   UNL     1      -9.642   6.218  -9.290  0.00  0.00    +0.014 A 
ATOM     14 CL   UNL     1     -12.079   3.701 -11.203  0.00  0.00    -0.084 Cl
ENDBRANCH   5   8
ENDBRANCH   3   4
BRANCH   3  15
ATOM     15  C   UNL     1      -7.950   6.836  -4.076  0.00  0.00    +0.036 C 
BRANCH  15  17
ATOM     16  C   UNL     1      -9.448   8.827  -3.889  0.00  0.00    +0.007 C 
ATOM     17  C   UNL     1      -8.546   8.027  -4.830  0.00  0.00    -0.015 C 
ATOM     18  C   UNL     1      -7.416   8.925  -5.340  0.00  0.00    +0.007 C 
ENDBRANCH  15  17
ENDBRANCH   3  15
ENDBRANCH   1   3
BRANCH   1  19
ATOM     19  O   UNL     1      -5.582   5.165  -3.316  0.00  0.00    -0.454 OA
BRANCH  19  20
ATOM     20  C   UNL     1      -4.959   4.051  -2.623  0.00  0.00    +0.327 C 
BRANCH  20  21
ATOM     21  C   UNL     1      -4.009   4.579  -1.578  0.00  0.00    +0.253 C 
ATOM     22  O   UNL     1      -3.871   5.775  -1.433  0.00  0.00    -0.272 OA
ATOM     23  N   UNL     1      -3.313   3.721  -0.806  0.00  0.00    -0.296 N 
ATOM     24  C   UNL     1      -2.381   4.214   0.219  0.00  0.00    +0.127 C 
ATOM     25  C   UNL     1      -1.031   3.514   0.026  0.00  0.00    +0.125 C 
ATOM     26  N   UNL     1      -1.233   2.059   0.019  0.00  0.00    -0.314 N 
ATOM     27  C   UNL     1      -2.073   1.644  -1.112  0.00  0.00    +0.125 C 
ATOM     28  C   UNL     1      -3.466   2.267  -0.966  0.00  0.00    +0.127 C 
BRANCH  26  29
ATOM     29  C   UNL     1      -0.017   1.387   0.010  0.00  0.00    +0.099 A 
ATOM     30  C   UNL     1       0.002  -0.004   0.002  0.00  0.00    +0.042 A 
ATOM     31  C   UNL     1       1.220  -0.660  -0.013  0.00  0.00    +0.005 A 
ATOM     32  C   UNL     1       2.382   0.100  -0.020  0.00  0.00    +0.018 A 
ATOM     33  C   UNL     1       2.289   1.477  -0.012  0.00  0.00    +0.084 A 
ATOM     34  N   UNL     1       1.111   2.155   0.003  0.00  0.00    -0.350 N 
ATOM     35  H   UNL     1       1.072   3.181   0.009  0.00  0.00    +0.166 HD
ENDBRANCH  26  29
ENDBRANCH  20  21
ENDBRANCH  19  20
ENDBRANCH   1  19
TORSDOF 9
