REMARK  Name = ZINC39448670
REMARK  4 active torsions:
REMARK  status: ('A' for Active; 'I' for Inactive)
REMARK    1  A    between atoms: C_4  and  C_7
REMARK    2  A    between atoms: C_7  and  C_10
REMARK    3  A    between atoms: N_8  and  O_9
REMARK    4  A    between atoms: N_11  and  O_12
REMARK                            x       y       z     vdW  Elec       q    Type
REMARK                         _______ _______ _______ _____ _____    ______ ____
ROOT
ATOM      1  C   UNL     1       3.708  -2.168   0.068  0.00  0.00    +0.192 C 
ATOM      2  N   UNL     1       2.586  -2.825   0.075  0.00  0.00    -0.069 NA
ATOM      3  N   UNL     1       4.912  -2.851   0.163  0.00  0.00    -0.279 N 
ATOM      4  C   UNL     1       4.918  -4.240   0.265  0.00  0.00    +0.138 A 
ATOM      5  C   UNL     1       6.129  -4.918   0.365  0.00  0.00    +0.059 A 
ATOM      6  C   UNL     1       6.122  -6.298   0.467  0.00  0.00    +0.040 A 
ATOM      7  C   UNL     1       4.897  -6.956   0.464  0.00  0.00    +0.060 A 
ATOM      8  C   UNL     1       3.734  -6.218   0.361  0.00  0.00    +0.133 A 
ATOM      9  N   UNL     1       3.772  -4.902   0.271  0.00  0.00    -0.238 NA
ATOM     10 CL   UNL     1       4.831  -8.686   0.588  0.00  0.00    -0.082 Cl
ATOM     11 BR   UNL     1       7.764  -3.967   0.362  0.00  0.00    -0.047 Br
ATOM     12  H   UNL     1       5.749  -2.361   0.158  0.00  0.00    +0.155 HD
ENDROOT
BRANCH   1  13
ATOM     13  C   UNL     1       3.701  -0.693  -0.041  0.00  0.00    +0.153 C 
ATOM     14  N   UNL     1       4.824  -0.043  -0.155  0.00  0.00    -0.083 NA
BRANCH  13  18
ATOM     15  C   UNL     1       0.017   1.426   0.023  0.00  0.00    +0.000 A 
ATOM     16  C   UNL     1       0.636   1.085   1.212  0.00  0.00    +0.001 A 
ATOM     17  C   UNL     1       1.832   0.397   1.198  0.00  0.00    +0.010 A 
ATOM     18  C   UNL     1       2.416   0.046  -0.018  0.00  0.00    +0.007 A 
ATOM     19  C   UNL     1       1.788   0.392  -1.214  0.00  0.00    +0.010 A 
ATOM     20  C   UNL     1       0.592   1.081  -1.187  0.00  0.00    +0.001 A 
ENDBRANCH  13  18
BRANCH  14  21
ATOM     21  O   UNL     1       4.826   1.373  -0.152  0.00  0.00    -0.409 OA
ATOM     22  H   UNL     1       5.705   1.765  -0.242  0.00  0.00    +0.328 HD
ENDBRANCH  14  21
ENDBRANCH   1  13
BRANCH   2  23
ATOM     23  O   UNL     1       1.355  -2.125   0.089  0.00  0.00    -0.408 OA
ATOM     24  H   UNL     1       0.579  -2.695   0.170  0.00  0.00    +0.328 HD
ENDBRANCH   2  23
TORSDOF 4
