REMARK  Name = ZINC50335671
REMARK  5 active torsions:
REMARK  status: ('A' for Active; 'I' for Inactive)
REMARK    1  A    between atoms: C_1  and  C_2
REMARK    2  A    between atoms: C_2  and  C_22
REMARK    3  A    between atoms: C_7  and  C_9
REMARK    4  A    between atoms: C_13  and  N_15
REMARK    5  A    between atoms: C_18  and  O_21
REMARK                            x       y       z     vdW  Elec       q    Type
REMARK                         _______ _______ _______ _____ _____    ______ ____
ROOT
ATOM      1  C   UNL     1      -0.019   1.526   0.010  0.00  0.00    +0.011 C 
ATOM      2  C   UNL     1       0.002  -0.004   0.002  0.00  0.00    -0.027 C 
ATOM      3  C   UNL     1      -1.433  -0.530  -0.004  0.00  0.00    +0.062 C 
ATOM      4  C   UNL     1      -1.402  -2.048   0.157  0.00  0.00    +0.055 A 
ATOM      5  C   UNL     1      -0.287  -2.656   0.652  0.00  0.00    +0.041 A 
ATOM      6  S   UNL     1      -0.739  -4.372   0.641  0.00  0.00    -0.069 S 
ATOM      7  C   UNL     1      -2.385  -4.144  -0.024  0.00  0.00    +0.109 A 
ATOM      8  N   UNL     1      -2.423  -2.830  -0.167  0.00  0.00    -0.244 NA
ATOM      9  C   UNL     1       0.987  -2.018   1.091  0.00  0.00    +0.153 C 
ATOM     10  C   UNL     1       0.743  -0.509   1.244  0.00  0.00    +0.043 C 
ATOM     11  C   UNL     1       0.725  -0.495  -1.254  0.00  0.00    +0.011 C 
ENDROOT
BRANCH   7  12
ATOM     12  C   UNL     1      -3.421  -5.154  -0.333  0.00  0.00    +0.009 A 
ATOM     13  C   UNL     1      -4.651  -4.757  -0.859  0.00  0.00    +0.011 A 
ATOM     14  C   UNL     1      -5.613  -5.703  -1.144  0.00  0.00    +0.003 A 
ATOM     15  C   UNL     1      -5.360  -7.043  -0.910  0.00  0.00    +0.033 A 
ATOM     16  C   UNL     1      -4.143  -7.443  -0.389  0.00  0.00    +0.127 A 
ATOM     17  C   UNL     1      -3.170  -6.507  -0.104  0.00  0.00    +0.043 A 
BRANCH  16  18
ATOM     18  N   UNL     1      -3.881  -8.879  -0.141  0.00  0.00    +0.056 N 
ATOM     19  O   UNL     1      -4.731  -9.701  -0.395  0.00  0.00    -0.126 OA
ATOM     20  O   UNL     1      -2.818  -9.230   0.314  0.00  0.00    -0.126 OA
ENDBRANCH  16  18
ENDBRANCH   7  12
BRANCH   9  21
ATOM     21  O   UNL     1       1.396  -2.570   2.344  0.00  0.00    -0.387 OA
ATOM     22  H   UNL     1       1.550  -3.525   2.322  0.00  0.00    +0.210 HD
ENDBRANCH   9  21
TORSDOF 3
