REMARK  Name = ZINC10813478
REMARK  8 active torsions:
REMARK  status: ('A' for Active; 'I' for Inactive)
REMARK    1  A    between atoms: C_1  and  C_2
REMARK    2  A    between atoms: C_2  and  C_31
REMARK    3  A    between atoms: C_4  and  N_9
REMARK    4  A    between atoms: C_6  and  C_7
REMARK    5  A    between atoms: C_6  and  C_8
REMARK    6  A    between atoms: C_10  and  C_12
REMARK    7  A    between atoms: N_15  and  S_18
REMARK    8  A    between atoms: S_18  and  C_21
REMARK                            x       y       z     vdW  Elec       q    Type
REMARK                         _______ _______ _______ _____ _____    ______ ____
ROOT
ATOM      1  C   UNL     1       5.874  -1.942  -3.852  0.00  0.00    +0.077 C 
ATOM      2  C   UNL     1       6.354  -0.776  -2.983  0.00  0.00    +0.030 C 
ATOM      3  C   UNL     1       5.142  -0.076  -2.361  0.00  0.00    +0.110 C 
ATOM      4  N   UNL     1       4.337  -1.073  -1.642  0.00  0.00    -0.177 NA
ATOM      5  C   UNL     1       3.904  -2.280  -2.358  0.00  0.00    +0.110 C 
ATOM      6  C   UNL     1       5.125  -2.954  -2.982  0.00  0.00    +0.030 C 
ENDROOT
BRANCH   1   8
ATOM      7  N   UNL     1       6.879  -3.671  -5.306  0.00  0.00    -0.312 N 
ATOM      8  C   UNL     1       7.061  -2.613  -4.492  0.00  0.00    +0.216 C 
ATOM      9  O   UNL     1       8.181  -2.200  -4.276  0.00  0.00    -0.276 OA
ATOM     10  H   UNL     1       5.984  -4.002  -5.479  0.00  0.00    +0.149 HD
BRANCH   7  14
ATOM     11  C   UNL     1       9.916  -6.806  -5.891  0.00  0.00    -0.010 C 
ATOM     12  C   UNL     1       8.854  -6.469  -6.944  0.00  0.00    -0.072 C 
ATOM     13  C   UNL     1       7.674  -5.770  -6.273  0.00  0.00    +0.009 C 
ATOM     14  C   UNL     1       8.036  -4.325  -5.930  0.00  0.00    +0.070 C 
ATOM     15  C   UNL     1       8.390  -3.593  -7.224  0.00  0.00    +0.009 C 
ATOM     16  C   UNL     1       9.578  -4.266  -7.909  0.00  0.00    -0.072 C 
ATOM     17  C   UNL     1      10.868  -3.912  -7.160  0.00  0.00    -0.010 C 
ATOM     18  C   UNL     1       9.695  -3.670  -9.329  0.00  0.00    -0.010 C 
ATOM     19  C   UNL     1       8.337  -7.808  -7.516  0.00  0.00    -0.010 C 
ATOM     20  N   UNL     1       9.443  -5.736  -8.096  0.00  0.00    +0.386 N 
ATOM     21  H   UNL     1       8.845  -5.898  -8.915  0.00  0.00    -0.084 HD
ATOM     22  H   UNL     1      10.378  -6.121  -8.273  0.00  0.00    -0.084 HD
ENDBRANCH   7  14
ENDBRANCH   1   8
BRANCH   4  23
ATOM     23  S   UNL     1       3.931  -0.843  -0.053  0.00  0.00    +0.061 S 
ATOM     24  O   UNL     1       4.904   0.038   0.491  0.00  0.00    -0.153 OA
ATOM     25  O   UNL     1       3.680  -2.131   0.493  0.00  0.00    -0.153 OA
BRANCH  23  26
ATOM     26  C   UNL     1       2.397   0.024  -0.027  0.00  0.00    +0.109 A 
ATOM     27  C   UNL     1       1.207  -0.680  -0.016  0.00  0.00    +0.032 A 
ATOM     28  C   UNL     1       0.002  -0.004   0.002  0.00  0.00    +0.051 A 
ATOM     29  C   UNL     1      -0.017   1.383   0.010  0.00  0.00    +0.162 A 
ATOM     30  C   UNL     1       1.179   2.090   0.002  0.00  0.00    +0.164 A 
ATOM     31  C   UNL     1       2.385   1.406  -0.018  0.00  0.00    +0.078 A 
ATOM     32  O   UNL     1       1.184   3.451   0.018  0.00  0.00    -0.485 OA
ATOM     33  C   UNL     1      -0.040   4.103  -0.340  0.00  0.00    +0.270 C 
ATOM     34  C   UNL     1      -1.189   3.413   0.408  0.00  0.00    +0.270 C 
ATOM     35  O   UNL     1      -1.212   2.035   0.019  0.00  0.00    -0.485 OA
ENDBRANCH  23  26
ENDBRANCH   4  23
TORSDOF 4
