REMARK  Name = ZINC06409837
REMARK  9 active torsions:
REMARK  status: ('A' for Active; 'I' for Inactive)
REMARK    1  A    between atoms: C_1  and  C_2
REMARK    2  A    between atoms: C_7  and  C_14
REMARK    3  A    between atoms: C_14  and  C_16
REMARK    4  A    between atoms: C_14  and  N_70
REMARK    5  A    between atoms: N_20  and  C_21
REMARK    6  A    between atoms: C_27  and  C_28
REMARK    7  A    between atoms: C_27  and  N_70
REMARK    8  A    between atoms: C_35  and  C_36
REMARK    9  A    between atoms: C_35  and  N_70
REMARK                            x       y       z     vdW  Elec       q    Type
REMARK                         _______ _______ _______ _____ _____    ______ ____
ROOT
ATOM      1  C   UNL     1      -2.212   0.912   0.473  0.00  0.00    +0.040 C 
ENDROOT
BRANCH   1   8
ATOM      2  C   UNL     1       5.354   2.549   2.395  0.00  0.00    +0.044 C 
ATOM      3  C   UNL     1       4.006   2.032   1.962  0.00  0.00    -0.048 A 
ATOM      4  C   UNL     1       3.902   0.761   1.414  0.00  0.00    +0.004 A 
ATOM      5  C   UNL     1       2.690   0.274   1.015  0.00  0.00    +0.010 A 
ATOM      6  C   UNL     1       1.544   1.063   1.159  0.00  0.00    -0.001 A 
ATOM      7  C   UNL     1       0.229   0.572   0.741  0.00  0.00    +0.017 A 
ATOM      8  C   UNL     1      -0.846   1.384   0.899  0.00  0.00    +0.011 A 
ATOM      9  C   UNL     1      -0.690   2.667   1.464  0.00  0.00    +0.251 A 
ATOM     10  O   UNL     1      -1.669   3.379   1.602  0.00  0.00    -0.268 OA
ATOM     11  N   UNL     1       0.513   3.126   1.852  0.00  0.00    -0.322 N 
ATOM     12  H   UNL     1       0.586   4.015   2.234  0.00  0.00    +0.169 HD
ATOM     13  C   UNL     1       1.646   2.352   1.713  0.00  0.00    +0.049 A 
ATOM     14  C   UNL     1       2.891   2.827   2.112  0.00  0.00    +0.029 A 
ENDBRANCH   1   8
BRANCH   1  15
ATOM     15  C   UNL     1      -3.100   0.787   1.684  0.00  0.00    +0.143 A 
ATOM     16  N   UNL     1      -3.866   1.722   2.192  0.00  0.00    -0.115 NA
ATOM     17  N   UNL     1      -4.468   1.229   3.219  0.00  0.00    -0.023 NA
ATOM     18  N   UNL     1      -4.101   0.006   3.383  0.00  0.00    -0.044 NA
ATOM     19  N   UNL     1      -3.258  -0.303   2.456  0.00  0.00    -0.227 N 
BRANCH  19  20
ATOM     20  C   UNL     1      -2.597  -1.599   2.278  0.00  0.00    +0.111 C 
ATOM     21  C   UNL     1      -3.652  -2.705   2.212  0.00  0.00    +0.027 C 
ATOM     22  C   UNL     1      -2.962  -4.057   2.026  0.00  0.00    +0.002 C 
ATOM     23  C   UNL     1      -2.023  -4.318   3.206  0.00  0.00    +0.000 C 
ATOM     24  C   UNL     1      -0.968  -3.212   3.272  0.00  0.00    +0.002 C 
ATOM     25  C   UNL     1      -1.658  -1.859   3.458  0.00  0.00    +0.027 C 
ENDBRANCH  19  20
ENDBRANCH   1  15
BRANCH   1  26
ATOM     26  N   UNL     1      -2.797   1.907  -0.451  0.00  0.00    +0.397 N 
ATOM     27  H   UNL     1      -2.884   2.805   0.038  0.00  0.00    -0.079 HD
BRANCH  26  28
ATOM     28  C   UNL     1      -4.138   1.464  -0.886  0.00  0.00    -0.041 C 
BRANCH  28  29
ATOM     29  C   UNL     1      -4.062   0.107  -1.538  0.00  0.00    -0.064 A 
ATOM     30  C   UNL     1      -3.803   0.005  -2.892  0.00  0.00    +0.004 A 
ATOM     31  C   UNL     1      -3.728  -1.238  -3.489  0.00  0.00    +0.038 A 
ATOM     32  C   UNL     1      -3.923  -2.382  -2.734  0.00  0.00    +0.123 A 
ATOM     33  C   UNL     1      -4.187  -2.278  -1.379  0.00  0.00    +0.038 A 
ATOM     34  C   UNL     1      -4.257  -1.034  -0.782  0.00  0.00    +0.004 A 
ATOM     35  F   UNL     1      -3.854  -3.598  -3.318  0.00  0.00    -0.205 F 
ENDBRANCH  28  29
ENDBRANCH  26  28
BRANCH  26  36
ATOM     36  C   UNL     1      -1.918   2.083  -1.626  0.00  0.00    -0.001 C 
BRANCH  36  37
ATOM     37  C   UNL     1      -2.356   3.313  -2.378  0.00  0.00    +0.089 A 
ATOM     38  C   UNL     1      -1.867   4.555  -2.208  0.00  0.00    +0.042 A 
ATOM     39  C   UNL     1      -2.557   5.394  -3.113  0.00  0.00    +0.041 A 
ATOM     40  C   UNL     1      -3.427   4.615  -3.781  0.00  0.00    +0.195 A 
ATOM     41  O   UNL     1      -3.296   3.355  -3.336  0.00  0.00    -0.470 OA
ENDBRANCH  36  37
ENDBRANCH  26  36
ENDBRANCH   1  26
TORSDOF 8
