REMARK  Name = ZINC11999591
REMARK  9 active torsions:
REMARK  status: ('A' for Active; 'I' for Inactive)
REMARK    1  A    between atoms: C_1  and  C_2
REMARK    2  A    between atoms: C_2  and  O_3
REMARK    3  A    between atoms: O_3  and  C_4
REMARK    4  A    between atoms: C_7  and  C_10
REMARK    5  A    between atoms: C_10  and  C_12
REMARK    6  A    between atoms: C_10  and  N_58
REMARK    7  A    between atoms: C_12  and  N_13
REMARK    8  A    between atoms: N_13  and  S_14
REMARK    9  A    between atoms: S_14  and  C_17
REMARK                            x       y       z     vdW  Elec       q    Type
REMARK                         _______ _______ _______ _____ _____    ______ ____
ROOT
ATOM      1  C   UNL     1       5.329  -0.398  -3.773  0.00  0.00    -0.022 C 
ENDROOT
BRANCH   1   5
ATOM      2  C   UNL     1       5.878   2.907  -6.427  0.00  0.00    +0.121 A 
ATOM      3  C   UNL     1       4.746   2.838  -5.627  0.00  0.00    +0.046 A 
ATOM      4  C   UNL     1       4.571   1.769  -4.770  0.00  0.00    +0.005 A 
ATOM      5  C   UNL     1       5.522   0.768  -4.709  0.00  0.00    -0.059 A 
ATOM      6  C   UNL     1       6.653   0.836  -5.501  0.00  0.00    +0.005 A 
ATOM      7  C   UNL     1       6.831   1.900  -6.364  0.00  0.00    +0.046 A 
BRANCH   2   8
ATOM      8  O   UNL     1       6.053   3.958  -7.271  0.00  0.00    -0.492 OA
BRANCH   8  10
ATOM      9  C   UNL     1       7.263   5.213  -8.944  0.00  0.00    +0.048 C 
ATOM     10  C   UNL     1       7.241   3.962  -8.064  0.00  0.00    +0.225 C 
ENDBRANCH   8  10
ENDBRANCH   2   8
ENDBRANCH   1   5
BRANCH   1  15
ATOM     11  C   UNL     1       3.191  -0.764  -4.880  0.00  0.00    -0.078 C 
ATOM     12  C   UNL     1       2.668  -1.772  -5.933  0.00  0.00    -0.020 C 
ATOM     13  C   UNL     1       3.965  -2.260  -6.619  0.00  0.00    -0.020 C 
ATOM     14  C   UNL     1       5.087  -1.977  -5.603  0.00  0.00    -0.078 C 
ATOM     15  N   UNL     1       4.436  -1.402  -4.425  0.00  0.00    +0.385 N 
ATOM     16  H   UNL     1       4.218  -2.146  -3.752  0.00  0.00    -0.081 HD
ENDBRANCH   1  15
BRANCH   1  17
ATOM     17  C   UNL     1       4.691   0.094  -2.472  0.00  0.00    +0.095 C 
BRANCH  17  18
ATOM     18  N   UNL     1       4.393  -1.053  -1.610  0.00  0.00    -0.191 NA
ATOM     19  H   UNL     1       4.398  -1.950  -1.978  0.00  0.00    +0.148 HD
BRANCH  18  20
ATOM     20  S   UNL     1       4.048  -0.817  -0.008  0.00  0.00    +0.058 S 
ATOM     21  O   UNL     1       5.063   0.036   0.504  0.00  0.00    -0.153 OA
ATOM     22  O   UNL     1       3.782  -2.099   0.543  0.00  0.00    -0.153 OA
BRANCH  20  23
ATOM     23  C   UNL     1       2.539   0.089   0.073  0.00  0.00    +0.109 A 
ATOM     24  C   UNL     1       1.333  -0.583   0.123  0.00  0.00    +0.032 A 
ATOM     25  C   UNL     1       0.147   0.125   0.184  0.00  0.00    +0.051 A 
ATOM     26  C   UNL     1       0.165   1.512   0.195  0.00  0.00    +0.162 A 
ATOM     27  C   UNL     1       1.379   2.187   0.148  0.00  0.00    +0.164 A 
ATOM     28  C   UNL     1       2.565   1.471   0.085  0.00  0.00    +0.078 A 
ATOM     29  O   UNL     1       1.419   3.548   0.166  0.00  0.00    -0.485 OA
ATOM     30  C   UNL     1       0.202   4.232  -0.148  0.00  0.00    +0.270 C 
ATOM     31  C   UNL     1      -0.938   3.571   0.637  0.00  0.00    +0.270 C 
ATOM     32  O   UNL     1      -1.011   2.195   0.246  0.00  0.00    -0.485 OA
ENDBRANCH  20  23
ENDBRANCH  18  20
ENDBRANCH  17  18
ENDBRANCH   1  17
TORSDOF 8
