REMARK  Name = ZINC20905266
REMARK  6 active torsions:
REMARK  status: ('A' for Active; 'I' for Inactive)
REMARK    1  A    between atoms: C_10  and  C_11
REMARK    2  A    between atoms: N_12  and  N_13
REMARK    3  A    between atoms: C_16  and  S_19
REMARK    4  A    between atoms: S_19  and  C_20
REMARK    5  A    between atoms: C_20  and  C_21
REMARK    6  A    between atoms: C_21  and  C_23
REMARK                            x       y       z     vdW  Elec       q    Type
REMARK                         _______ _______ _______ _____ _____    ______ ____
ROOT
ATOM      1  N   UNL     1       1.159  -2.040  -0.028  0.00  0.00    -0.205 N 
ATOM      2  C   UNL     1       2.363  -2.717  -0.161  0.00  0.00    +0.232 A 
ATOM      3  N   UNL     1       2.522  -4.074  -0.207  0.00  0.00    -0.186 NA
ATOM      4  C   UNL     1       3.854  -4.340  -0.344  0.00  0.00    +0.210 A 
ATOM      5  N   UNL     1       4.494  -3.195  -0.383  0.00  0.00    -0.144 NA
ATOM      6  N   UNL     1       3.548  -2.167  -0.272  0.00  0.00    -0.245 N 
ATOM      7  H   UNL     1       0.218  -2.604   0.052  0.00  0.00    +0.177 HD
ATOM      8  H   UNL     1       3.649  -1.072  -0.265  0.00  0.00    +0.192 HD
ENDROOT
BRANCH   1  10
ATOM      9  C   UNL     1       0.015  -0.006   0.129  0.00  0.00    +0.139 C 
ATOM     10  N   UNL     1       1.143  -0.640   0.004  0.00  0.00    -0.188 NA
BRANCH   9  20
ATOM     11  C   UNL     1       3.573   3.727   0.201  0.00  0.00    +0.001 A 
ATOM     12  C   UNL     1       3.631   2.336   0.169  0.00  0.00    +0.001 A 
ATOM     13  C   UNL     1       2.491   1.588   0.156  0.00  0.00    +0.009 A 
ATOM     14  C   UNL     1       1.245   2.225   0.175  0.00  0.00    -0.009 A 
ATOM     15  C   UNL     1       1.183   3.640   0.208  0.00  0.00    -0.017 A 
ATOM     16  C   UNL     1       2.378   4.379   0.221  0.00  0.00    +0.008 A 
ATOM     17  C   UNL     1      -0.070   4.276   0.228  0.00  0.00    +0.008 A 
ATOM     18  C   UNL     1      -1.219   3.547   0.217  0.00  0.00    +0.001 A 
ATOM     19  C   UNL     1      -1.206   2.160   0.178  0.00  0.00    +0.010 A 
ATOM     20  C   UNL     1      -0.003   1.464   0.163  0.00  0.00    +0.002 A 
ENDBRANCH   9  20
ENDBRANCH   1  10
BRANCH   4  21
ATOM     21  S   UNL     1       4.586  -5.939  -0.453  0.00  0.00    -0.077 S 
BRANCH  21  22
ATOM     22  C   UNL     1       6.329  -5.477  -0.615  0.00  0.00    +0.152 C 
BRANCH  22  23
ATOM     23  C   UNL     1       7.170  -6.722  -0.726  0.00  0.00    +0.147 C 
ATOM     24  O   UNL     1       6.646  -7.809  -0.699  0.00  0.00    -0.296 OA
BRANCH  23  25
ATOM     25  C   UNL     1       8.666  -6.610  -0.872  0.00  0.00    +0.062 C 
ATOM     26  C   UNL     1       8.996  -5.741  -2.087  0.00  0.00    +0.000 C 
ATOM     27  C   UNL     1      10.515  -5.627  -2.235  0.00  0.00    +0.007 C 
ATOM     28  C   UNL     1      11.115  -7.022  -2.426  0.00  0.00    -0.010 C 
ATOM     29  C   UNL     1      10.526  -7.662  -3.685  0.00  0.00    +0.007 C 
ATOM     30  C   UNL     1       9.008  -7.775  -3.538  0.00  0.00    -0.010 C 
ATOM     31  C   UNL     1       8.408  -6.381  -3.346  0.00  0.00    +0.007 C 
ATOM     32  C   UNL     1       8.677  -8.644  -2.322  0.00  0.00    +0.007 C 
ATOM     33  C   UNL     1       9.266  -8.004  -1.063  0.00  0.00    +0.000 C 
ATOM     34  C   UNL     1      10.784  -7.890  -1.211  0.00  0.00    +0.007 C 
ENDBRANCH  23  25
ENDBRANCH  22  23
ENDBRANCH  21  22
ENDBRANCH   4  21
TORSDOF 6
