REMARK  Name = ZINC13023236
REMARK  9 active torsions:
REMARK  status: ('A' for Active; 'I' for Inactive)
REMARK    1  A    between atoms: C_1  and  C_2
REMARK    2  A    between atoms: C_4  and  C_35
REMARK    3  A    between atoms: C_7  and  C_14
REMARK    4  A    between atoms: C_14  and  C_16
REMARK    5  A    between atoms: C_14  and  N_66
REMARK    6  A    between atoms: N_20  and  C_21
REMARK    7  A    between atoms: C_21  and  C_22
REMARK    8  A    between atoms: C_22  and  C_23
REMARK    9  A    between atoms: C_31  and  C_34
REMARK                            x       y       z     vdW  Elec       q    Type
REMARK                         _______ _______ _______ _____ _____    ______ ____
ROOT
ATOM      1  C   UNL     1       4.969  -2.783  -0.062  0.00  0.00    +0.039 C 
ENDROOT
BRANCH   1   8
ATOM      2  C   UNL     1      -2.367   0.069  -1.356  0.00  0.00    +0.044 C 
ATOM      3  C   UNL     1      -1.003  -0.571  -1.322  0.00  0.00    -0.048 A 
ATOM      4  C   UNL     1      -0.591  -1.369  -2.381  0.00  0.00    +0.007 A 
ATOM      5  C   UNL     1       0.640  -1.961  -2.367  0.00  0.00    -0.041 A 
ATOM      6  C   UNL     1       1.492  -1.764  -1.275  0.00  0.00    +0.002 A 
ATOM      7  C   UNL     1       2.817  -2.386  -1.227  0.00  0.00    +0.018 A 
ATOM      8  C   UNL     1       3.600  -2.159  -0.143  0.00  0.00    +0.011 A 
ATOM      9  C   UNL     1       3.137  -1.339   0.909  0.00  0.00    +0.251 A 
ATOM     10  O   UNL     1       3.857  -1.148   1.873  0.00  0.00    -0.268 OA
ATOM     11  N   UNL     1       1.922  -0.765   0.874  0.00  0.00    -0.322 N 
ATOM     12  H   UNL     1       1.635  -0.208   1.614  0.00  0.00    +0.169 HD
ATOM     13  C   UNL     1       1.078  -0.956  -0.200  0.00  0.00    +0.050 A 
ATOM     14  C   UNL     1      -0.179  -0.362  -0.236  0.00  0.00    +0.029 A 
ATOM     15  C   UNL     1       1.077  -2.825  -3.522  0.00  0.00    +0.044 C 
ENDBRANCH   1   8
BRANCH   1  22
ATOM     16  C   UNL     1       3.944  -4.603   1.162  0.00  0.00    -0.077 C 
ATOM     17  C   UNL     1       3.974  -5.373   2.484  0.00  0.00    -0.015 C 
ATOM     18  C   UNL     1       5.316  -6.098   2.617  0.00  0.00    -0.018 C 
ATOM     19  C   UNL     1       6.451  -5.073   2.534  0.00  0.00    -0.015 C 
ATOM     20  C   UNL     1       6.349  -4.312   1.210  0.00  0.00    -0.077 C 
ATOM     21  C   UNL     1       5.377  -6.819   3.965  0.00  0.00    +0.007 C 
ATOM     22  N   UNL     1       5.045  -3.617   1.155  0.00  0.00    +0.389 N 
ATOM     23  H   UNL     1       4.956  -3.012   1.980  0.00  0.00    -0.080 HD
ENDBRANCH   1  22
BRANCH   1  24
ATOM     24  C   UNL     1       5.214  -3.618  -1.292  0.00  0.00    +0.142 A 
ATOM     25  N   UNL     1       4.697  -4.794  -1.556  0.00  0.00    -0.115 NA
ATOM     26  N   UNL     1       5.148  -5.179  -2.700  0.00  0.00    -0.023 NA
ATOM     27  N   UNL     1       5.939  -4.279  -3.173  0.00  0.00    -0.044 NA
ATOM     28  N   UNL     1       6.001  -3.299  -2.337  0.00  0.00    -0.230 N 
BRANCH  28  29
ATOM     29  C   UNL     1       6.784  -2.071  -2.492  0.00  0.00    +0.152 C 
BRANCH  29  30
ATOM     30  C   UNL     1       8.178  -2.275  -1.895  0.00  0.00    +0.058 C 
BRANCH  30  31
ATOM     31  C   UNL     1       8.983  -1.012  -2.055  0.00  0.00    -0.046 A 
ATOM     32  C   UNL     1       9.755  -0.823  -3.186  0.00  0.00    +0.004 A 
ATOM     33  C   UNL     1      10.490   0.338  -3.336  0.00  0.00    +0.000 A 
ATOM     34  C   UNL     1      10.462   1.306  -2.349  0.00  0.00    +0.000 A 
ATOM     35  C   UNL     1       9.695   1.114  -1.215  0.00  0.00    +0.000 A 
ATOM     36  C   UNL     1       8.955  -0.044  -1.068  0.00  0.00    +0.004 A 
ENDBRANCH  30  31
ENDBRANCH  29  30
ENDBRANCH  28  29
ENDBRANCH   1  24
TORSDOF 6
