REMARK  Name = ZINC45861219
REMARK  6 active torsions:
REMARK  status: ('A' for Active; 'I' for Inactive)
REMARK    1  A    between atoms: C_4  and  C_7
REMARK    2  A    between atoms: C_9  and  C_13
REMARK    3  A    between atoms: N_15  and  C_16
REMARK    4  A    between atoms: C_16  and  C_17
REMARK    5  A    between atoms: C_17  and  C_19
REMARK    6  A    between atoms: C_17  and  N_24
REMARK                            x       y       z     vdW  Elec       q    Type
REMARK                         _______ _______ _______ _____ _____    ______ ____
ROOT
ATOM      1  C   UNL     1       6.024  -3.716  -1.101  0.00  0.00    +0.264 C 
ATOM      2  O   UNL     1       5.510  -4.766  -1.437  0.00  0.00    -0.268 OA
ATOM      3  N   UNL     1       7.304  -3.697  -0.681  0.00  0.00    -0.311 N 
ATOM      4  H   UNL     1       7.714  -2.860  -0.413  0.00  0.00    +0.149 HD
ENDROOT
BRANCH   1   7
ATOM      5  C   UNL     1       3.615  -0.998  -1.449  0.00  0.00    +0.066 A 
ATOM      6  C   UNL     1       3.902  -2.329  -1.569  0.00  0.00    +0.062 A 
ATOM      7  C   UNL     1       5.245  -2.462  -1.153  0.00  0.00    +0.147 A 
ATOM      8  N   UNL     1       5.674  -1.261  -0.820  0.00  0.00    -0.169 NA
ATOM      9  N   UNL     1       4.746  -0.390  -0.989  0.00  0.00    -0.276 N 
ATOM     10  H   UNL     1       4.835   0.560  -0.813  0.00  0.00    +0.189 HD
BRANCH   5  14
ATOM     11  C   UNL     1      -0.085   0.886  -2.352  0.00  0.00    +0.000 A 
ATOM     12  C   UNL     1       0.978   1.642  -1.890  0.00  0.00    +0.001 A 
ATOM     13  C   UNL     1       2.182   1.036  -1.595  0.00  0.00    +0.010 A 
ATOM     14  C   UNL     1       2.326  -0.342  -1.763  0.00  0.00    -0.000 A 
ATOM     15  C   UNL     1       1.250  -1.098  -2.229  0.00  0.00    +0.010 A 
ATOM     16  C   UNL     1       0.052  -0.480  -2.521  0.00  0.00    +0.001 A 
ENDBRANCH   5  14
ENDBRANCH   1   7
BRANCH   3  17
ATOM     17  C   UNL     1       8.077  -4.941  -0.629  0.00  0.00    +0.097 C 
BRANCH  17  18
ATOM     18  C   UNL     1       9.525  -4.626  -0.247  0.00  0.00    +0.016 C 
BRANCH  18  19
ATOM     19  N   UNL     1      10.086  -3.666  -1.207  0.00  0.00    +0.387 N 
ATOM     20  C   UNL     1       9.948  -4.198  -2.568  0.00  0.00    -0.078 C 
ATOM     21  C   UNL     1      10.457  -3.167  -3.577  0.00  0.00    -0.019 C 
ATOM     22  C   UNL     1      11.932  -2.868  -3.293  0.00  0.00    -0.004 C 
ATOM     23  C   UNL     1      12.074  -2.384  -1.847  0.00  0.00    -0.019 C 
ATOM     24  C   UNL     1      11.505  -3.443  -0.901  0.00  0.00    -0.078 C 
ATOM     25  H   UNL     1       9.588  -2.792  -1.137  0.00  0.00    -0.081 HD
ENDBRANCH  18  19
BRANCH  18  26
ATOM     26  C   UNL     1      10.338  -5.894  -0.272  0.00  0.00    +0.093 A 
ATOM     27  C   UNL     1      10.817  -6.543   0.805  0.00  0.00    +0.043 A 
ATOM     28  C   UNL     1      11.515  -7.675   0.325  0.00  0.00    +0.041 A 
ATOM     29  C   UNL     1      11.422  -7.649  -1.017  0.00  0.00    +0.195 A 
ATOM     30  O   UNL     1      10.703  -6.572  -1.372  0.00  0.00    -0.469 OA
ENDBRANCH  18  26
ENDBRANCH  17  18
ENDBRANCH   3  17
TORSDOF 6
