REMARK  Name = ZINC60371525
REMARK  11 active torsions:
REMARK  status: ('A' for Active; 'I' for Inactive)
REMARK    1  A    between atoms: C_1  and  C_2
REMARK    2  A    between atoms: N_5  and  C_8
REMARK    3  A    between atoms: C_8  and  C_10
REMARK    4  A    between atoms: C_8  and  C_29
REMARK    5  A    between atoms: C_10  and  N_11
REMARK    6  A    between atoms: C_12  and  C_14
REMARK    7  A    between atoms: C_14  and  C_15
REMARK    8  A    between atoms: C_15  and  N_16
REMARK    9  A    between atoms: C_17  and  C_19
REMARK   10  A    between atoms: C_29  and  C_30
REMARK   11  A    between atoms: C_29  and  C_31
REMARK                            x       y       z     vdW  Elec       q    Type
REMARK                         _______ _______ _______ _____ _____    ______ ____
ROOT
ATOM      1  N   UNL     1       1.687  -3.626  -2.381  0.00  0.00    -0.317 N 
ATOM      2  C   UNL     1       2.214  -3.723  -3.618  0.00  0.00    +0.214 C 
ATOM      3  O   UNL     1       3.261  -4.311  -3.787  0.00  0.00    -0.276 OA
ATOM      4  H   UNL     1       0.850  -3.156  -2.247  0.00  0.00    +0.149 HD
ENDROOT
BRANCH   1   5
ATOM      5  C   UNL     1       2.380  -4.230  -1.241  0.00  0.00    +0.089 C 
BRANCH   5   6
ATOM      6  C   UNL     1       1.688  -3.809   0.057  0.00  0.00    -0.049 C 
BRANCH   6  11
ATOM      7  C   UNL     1       3.334   1.651   0.064  0.00  0.00    +0.007 C 
ATOM      8  C   UNL     1       3.119   0.187  -0.323  0.00  0.00    -0.018 C 
ATOM      9  C   UNL     1       3.701  -0.721   0.764  0.00  0.00    -0.016 C 
ATOM     10  C   UNL     1       3.413  -2.182   0.410  0.00  0.00    -0.078 C 
ATOM     11  N   UNL     1       1.962  -2.390   0.321  0.00  0.00    +0.383 N 
ATOM     12  C   UNL     1       1.408  -1.576  -0.768  0.00  0.00    -0.078 C 
ATOM     13  C   UNL     1       1.619  -0.092  -0.459  0.00  0.00    -0.016 C 
ATOM     14  H   UNL     1       1.531  -2.122   1.192  0.00  0.00    -0.081 HD
ENDBRANCH   6  11
BRANCH   6  15
ATOM     15  C   UNL     1       2.220  -4.655   1.216  0.00  0.00    -0.029 C 
ATOM     16  C   UNL     1       1.521  -4.240   2.513  0.00  0.00    +0.005 C 
ATOM     17  C   UNL     1       1.943  -6.133   0.938  0.00  0.00    +0.005 C 
ENDBRANCH   6  15
ENDBRANCH   5   6
ENDBRANCH   1   5
BRANCH   2  18
ATOM     18  C   UNL     1       1.501  -3.102  -4.792  0.00  0.00    +0.114 C 
BRANCH  18  19
ATOM     19  C   UNL     1       2.304  -3.355  -6.069  0.00  0.00    +0.114 C 
BRANCH  19  20
ATOM     20  N   UNL     1       1.612  -2.751  -7.210  0.00  0.00    -0.310 N 
ATOM     21  C   UNL     1       2.138  -2.848  -8.447  0.00  0.00    +0.265 C 
ATOM     22  O   UNL     1       3.188  -3.437  -8.616  0.00  0.00    -0.268 OA
ATOM     23  H   UNL     1       0.774  -2.281  -7.075  0.00  0.00    +0.149 HD
BRANCH  21  24
ATOM     24  C   UNL     1       1.441  -2.240  -9.594  0.00  0.00    +0.154 A 
ATOM     25  C   UNL     1       1.876  -2.255 -10.997  0.00  0.00    +0.032 A 
ATOM     26  C   UNL     1       2.963  -2.775 -11.693  0.00  0.00    +0.012 A 
ATOM     27  C   UNL     1       3.050  -2.594 -13.046  0.00  0.00    +0.001 A 
ATOM     28  C   UNL     1       2.062  -1.895 -13.728  0.00  0.00    +0.002 A 
ATOM     29  C   UNL     1       0.979  -1.372 -13.058  0.00  0.00    +0.028 A 
ATOM     30  C   UNL     1       0.871  -1.546 -11.682  0.00  0.00    +0.066 A 
ATOM     31  N   UNL     1      -0.043  -1.171 -10.732  0.00  0.00    -0.276 N 
ATOM     32  N   UNL     1       0.302  -1.582  -9.566  0.00  0.00    -0.168 NA
ATOM     33  H   UNL     1      -0.850  -0.664 -10.918  0.00  0.00    +0.189 HD
ENDBRANCH  21  24
ENDBRANCH  19  20
ENDBRANCH  18  19
ENDBRANCH   2  18
TORSDOF 8
