REMARK  Name = ZINC22699854
REMARK  7 active torsions:
REMARK  status: ('A' for Active; 'I' for Inactive)
REMARK    1  A    between atoms: C_3  and  N_18
REMARK    2  A    between atoms: C_5  and  S_7
REMARK    3  A    between atoms: S_7  and  N_10
REMARK    4  A    between atoms: C_19  and  C_21
REMARK    5  A    between atoms: C_21  and  C_22
REMARK    6  A    between atoms: C_22  and  C_23
REMARK    7  A    between atoms: C_25  and  C_28
REMARK                            x       y       z     vdW  Elec       q    Type
REMARK                         _______ _______ _______ _____ _____    ______ ____
ROOT
ATOM      1  C   UNL     1      -0.013   1.375  -0.179  0.00  0.00    +0.004 A 
ATOM      2  C   UNL     1       1.175   2.081  -0.182  0.00  0.00    +0.023 A 
ATOM      3  C   UNL     1       2.380   1.411  -0.018  0.00  0.00    +0.035 A 
ATOM      4  C   UNL     1       2.387   0.032   0.148  0.00  0.00    +0.052 A 
ATOM      5  C   UNL     1       1.197  -0.668   0.150  0.00  0.00    +0.114 A 
ATOM      6  C   UNL     1      -0.002   0.002  -0.014  0.00  0.00    +0.029 A 
ENDROOT
BRANCH   3   7
ATOM      7  N   UNL     1       3.584   2.123  -0.021  0.00  0.00    -0.285 N 
ATOM      8  C   UNL     1       3.628   3.375   0.478  0.00  0.00    +0.218 C 
ATOM      9  O   UNL     1       2.649   3.848   1.016  0.00  0.00    -0.275 OA
ATOM     10  H   UNL     1       4.387   1.717  -0.382  0.00  0.00    +0.155 HD
BRANCH   8  11
ATOM     11  C   UNL     1       4.893   4.186   0.368  0.00  0.00    +0.105 C 
BRANCH  11  12
ATOM     12  C   UNL     1       4.677   5.558   1.008  0.00  0.00    +0.108 C 
BRANCH  12  13
ATOM     13  C   UNL     1       5.942   6.369   0.898  0.00  0.00    +0.228 A 
ATOM     14  N   UNL     1       6.252   7.165  -0.085  0.00  0.00    -0.191 NA
ATOM     15  C   UNL     1       7.453   7.730   0.140  0.00  0.00    +0.209 A 
ATOM     16  N   UNL     1       7.916   7.285   1.285  0.00  0.00    -0.056 NA
ATOM     17  O   UNL     1       6.934   6.397   1.798  0.00  0.00    -0.338 OA
BRANCH  15  18
ATOM     18  C   UNL     1       8.137   8.688  -0.753  0.00  0.00    +0.060 A 
ATOM     19  C   UNL     1       9.354   9.297  -0.596  0.00  0.00    +0.019 A 
ATOM     20  C   UNL     1       9.791  10.163  -1.572  0.00  0.00    +0.008 A 
ATOM     21  C   UNL     1       9.006  10.389  -2.658  0.00  0.00    +0.046 A 
ATOM     22  S   UNL     1       7.595   9.348  -2.321  0.00  0.00    -0.093 S 
ENDBRANCH  15  18
ENDBRANCH  12  13
ENDBRANCH  11  12
ENDBRANCH   8  11
ENDBRANCH   3   7
BRANCH   5  23
ATOM     23  S   UNL     1       1.206  -2.417   0.360  0.00  0.00    +0.100 S 
ATOM     24  O   UNL     1       0.003  -2.902  -0.221  0.00  0.00    -0.146 OA
ATOM     25  O   UNL     1       2.487  -2.870  -0.054  0.00  0.00    -0.146 OA
BRANCH  23  26
ATOM     26  N   UNL     1       1.100  -2.716   1.985  0.00  0.00    -0.118 NA
ATOM     27  C   UNL     1       1.087  -3.934   2.420  0.00  0.00    +0.117 C 
ATOM     28  C   UNL     1       0.983  -4.212   3.917  0.00  0.00    +0.073 C 
ATOM     29  C   UNL     1      -0.384  -4.811   4.170  0.00  0.00    +0.008 C 
ATOM     30  C   UNL     1      -0.416  -6.334   4.029  0.00  0.00    +0.002 C 
ATOM     31  C   UNL     1       0.365  -6.841   2.816  0.00  0.00    +0.019 C 
ATOM     32  C   UNL     1       0.139  -6.011   1.571  0.00  0.00    +0.102 C 
ATOM     33  N   UNL     1       1.157  -4.939   1.570  0.00  0.00    -0.331 N 
ATOM     34  H   UNL     1       1.888  -4.979   0.934  0.00  0.00    +0.147 HD
ENDBRANCH  23  26
ENDBRANCH   5  23
TORSDOF 7
