REMARK  Name = ZINC09303116
REMARK  10 active torsions:
REMARK  status: ('A' for Active; 'I' for Inactive)
REMARK    1  A    between atoms: C_1  and  C_2
REMARK    2  A    between atoms: C_5  and  N_9
REMARK    3  A    between atoms: C_6  and  C_8
REMARK    4  A    between atoms: C_10  and  C_12
REMARK    5  A    between atoms: C_12  and  C_13
REMARK    6  A    between atoms: C_16  and  S_19
REMARK    7  A    between atoms: N_17  and  C_18
REMARK    8  A    between atoms: S_19  and  C_20
REMARK    9  A    between atoms: C_20  and  C_21
REMARK   10  A    between atoms: N_23  and  C_24
REMARK                            x       y       z     vdW  Elec       q    Type
REMARK                         _______ _______ _______ _____ _____    ______ ____
ROOT
ATOM      1  C   UNL     1      -0.341   2.147   3.195  0.00  0.00    +0.143 A 
ATOM      2  N   UNL     1      -1.386   2.575   3.845  0.00  0.00    -0.133 NA
ATOM      3  N   UNL     1      -2.423   2.537   3.087  0.00  0.00    -0.122 NA
ATOM      4  C   UNL     1      -2.092   2.083   1.900  0.00  0.00    +0.192 A 
ATOM      5  N   UNL     1      -0.753   1.815   1.934  0.00  0.00    -0.309 N 
ATOM      6  C   UNL     1       0.071   1.287   0.844  0.00  0.00    +0.152 C 
ENDROOT
BRANCH   1   7
ATOM      7  C   UNL     1       1.062   2.037   3.734  0.00  0.00    +0.172 C 
BRANCH   7   9
ATOM      8  N   UNL     1       3.082   3.458   3.874  0.00  0.00    -0.285 N 
ATOM      9  C   UNL     1       1.801   3.325   3.476  0.00  0.00    +0.225 C 
ATOM     10  O   UNL     1       1.243   4.241   2.911  0.00  0.00    -0.275 OA
ATOM     11  H   UNL     1       3.549   2.704   4.267  0.00  0.00    +0.155 HD
BRANCH   8  16
ATOM     12  C   UNL     1       5.744   8.428   3.248  0.00  0.00    +0.044 C 
ATOM     13  C   UNL     1       5.037   7.107   3.414  0.00  0.00    -0.050 A 
ATOM     14  C   UNL     1       4.112   6.697   2.472  0.00  0.00    +0.005 A 
ATOM     15  C   UNL     1       3.462   5.488   2.622  0.00  0.00    +0.024 A 
ATOM     16  C   UNL     1       3.739   4.683   3.720  0.00  0.00    +0.036 A 
ATOM     17  C   UNL     1       4.665   5.101   4.666  0.00  0.00    -0.029 A 
ATOM     18  C   UNL     1       5.316   6.309   4.508  0.00  0.00    +0.008 A 
ATOM     19  C   UNL     1       4.964   4.234   5.862  0.00  0.00    +0.045 C 
ENDBRANCH   8  16
ENDBRANCH   7   9
ENDBRANCH   1   7
BRANCH   4  20
ATOM     20  S   UNL     1      -3.171   1.859   0.525  0.00  0.00    -0.077 S 
BRANCH  20  21
ATOM     21  C   UNL     1      -4.729   2.422   1.254  0.00  0.00    +0.173 C 
BRANCH  21  22
ATOM     22  C   UNL     1      -5.829   2.317   0.229  0.00  0.00    +0.228 C 
ATOM     23  O   UNL     1      -5.584   1.902  -0.884  0.00  0.00    -0.275 OA
ATOM     24  N   UNL     1      -7.086   2.683   0.550  0.00  0.00    -0.284 N 
ATOM     25  H   UNL     1      -7.296   2.953   1.458  0.00  0.00    +0.155 HD
BRANCH  24  26
ATOM     26  C   UNL     1      -8.088   2.675  -0.427  0.00  0.00    +0.047 A 
ATOM     27  C   UNL     1      -8.080   1.709  -1.424  0.00  0.00    +0.024 A 
ATOM     28  C   UNL     1      -9.072   1.701  -2.385  0.00  0.00    +0.002 A 
ATOM     29  C   UNL     1     -10.069   2.660  -2.360  0.00  0.00    +0.001 A 
ATOM     30  C   UNL     1     -10.078   3.627  -1.372  0.00  0.00    +0.017 A 
ATOM     31  C   UNL     1      -9.090   3.638  -0.405  0.00  0.00    +0.039 A 
ATOM     32 BR   UNL     1      -9.102   4.961   0.946  0.00  0.00    -0.048 Br
ENDBRANCH  24  26
ENDBRANCH  21  22
ENDBRANCH  20  21
ENDBRANCH   4  20
TORSDOF 7
