REMARK  Name = ZINC35432253
REMARK  9 active torsions:
REMARK  status: ('A' for Active; 'I' for Inactive)
REMARK    1  A    between atoms: C_1  and  C_2
REMARK    2  A    between atoms: C_5  and  N_9
REMARK    3  A    between atoms: C_6  and  C_8
REMARK    4  A    between atoms: C_10  and  C_12
REMARK    5  A    between atoms: C_12  and  S_13
REMARK    6  A    between atoms: S_13  and  C_14
REMARK    7  A    between atoms: C_25  and  C_27
REMARK    8  A    between atoms: N_30  and  C_31
REMARK    9  A    between atoms: C_31  and  C_32
REMARK                            x       y       z     vdW  Elec       q    Type
REMARK                         _______ _______ _______ _____ _____    ______ ____
ROOT
ATOM      1  C   UNL     1      -0.399  -8.696  -2.786  0.00  0.00    +0.173 A 
ATOM      2  N   UNL     1      -0.384  -9.225  -1.580  0.00  0.00    -0.216 NA
ATOM      3  C   UNL     1      -0.450 -10.541  -1.414  0.00  0.00    +0.117 A 
ATOM      4  C   UNL     1      -0.540 -11.428  -2.500  0.00  0.00    +0.076 A 
ATOM      5  C   UNL     1      -0.605 -12.851  -2.161  0.00  0.00    -0.020 A 
ATOM      6  C   UNL     1      -0.572 -13.168  -0.851  0.00  0.00    +0.013 A 
ATOM      7  S   UNL     1      -0.458 -11.617  -0.002  0.00  0.00    -0.072 S 
ATOM      8  C   UNL     1      -0.616 -14.542  -0.252  0.00  0.00    +0.150 C 
ATOM      9  N   UNL     1      -0.938 -15.483  -1.343  0.00  0.00    -0.297 N 
ATOM     10  C   UNL     1      -0.270 -15.274  -2.636  0.00  0.00    +0.113 C 
ATOM     11  C   UNL     1      -0.712 -13.936  -3.229  0.00  0.00    +0.056 C 
ATOM     12  C   UNL     1      -1.809 -16.495  -1.160  0.00  0.00    +0.213 C 
ATOM     13  O   UNL     1      -1.994 -17.303  -2.046  0.00  0.00    -0.276 OA
ATOM     14  C   UNL     1      -2.553 -16.623   0.144  0.00  0.00    +0.109 C 
ATOM     15  C   UNL     1      -0.555 -10.825  -3.797  0.00  0.00    +0.263 A 
ATOM     16  O   UNL     1      -0.630 -11.516  -4.799  0.00  0.00    -0.267 OA
ATOM     17  N   UNL     1      -0.489  -9.485  -3.897  0.00  0.00    -0.285 N 
ENDROOT
BRANCH   1  18
ATOM     18  S   UNL     1      -0.309  -6.946  -2.969  0.00  0.00    -0.078 S 
BRANCH  18  19
ATOM     19  C   UNL     1      -0.204  -6.332  -1.265  0.00  0.00    +0.173 C 
BRANCH  19  21
ATOM     20  N   UNL     1      -0.035  -4.147  -0.117  0.00  0.00    -0.285 N 
ATOM     21  C   UNL     1      -0.121  -4.827  -1.277  0.00  0.00    +0.227 C 
ATOM     22  O   UNL     1      -0.132  -4.228  -2.332  0.00  0.00    -0.275 OA
ATOM     23  H   UNL     1       0.041  -4.628   0.723  0.00  0.00    +0.155 HD
BRANCH  20  28
ATOM     24  C   UNL     1      -0.112   1.525  -0.140  0.00  0.00    +0.044 C 
ATOM     25  C   UNL     1      -0.091   0.018  -0.134  0.00  0.00    -0.050 A 
ATOM     26  C   UNL     1       0.519  -0.668  -1.168  0.00  0.00    +0.005 A 
ATOM     27  C   UNL     1       0.539  -2.049  -1.165  0.00  0.00    +0.024 A 
ATOM     28  C   UNL     1      -0.053  -2.748  -0.122  0.00  0.00    +0.036 A 
ATOM     29  C   UNL     1      -0.665  -2.057   0.915  0.00  0.00    -0.029 A 
ATOM     30  C   UNL     1      -0.678  -0.675   0.909  0.00  0.00    +0.008 A 
ATOM     31  C   UNL     1      -1.309  -2.812   2.049  0.00  0.00    +0.045 C 
ENDBRANCH  20  28
ENDBRANCH  19  21
ENDBRANCH  18  19
ENDBRANCH   1  18
BRANCH  17  32
ATOM     32  C   UNL     1      -0.510  -8.860  -5.222  0.00  0.00    +0.159 C 
BRANCH  32  33
ATOM     33  C   UNL     1       0.922  -8.723  -5.743  0.00  0.00    +0.138 C 
ATOM     34  C   UNL     1       0.921  -7.958  -7.084  0.00  0.00    +0.035 C 
ATOM     35  C   UNL     1       1.999  -8.721  -7.900  0.00  0.00    +0.031 C 
ATOM     36  C   UNL     1       1.795 -10.166  -7.380  0.00  0.00    +0.160 C 
ATOM     37  O   UNL     1       1.478 -10.021  -5.984  0.00  0.00    -0.375 OA
ENDBRANCH  32  33
ENDBRANCH  17  32
TORSDOF 6
