REMARK  Name = ZINC34704085
REMARK  18 active torsions:
REMARK  status: ('A' for Active; 'I' for Inactive)
REMARK    1  A    between atoms: C_1  and  C_2
REMARK    2  A    between atoms: C_2  and  C_4
REMARK    3  A    between atoms: C_2  and  C_33
REMARK    4  A    between atoms: C_8  and  O_32
REMARK    5  A    between atoms: C_9  and  C_31
REMARK    6  A    between atoms: C_20  and  C_30
REMARK    7  A    between atoms: C_23  and  O_26
REMARK    8  A    between atoms: O_26  and  C_27
REMARK    9  A    between atoms: C_27  and  C_29
REMARK   10  A    between atoms: C_33  and  C_35
REMARK   11  A    between atoms: C_33  and  O_41
REMARK   12  A    between atoms: C_35  and  C_36
REMARK   13  A    between atoms: C_36  and  C_37
REMARK   14  A    between atoms: C_37  and  C_38
REMARK   15  A    between atoms: C_37  and  C_39
REMARK   16  A    between atoms: C_37  and  O_40
REMARK   17  A    between atoms: O_41  and  C_42
REMARK   18  A    between atoms: C_42  and  C_44
REMARK                            x       y       z     vdW  Elec       q    Type
REMARK                         _______ _______ _______ _____ _____    ______ ____
ROOT
ATOM      1  C   UNL     1       0.602  -0.535  -1.326  0.00  0.00    +0.004 C 
ATOM      2  C   UNL     1       0.395  -2.064  -1.507  0.00  0.00    +0.008 C 
ATOM      3  C   UNL     1      -0.198  -2.257  -2.936  0.00  0.00    +0.040 C 
ATOM      4  C   UNL     1       0.189  -0.933  -3.615  0.00  0.00    +0.093 C 
ATOM      5  C   UNL     1      -0.193   0.073  -2.499  0.00  0.00    +0.004 C 
ATOM      6  C   UNL     1       0.153   1.475  -2.897  0.00  0.00    +0.010 C 
ATOM      7  C   UNL     1      -0.316   1.828  -4.314  0.00  0.00    +0.009 C 
ATOM      8  C   UNL     1      -1.200   0.763  -4.938  0.00  0.00    +0.024 C 
ATOM      9  C   UNL     1      -0.539  -0.583  -4.873  0.00  0.00    -0.031 C 
ATOM     10  C   UNL     1      -0.553  -1.459  -5.882  0.00  0.00    +0.049 C 
ATOM     11  C   UNL     1      -1.211  -1.062  -7.139  0.00  0.00    +0.160 C 
ATOM     12  O   UNL     1      -1.777  -1.843  -7.866  0.00  0.00    -0.292 OA
ATOM     13  C   UNL     1      -1.100   0.422  -7.436  0.00  0.00    +0.070 C 
ATOM     14  C   UNL     1      -1.770   1.156  -6.282  0.00  0.00    -0.015 C 
ATOM     15  C   UNL     1      -1.716   2.661  -6.511  0.00  0.00    +0.011 C 
ATOM     16  C   UNL     1      -2.353   3.027  -7.851  0.00  0.00    +0.045 C 
ATOM     17  C   UNL     1      -1.675   2.278  -8.996  0.00  0.00    +0.177 C 
ATOM     18  C   UNL     1      -1.753   0.766  -8.766  0.00  0.00    +0.056 C 
ATOM     19  C   UNL     1      -3.244   0.739  -6.240  0.00  0.00    +0.012 C 
ATOM     20  C   UNL     1      -1.660  -0.031  -2.092  0.00  0.00    +0.014 C 
ENDROOT
BRANCH   1  22
ATOM     21  C   UNL     1       0.037   1.461   0.060  0.00  0.00    +0.011 C 
ATOM     22  C   UNL     1       0.006  -0.067  -0.001  0.00  0.00    +0.030 C 
BRANCH  22  23
ATOM     23  C   UNL     1       0.823  -0.641   1.158  0.00  0.00    +0.180 C 
BRANCH  23  24
ATOM     24  C   UNL     1       0.225  -0.172   2.486  0.00  0.00    +0.048 C 
BRANCH  24  25
ATOM     25  C   UNL     1       1.113  -0.641   3.639  0.00  0.00    +0.038 C 
BRANCH  25  26
ATOM     26  C   UNL     1       0.516  -0.172   4.967  0.00  0.00    +0.061 C 
ATOM     27  C   UNL     1      -0.887  -0.760   5.131  0.00  0.00    +0.041 C 
ATOM     28  C   UNL     1       1.404  -0.642   6.121  0.00  0.00    +0.041 C 
BRANCH  26  29
ATOM     29  O   UNL     1       0.438   1.255   4.976  0.00  0.00    -0.389 OA
ATOM     30  H   UNL     1       1.293   1.696   4.877  0.00  0.00    +0.210 HD
ENDBRANCH  26  29
ENDBRANCH  25  26
ENDBRANCH  24  25
ENDBRANCH  23  24
BRANCH  23  31
ATOM     31  O   UNL     1       0.794  -2.069   1.100  0.00  0.00    -0.461 OA
BRANCH  31  32
ATOM     32  C   UNL     1       1.865  -2.720   1.579  0.00  0.00    +0.304 C 
ATOM     33  O   UNL     1       2.797  -2.099   2.032  0.00  0.00    -0.251 OA
ATOM     34  C   UNL     1       1.906  -4.226   1.552  0.00  0.00    +0.136 C 
ENDBRANCH  31  32
ENDBRANCH  23  31
ENDBRANCH  22  23
ENDBRANCH   1  22
BRANCH   4  35
ATOM     35  O   UNL     1       1.612  -0.915  -3.848  0.00  0.00    -0.384 OA
ATOM     36  H   UNL     1       1.923  -1.618  -4.435  0.00  0.00    +0.211 HD
ENDBRANCH   4  35
BRANCH  17  37
ATOM     37  O   UNL     1      -2.329   2.601 -10.226  0.00  0.00    -0.462 OA
BRANCH  37  38
ATOM     38  C   UNL     1      -1.857   3.657 -10.908  0.00  0.00    +0.304 C 
ATOM     39  O   UNL     1      -0.920   4.287 -10.474  0.00  0.00    -0.251 OA
ATOM     40  C   UNL     1      -2.494   4.058 -12.213  0.00  0.00    +0.136 C 
ENDBRANCH  37  38
ENDBRANCH  17  37
TORSDOF 11
