REMARK  Name = ZINC36046335
REMARK  10 active torsions:
REMARK  status: ('A' for Active; 'I' for Inactive)
REMARK    1  A    between atoms: C_1  and  C_2
REMARK    2  A    between atoms: C_2  and  C_3
REMARK    3  A    between atoms: C_2  and  C_4
REMARK    4  A    between atoms: C_4  and  C_5
REMARK    5  A    between atoms: C_5  and  C_7
REMARK    6  A    between atoms: C_5  and  N_24
REMARK    7  A    between atoms: N_9  and  C_10
REMARK    8  A    between atoms: C_10  and  C_11
REMARK    9  A    between atoms: C_11  and  C_13
REMARK   10  A    between atoms: C_11  and  N_18
REMARK                            x       y       z     vdW  Elec       q    Type
REMARK                         _______ _______ _______ _____ _____    ______ ____
ROOT
ATOM      1  C   UNL     1      -0.379  -0.826   3.077  0.00  0.00    +0.234 C 
ATOM      2  O   UNL     1      -0.616   0.034   3.898  0.00  0.00    -0.274 OA
ATOM      3  N   UNL     1       0.149  -2.003   3.468  0.00  0.00    -0.315 N 
ATOM      4  H   UNL     1       0.339  -2.691   2.811  0.00  0.00    +0.149 HD
ENDROOT
BRANCH   1   5
ATOM      5  C   UNL     1      -0.676  -0.580   1.621  0.00  0.00    +0.170 C 
BRANCH   5   6
ATOM      6  N   UNL     1      -1.240   0.762   1.458  0.00  0.00    -0.230 N 
ATOM      7  C   UNL     1      -0.560   1.887   1.752  0.00  0.00    +0.227 C 
ATOM      8  O   UNL     1       0.627   1.969   1.983  0.00  0.00    -0.275 OA
ATOM      9  C   UNL     1      -1.569   3.046   1.739  0.00  0.00    +0.091 C 
ATOM     10  C   UNL     1      -2.126   3.097   3.164  0.00  0.00    +0.040 C 
ATOM     11  C   UNL     1      -3.562   3.489   3.223  0.00  0.00    -0.030 C 
ATOM     12  C   UNL     1      -4.379   3.455   2.224  0.00  0.00    -0.030 C 
ATOM     13  C   UNL     1      -3.969   3.057   0.841  0.00  0.00    +0.040 C 
ATOM     14  C   UNL     1      -2.593   2.463   0.751  0.00  0.00    +0.091 C 
ATOM     15  C   UNL     1      -2.490   0.985   0.993  0.00  0.00    +0.227 C 
ATOM     16  O   UNL     1      -3.356   0.157   0.809  0.00  0.00    -0.275 OA
ENDBRANCH   5   6
BRANCH   5  17
ATOM     17  C   UNL     1       0.617  -0.691   0.811  0.00  0.00    +0.035 C 
BRANCH  17  19
ATOM     18  C   UNL     1       1.599  -0.575  -1.484  0.00  0.00    +0.007 C 
ATOM     19  C   UNL     1       0.296  -0.579  -0.681  0.00  0.00    -0.015 C 
ATOM     20  C   UNL     1      -0.563  -1.771  -1.109  0.00  0.00    +0.007 C 
ENDBRANCH  17  19
ENDBRANCH   5  17
ENDBRANCH   1   5
BRANCH   3  21
ATOM     21  C   UNL     1       0.438  -2.243   4.884  0.00  0.00    +0.096 C 
BRANCH  21  22
ATOM     22  C   UNL     1       1.105  -3.611   5.044  0.00  0.00    +0.016 C 
BRANCH  22  23
ATOM     23  N   UNL     1       0.236  -4.648   4.473  0.00  0.00    +0.387 N 
ATOM     24  C   UNL     1      -1.089  -4.576   5.100  0.00  0.00    -0.078 C 
ATOM     25  C   UNL     1      -2.021  -5.601   4.451  0.00  0.00    -0.019 C 
ATOM     26  C   UNL     1      -1.440  -7.005   4.643  0.00  0.00    -0.004 C 
ATOM     27  C   UNL     1      -0.028  -7.048   4.051  0.00  0.00    -0.019 C 
ATOM     28  C   UNL     1       0.830  -5.969   4.714  0.00  0.00    -0.078 C 
ATOM     29  H   UNL     1       0.145  -4.499   3.479  0.00  0.00    -0.081 HD
ENDBRANCH  22  23
BRANCH  22  30
ATOM     30  C   UNL     1       1.327  -3.892   6.508  0.00  0.00    +0.093 A 
ATOM     31  C   UNL     1       2.517  -3.897   7.136  0.00  0.00    +0.043 A 
ATOM     32  C   UNL     1       2.263  -4.207   8.492  0.00  0.00    +0.041 A 
ATOM     33  C   UNL     1       0.933  -4.372   8.611  0.00  0.00    +0.195 A 
ATOM     34  O   UNL     1       0.371  -4.175   7.408  0.00  0.00    -0.469 OA
ENDBRANCH  22  30
ENDBRANCH  21  22
ENDBRANCH   3  21
TORSDOF 8
