REMARK  Name = ZINC05383709
REMARK  8 active torsions:
REMARK  status: ('A' for Active; 'I' for Inactive)
REMARK    1  A    between atoms: C_1  and  C_2
REMARK    2  A    between atoms: C_2  and  C_3
REMARK    3  A    between atoms: C_2  and  C_4
REMARK    4  A    between atoms: C_2  and  C_5
REMARK    5  A    between atoms: C_12  and  N_16
REMARK    6  A    between atoms: C_13  and  C_14
REMARK    7  A    between atoms: C_17  and  C_19
REMARK    8  A    between atoms: C_25  and  C_27
REMARK                            x       y       z     vdW  Elec       q    Type
REMARK                         _______ _______ _______ _____ _____    ______ ____
ROOT
ATOM      1  C   UNL     1      -0.726   1.578   1.271  0.00  0.00    -0.000 C 
ATOM      2  C   UNL     1      -0.013   1.086   0.008  0.00  0.00    +0.009 C 
ATOM      3  C   UNL     1      -0.749   1.591  -1.234  0.00  0.00    +0.037 C 
ATOM      4  C   UNL     1      -0.928   3.100  -1.118  0.00  0.00    -0.018 A 
ATOM      5  C   UNL     1      -0.813   3.724   0.074  0.00  0.00    -0.004 A 
ATOM      6  S   UNL     1      -1.096   5.435  -0.283  0.00  0.00    -0.077 S 
ATOM      7  C   UNL     1      -1.364   5.324  -1.991  0.00  0.00    +0.090 A 
ATOM      8  C   UNL     1      -1.228   3.967  -2.244  0.00  0.00    +0.084 A 
ATOM      9  C   UNL     1      -0.513   3.094   1.399  0.00  0.00    +0.047 C 
ENDROOT
BRANCH   1  11
ATOM     10  C   UNL     1       1.352   1.188   2.602  0.00  0.00    +0.011 C 
ATOM     11  C   UNL     1      -0.142   0.874   2.497  0.00  0.00    -0.035 C 
ATOM     12  C   UNL     1      -0.856   1.367   3.757  0.00  0.00    +0.011 C 
ATOM     13  C   UNL     1      -0.337  -0.637   2.359  0.00  0.00    +0.011 C 
ENDBRANCH   1  11
BRANCH   7  14
ATOM     14  N   UNL     1      -1.646   6.344  -2.888  0.00  0.00    -0.279 N 
ATOM     15  C   UNL     1      -1.741   7.616  -2.453  0.00  0.00    +0.221 C 
ATOM     16  O   UNL     1      -1.581   7.869  -1.278  0.00  0.00    -0.275 OA
ATOM     17  H   UNL     1      -1.774   6.142  -3.828  0.00  0.00    +0.155 HD
BRANCH  15  18
ATOM     18  C   UNL     1      -2.048   8.725  -3.427  0.00  0.00    +0.089 C 
ATOM     19  C   UNL     1      -0.954   8.781  -4.496  0.00  0.00    +0.013 C 
ATOM     20  C   UNL     1       0.397   9.046  -3.830  0.00  0.00    +0.001 C 
ATOM     21  C   UNL     1       0.345  10.381  -3.084  0.00  0.00    +0.001 C 
ATOM     22  C   UNL     1      -0.749  10.325  -2.015  0.00  0.00    +0.015 C 
ATOM     23  C   UNL     1      -2.100  10.059  -2.681  0.00  0.00    +0.114 C 
BRANCH  23  24
ATOM     24  C   UNL     1      -3.177  10.004  -1.629  0.00  0.00    +0.360 C 
ATOM     25  O   UNL     1      -3.835   9.001  -1.489  0.00  0.00    -0.246 OA
ATOM     26  O   UNL     1      -3.405  11.070  -0.846  0.00  0.00    -0.246 OA
ENDBRANCH  23  24
ENDBRANCH  15  18
ENDBRANCH   7  14
BRANCH   8  27
ATOM     27  C   UNL     1      -1.377   3.440  -3.568  0.00  0.00    +0.102 C 
ATOM     28  N   UNL     1      -1.495   3.023  -4.617  0.00  0.00    -0.191 NA
ENDBRANCH   8  27
TORSDOF 5
