REMARK  Name = ZINC45936440
REMARK  9 active torsions:
REMARK  status: ('A' for Active; 'I' for Inactive)
REMARK    1  A    between atoms: C_1  and  C_2
REMARK    2  A    between atoms: C_2  and  C_3
REMARK    3  A    between atoms: C_3  and  C_4
REMARK    4  A    between atoms: C_4  and  N_5
REMARK    5  A    between atoms: C_9  and  C_11
REMARK    6  A    between atoms: C_11  and  C_13
REMARK    7  A    between atoms: C_11  and  S_14
REMARK    8  A    between atoms: S_14  and  C_15
REMARK    9  A    between atoms: C_21  and  C_25
REMARK                            x       y       z     vdW  Elec       q    Type
REMARK                         _______ _______ _______ _____ _____    ______ ____
ROOT
ATOM      1  S   UNL     1       2.458  -7.733  -5.674  0.00  0.00    -0.073 S 
ENDROOT
BRANCH   1   2
ATOM      2  C   UNL     1       3.252  -8.096  -7.205  0.00  0.00    +0.197 A 
ATOM      3  N   UNL     1       4.076  -7.309  -7.860  0.00  0.00    -0.122 NA
ATOM      4  N   UNL     1       4.474  -7.881  -8.941  0.00  0.00    -0.127 NA
ATOM      5  C   UNL     1       3.924  -9.078  -9.040  0.00  0.00    +0.180 A 
ATOM      6  N   UNL     1       3.131  -9.247  -7.925  0.00  0.00    -0.276 N 
ATOM      7  C   UNL     1       2.429 -10.407  -7.745  0.00  0.00    +0.107 A 
ATOM      8  C   UNL     1       2.506 -11.401  -8.652  0.00  0.00    +0.073 A 
ATOM      9  C   UNL     1       3.311 -11.260  -9.798  0.00  0.00    +0.037 A 
ATOM     10  C   UNL     1       4.008 -10.109  -9.998  0.00  0.00    +0.086 A 
ATOM     11 CL   UNL     1       5.006  -9.921 -11.406  0.00  0.00    -0.080 Cl
BRANCH   8  12
ATOM     12  C   UNL     1       1.727 -12.673  -8.436  0.00  0.00    +0.419 C 
ATOM     13  F   UNL     1       0.508 -12.594  -9.119  0.00  0.00    -0.166 F 
ATOM     14  F   UNL     1       2.464 -13.759  -8.921  0.00  0.00    -0.166 F 
ATOM     15  F   UNL     1       1.485 -12.846  -7.069  0.00  0.00    -0.166 F 
ENDBRANCH   8  12
ENDBRANCH   1   2
BRANCH   1  16
ATOM     16  C   UNL     1       3.039  -6.065  -5.263  0.00  0.00    +0.137 C 
ATOM     17  C   UNL     1       4.548  -6.097  -5.011  0.00  0.00    +0.029 C 
BRANCH  16  22
ATOM     18  N   UNL     1       1.425  -2.500  -2.470  0.00  0.00    -0.299 N 
ATOM     19  C   UNL     1       1.564  -3.822  -2.692  0.00  0.00    +0.306 C 
ATOM     20  O   UNL     1       1.120  -4.622  -1.892  0.00  0.00    -0.252 OA
ATOM     21  N   UNL     1       2.195  -4.256  -3.801  0.00  0.00    -0.239 N 
ATOM     22  C   UNL     1       2.334  -5.579  -4.023  0.00  0.00    +0.233 C 
ATOM     23  O   UNL     1       1.891  -6.377  -3.225  0.00  0.00    -0.274 OA
ATOM     24  H   UNL     1       1.779  -1.861  -3.109  0.00  0.00    +0.150 HD
ATOM     25  H   UNL     1       2.549  -3.618  -4.440  0.00  0.00    +0.159 HD
BRANCH  18  26
ATOM     26  C   UNL     1       0.739  -2.027  -1.265  0.00  0.00    +0.106 C 
BRANCH  26  27
ATOM     27  C   UNL     1       0.718  -0.497  -1.257  0.00  0.00    +0.018 C 
BRANCH  27  29
ATOM     28  C   UNL     1      -0.019   1.526   0.010  0.00  0.00    +0.004 C 
ATOM     29  C   UNL     1       0.002  -0.004   0.002  0.00  0.00    -0.002 C 
ENDBRANCH  27  29
ENDBRANCH  26  27
ENDBRANCH  18  26
ENDBRANCH  16  22
ENDBRANCH   1  16
TORSDOF 7
