REMARK  Name = ZINC08745790
REMARK  12 active torsions:
REMARK  status: ('A' for Active; 'I' for Inactive)
REMARK    1  A    between atoms: C_1  and  C_2
REMARK    2  A    between atoms: C_5  and  C_8
REMARK    3  A    between atoms: C_8  and  N_9
REMARK    4  A    between atoms: C_10  and  C_34
REMARK    5  A    between atoms: C_11  and  C_15
REMARK    6  A    between atoms: C_12  and  C_14
REMARK    7  A    between atoms: N_17  and  C_18
REMARK    8  A    between atoms: C_18  and  C_19
REMARK    9  A    between atoms: C_19  and  C_21
REMARK   10  A    between atoms: C_19  and  N_68
REMARK   11  A    between atoms: C_24  and  O_27
REMARK   12  A    between atoms: O_27  and  C_28
REMARK                            x       y       z     vdW  Elec       q    Type
REMARK                         _______ _______ _______ _____ _____    ______ ____
ROOT
ATOM      1  C   UNL     1       1.318  -1.980   0.081  0.00  0.00    +0.248 C 
ATOM      2  O   UNL     1       1.691  -2.399  -0.998  0.00  0.00    -0.270 OA
ATOM      3  N   UNL     1       1.657  -2.631   1.211  0.00  0.00    -0.312 N 
ATOM      4  H   UNL     1       1.360  -2.297   2.071  0.00  0.00    +0.149 HD
ENDROOT
BRANCH   1   7
ATOM      5  N   UNL     1      -0.115   1.344   0.301  0.00  0.00    -0.263 N 
ATOM      6  C   UNL     1       0.957   0.536   0.271  0.00  0.00    +0.049 A 
ATOM      7  C   UNL     1       0.494  -0.759   0.152  0.00  0.00    +0.080 A 
ATOM      8  C   UNL     1      -0.917  -0.696   0.112  0.00  0.00    +0.072 A 
ATOM      9  N   UNL     1      -1.267   0.557   0.201  0.00  0.00    -0.175 NA
ATOM     10  C   UNL     1      -1.853  -1.871  -0.013  0.00  0.00    +0.068 C 
ATOM     11  C   UNL     1       2.400   0.964   0.351  0.00  0.00    +0.066 C 
BRANCH   5  12
ATOM     12  C   UNL     1      -0.083   2.804   0.418  0.00  0.00    +0.179 C 
BRANCH  12  17
ATOM     13  C   UNL     1      -0.214   4.292   6.000  0.00  0.00    +0.044 C 
ATOM     14  C   UNL     1      -0.180   3.904   4.544  0.00  0.00    -0.050 A 
ATOM     15  C   UNL     1       1.032   3.697   3.913  0.00  0.00    +0.004 A 
ATOM     16  C   UNL     1       1.064   3.341   2.577  0.00  0.00    +0.006 A 
ATOM     17  C   UNL     1      -0.117   3.192   1.874  0.00  0.00    -0.026 A 
ATOM     18  C   UNL     1      -1.329   3.405   2.504  0.00  0.00    +0.006 A 
ATOM     19  C   UNL     1      -1.360   3.757   3.840  0.00  0.00    +0.004 A 
ENDBRANCH  12  17
ENDBRANCH   5  12
ENDBRANCH   1   7
BRANCH   3  20
ATOM     20  C   UNL     1       2.476  -3.844   1.139  0.00  0.00    +0.094 C 
BRANCH  20  21
ATOM     21  C   UNL     1       2.849  -4.291   2.554  0.00  0.00    -0.020 C 
BRANCH  21  27
ATOM     22  C   UNL     1       2.827  -2.367   4.025  0.00  0.00    -0.049 C 
ATOM     23  C   UNL     1       3.720  -1.337   4.723  0.00  0.00    +0.141 C 
ATOM     24  O   UNL     1       4.464  -0.614   3.739  0.00  0.00    -0.383 OA
ATOM     25  C   UNL     1       5.288  -1.444   2.916  0.00  0.00    +0.141 C 
ATOM     26  C   UNL     1       4.412  -2.475   2.200  0.00  0.00    -0.049 C 
ATOM     27  N   UNL     1       3.680  -3.262   3.215  0.00  0.00    +0.388 N 
ATOM     28  H   UNL     1       4.359  -3.725   3.831  0.00  0.00    -0.081 HD
ENDBRANCH  21  27
BRANCH  21  29
ATOM     29  C   UNL     1       3.639  -5.573   2.484  0.00  0.00    -0.059 A 
ATOM     30  C   UNL     1       4.960  -5.549   2.078  0.00  0.00    +0.005 A 
ATOM     31  C   UNL     1       5.687  -6.722   2.019  0.00  0.00    +0.046 A 
ATOM     32  C   UNL     1       5.087  -7.926   2.355  0.00  0.00    +0.120 A 
ATOM     33  C   UNL     1       3.759  -7.949   2.756  0.00  0.00    +0.046 A 
ATOM     34  C   UNL     1       3.038  -6.772   2.820  0.00  0.00    +0.005 A 
BRANCH  32  35
ATOM     35  O   UNL     1       5.798  -9.082   2.291  0.00  0.00    -0.495 OA
ATOM     36  C   UNL     1       7.160  -8.984   1.869  0.00  0.00    +0.277 C 
ENDBRANCH  32  35
ENDBRANCH  21  29
ENDBRANCH  20  21
ENDBRANCH   3  20
TORSDOF 8
