REMARK  Name = ZINC06391434
REMARK  8 active torsions:
REMARK  status: ('A' for Active; 'I' for Inactive)
REMARK    1  A    between atoms: C_1  and  C_2
REMARK    2  A    between atoms: C_6  and  N_8
REMARK    3  A    between atoms: C_9  and  C_11
REMARK    4  A    between atoms: C_11  and  C_13
REMARK    5  A    between atoms: C_11  and  C_22
REMARK    6  A    between atoms: C_16  and  N_19
REMARK    7  A    between atoms: C_22  and  C_23
REMARK    8  A    between atoms: C_22  and  C_24
REMARK                            x       y       z     vdW  Elec       q    Type
REMARK                         _______ _______ _______ _____ _____    ______ ____
ROOT
ATOM      1  C   UNL     1       0.455   3.317   6.884  0.00  0.00    +0.108 C 
ENDROOT
BRANCH   1   2
ATOM      2  C   UNL     1      -0.427   3.774   8.017  0.00  0.00    -0.035 A 
ATOM      3  C   UNL     1      -1.226   4.892   7.862  0.00  0.00    +0.006 A 
ATOM      4  C   UNL     1      -2.039   5.309   8.900  0.00  0.00    +0.033 A 
ATOM      5  C   UNL     1      -2.045   4.615  10.095  0.00  0.00    +0.126 A 
ATOM      6  C   UNL     1      -1.242   3.500  10.252  0.00  0.00    +0.033 A 
ATOM      7  C   UNL     1      -0.433   3.080   9.212  0.00  0.00    +0.006 A 
BRANCH   5   8
ATOM      8  N   UNL     1      -2.912   5.064  11.208  0.00  0.00    +0.056 N 
ATOM      9  O   UNL     1      -2.917   4.453  12.261  0.00  0.00    -0.126 OA
ATOM     10  O   UNL     1      -3.619   6.046  11.070  0.00  0.00    -0.126 OA
ENDBRANCH   5   8
ENDBRANCH   1   2
BRANCH   1  12
ATOM     11  N   UNL     1      -0.016   2.011   4.837  0.00  0.00    -0.270 N 
ATOM     12  C   UNL     1      -0.397   2.986   5.686  0.00  0.00    +0.226 C 
ATOM     13  O   UNL     1      -1.425   3.597   5.486  0.00  0.00    -0.275 OA
ATOM     14  H   UNL     1       0.788   1.500   5.014  0.00  0.00    +0.156 HD
BRANCH  11  20
ATOM     15  C   UNL     1      -0.248   0.081   0.459  0.00  0.00    +0.065 C 
ATOM     16  C   UNL     1      -0.918   0.816   1.592  0.00  0.00    +0.040 A 
ATOM     17  C   UNL     1      -2.241   1.193   1.471  0.00  0.00    +0.023 A 
ATOM     18  C   UNL     1      -2.854   1.866   2.520  0.00  0.00    +0.005 A 
ATOM     19  C   UNL     1      -2.108   2.144   3.652  0.00  0.00    +0.044 A 
ATOM     20  C   UNL     1      -0.779   1.738   3.702  0.00  0.00    +0.125 A 
ATOM     21  N   UNL     1      -0.232   1.094   2.683  0.00  0.00    -0.237 NA
ENDBRANCH  11  20
ENDBRANCH   1  12
BRANCH   1  22
ATOM     22  C   UNL     1       1.437   4.432   6.519  0.00  0.00    -0.001 C 
ATOM     23  C   UNL     1       2.218   4.851   7.766  0.00  0.00    +0.008 C 
ATOM     24  C   UNL     1       2.411   3.925   5.454  0.00  0.00    +0.008 C 
ENDBRANCH   1  22
TORSDOF 5
