REMARK  Name = ZINC36602246
REMARK  11 active torsions:
REMARK  status: ('A' for Active; 'I' for Inactive)
REMARK    1  A    between atoms: C_1  and  C_2
REMARK    2  A    between atoms: C_5  and  S_8
REMARK    3  A    between atoms: S_8  and  C_11
REMARK    4  A    between atoms: C_11  and  N_12
REMARK    5  A    between atoms: C_13  and  C_15
REMARK    6  A    between atoms: C_15  and  C_17
REMARK    7  A    between atoms: C_15  and  N_23
REMARK    8  A    between atoms: N_23  and  C_24
REMARK    9  A    between atoms: C_24  and  C_25
REMARK   10  A    between atoms: C_28  and  C_30
REMARK   11  A    between atoms: C_31  and  C_33
REMARK                            x       y       z     vdW  Elec       q    Type
REMARK                         _______ _______ _______ _____ _____    ______ ____
ROOT
ATOM      1  C   UNL     1       2.726  -5.098   3.382  0.00  0.00    +0.166 C 
ENDROOT
BRANCH   1   2
ATOM      2  C   UNL     1       3.989  -4.293   3.697  0.00  0.00    +0.019 C 
ATOM      3  C   UNL     1       4.016  -3.949   5.187  0.00  0.00    +0.006 C 
ATOM      4  C   UNL     1       5.278  -3.144   5.502  0.00  0.00    +0.000 C 
ATOM      5  C   UNL     1       5.278  -1.853   4.681  0.00  0.00    +0.000 C 
ATOM      6  C   UNL     1       5.251  -2.197   3.190  0.00  0.00    +0.000 C 
ATOM      7  C   UNL     1       3.989  -3.002   2.875  0.00  0.00    +0.006 C 
ENDBRANCH   1   2
BRANCH   1   9
ATOM      8  N   UNL     1       2.483  -3.943   1.208  0.00  0.00    -0.295 N 
ATOM      9  C   UNL     1       2.492  -5.103   1.893  0.00  0.00    +0.235 C 
ATOM     10  O   UNL     1       2.313  -6.152   1.311  0.00  0.00    -0.274 OA
ATOM     11  H   UNL     1       2.688  -3.110   1.662  0.00  0.00    +0.150 HD
BRANCH   8  12
ATOM     12  C   UNL     1       2.162  -3.938  -0.221  0.00  0.00    +0.278 C 
BRANCH  12  13
ATOM     13  S   UNL     1       0.397  -3.583  -0.443  0.00  0.00    +0.013 S 
ATOM     14  O   UNL     1      -0.379  -4.387   0.436  0.00  0.00    -0.168 OA
ATOM     15  O   UNL     1       0.082  -3.513  -1.827  0.00  0.00    -0.168 OA
BRANCH  13  20
ATOM     16  C   UNL     1      -0.323   2.053   1.585  0.00  0.00    +0.044 C 
ATOM     17  C   UNL     1      -0.143   0.645   1.079  0.00  0.00    -0.050 A 
ATOM     18  C   UNL     1       0.164   0.423  -0.251  0.00  0.00    +0.005 A 
ATOM     19  C   UNL     1       0.329  -0.868  -0.716  0.00  0.00    +0.027 A 
ATOM     20  C   UNL     1       0.188  -1.937   0.149  0.00  0.00    +0.090 A 
ATOM     21  C   UNL     1      -0.118  -1.715   1.479  0.00  0.00    +0.027 A 
ATOM     22  C   UNL     1      -0.279  -0.423   1.945  0.00  0.00    +0.005 A 
ENDBRANCH  13  20
ENDBRANCH  12  13
ENDBRANCH   8  12
ENDBRANCH   1   9
BRANCH   1  23
ATOM     23  N   UNL     1       2.894  -6.474   3.855  0.00  0.00    -0.278 N 
ATOM     24  C   UNL     1       3.557  -7.371   3.098  0.00  0.00    +0.249 C 
ATOM     25  O   UNL     1       3.645  -8.527   3.462  0.00  0.00    -0.270 OA
BRANCH  24  26
ATOM     26  C   UNL     1       4.176  -6.948   1.823  0.00  0.00    +0.055 A 
ATOM     27  C   UNL     1       4.494  -7.892   0.839  0.00  0.00    +0.016 A 
ATOM     28  C   UNL     1       5.071  -7.445  -0.336  0.00  0.00    +0.020 A 
ATOM     29  C   UNL     1       5.314  -6.093  -0.499  0.00  0.00    +0.111 A 
ATOM     30  N   UNL     1       5.004  -5.226   0.446  0.00  0.00    -0.263 NA
ATOM     31  C   UNL     1       4.448  -5.602   1.579  0.00  0.00    +0.123 A 
ENDBRANCH  24  26
BRANCH  23  32
ATOM     32  C   UNL     1       2.342  -6.876   5.151  0.00  0.00    +0.183 C 
BRANCH  32  33
ATOM     33  C   UNL     1       0.934  -7.380   4.963  0.00  0.00    +0.122 A 
ATOM     34  C   UNL     1       0.581  -8.654   4.719  0.00  0.00    +0.046 A 
ATOM     35  C   UNL     1      -0.829  -8.676   4.613  0.00  0.00    +0.045 A 
ATOM     36  C   UNL     1      -1.253  -7.412   4.798  0.00  0.00    +0.102 A 
ATOM     37  O   UNL     1      -0.181  -6.633   5.016  0.00  0.00    -0.463 OA
ATOM     38  C   UNL     1      -2.687  -6.951   4.772  0.00  0.00    +0.086 C 
ENDBRANCH  32  33
ENDBRANCH  23  32
ENDBRANCH   1  23
TORSDOF 9
