REMARK  Name = ZINC08894821
REMARK  14 active torsions:
REMARK  status: ('A' for Active; 'I' for Inactive)
REMARK    1  A    between atoms: C_1  and  C_2
REMARK    2  A    between atoms: C_8  and  C_27
REMARK    3  A    between atoms: C_10  and  C_11
REMARK    4  A    between atoms: C_11  and  C_12
REMARK    5  A    between atoms: C_15  and  O_18
REMARK    6  A    between atoms: O_18  and  C_19
REMARK    7  A    between atoms: C_19  and  C_20
REMARK    8  A    between atoms: C_19  and  C_21
REMARK    9  A    between atoms: C_29  and  O_37
REMARK   10  A    between atoms: C_30  and  O_35
REMARK   11  A    between atoms: C_31  and  O_33
REMARK   12  A    between atoms: O_33  and  C_34
REMARK   13  A    between atoms: O_35  and  C_36
REMARK   14  A    between atoms: O_37  and  C_38
REMARK                            x       y       z     vdW  Elec       q    Type
REMARK                         _______ _______ _______ _____ _____    ______ ____
ROOT
ATOM      1  C   UNL     1      -0.052   1.724   0.417  0.00  0.00    +0.089 C 
ATOM      2  C   UNL     1       0.002   0.221   0.338  0.00  0.00    +0.136 A 
ATOM      3  C   UNL     1      -1.058  -0.606   0.294  0.00  0.00    +0.091 A 
ATOM      4  C   UNL     1      -0.577  -1.933   0.224  0.00  0.00    +0.172 A 
ATOM      5  N   UNL     1       0.731  -1.887   0.227  0.00  0.00    -0.063 NA
ATOM      6  O   UNL     1       1.117  -0.526   0.293  0.00  0.00    -0.358 OA
ATOM      7  N   UNL     1      -1.357  -3.086   0.164  0.00  0.00    -0.235 N 
ATOM      8  C   UNL     1      -0.862  -4.467   0.200  0.00  0.00    +0.151 C 
ATOM      9  C   UNL     1      -2.081  -5.354   0.108  0.00  0.00    +0.077 C 
ATOM     10  C   UNL     1      -3.155  -4.535   0.027  0.00  0.00    +0.250 C 
ATOM     11  O   UNL     1      -4.443  -4.938  -0.070  0.00  0.00    -0.282 OA
ATOM     12  C   UNL     1      -2.698  -3.130   0.067  0.00  0.00    +0.293 C 
ATOM     13  O   UNL     1      -3.426  -2.159   0.019  0.00  0.00    -0.266 OA
ENDROOT
BRANCH   8  14
ATOM     14  C   UNL     1       0.054  -4.720  -0.970  0.00  0.00    -0.015 A 
ATOM     15  C   UNL     1      -0.305  -4.286  -2.232  0.00  0.00    +0.055 A 
ATOM     16  C   UNL     1       0.535  -4.518  -3.311  0.00  0.00    +0.165 A 
ATOM     17  C   UNL     1       1.738  -5.186  -3.122  0.00  0.00    +0.204 A 
ATOM     18  C   UNL     1       2.095  -5.621  -1.851  0.00  0.00    +0.165 A 
ATOM     19  C   UNL     1       1.253  -5.381  -0.776  0.00  0.00    +0.055 A 
BRANCH  18  20
ATOM     20  O   UNL     1       3.272  -6.276  -1.661  0.00  0.00    -0.491 OA
ATOM     21  C   UNL     1       3.525  -6.788  -0.351  0.00  0.00    +0.277 C 
ENDBRANCH  18  20
BRANCH  17  22
ATOM     22  O   UNL     1       2.565  -5.416  -4.179  0.00  0.00    -0.488 OA
ATOM     23  C   UNL     1       3.542  -4.415  -4.467  0.00  0.00    +0.277 C 
ENDBRANCH  17  22
BRANCH  16  24
ATOM     24  O   UNL     1       0.181  -4.091  -4.553  0.00  0.00    -0.491 OA
ATOM     25  C   UNL     1      -1.070  -3.411  -4.673  0.00  0.00    +0.277 C 
ENDBRANCH  16  24
ENDBRANCH   8  14
BRANCH   9  26
ATOM     26  C   UNL     1      -2.097  -6.820   0.106  0.00  0.00    +0.195 C 
ATOM     27  O   UNL     1      -2.472  -7.424  -0.882  0.00  0.00    -0.287 OA
BRANCH  26  28
ATOM     28  C   UNL     1      -1.660  -7.564   1.304  0.00  0.00    +0.022 A 
ATOM     29  C   UNL     1      -1.339  -6.877   2.478  0.00  0.00    +0.015 A 
ATOM     30  C   UNL     1      -0.932  -7.575   3.593  0.00  0.00    +0.046 A 
ATOM     31  C   UNL     1      -0.839  -8.961   3.552  0.00  0.00    +0.121 A 
ATOM     32  C   UNL     1      -1.157  -9.649   2.386  0.00  0.00    +0.046 A 
ATOM     33  C   UNL     1      -1.571  -8.960   1.268  0.00  0.00    +0.015 A 
BRANCH  31  34
ATOM     34  O   UNL     1      -0.437  -9.646   4.652  0.00  0.00    -0.489 OA
BRANCH  34  35
ATOM     35  C   UNL     1       0.004  -8.873   5.771  0.00  0.00    +0.167 C 
ATOM     36  C   UNL     1      -1.168  -8.649   6.729  0.00  0.00    +0.051 C 
ATOM     37  C   UNL     1       1.121  -9.622   6.499  0.00  0.00    +0.051 C 
ENDBRANCH  34  35
ENDBRANCH  31  34
ENDBRANCH  26  28
ENDBRANCH   9  26
TORSDOF 8
