REMARK  Name = ZINC13442987
REMARK  15 active torsions:
REMARK  status: ('A' for Active; 'I' for Inactive)
REMARK    1  A    between atoms: C_1  and  C_2
REMARK    2  A    between atoms: C_2  and  C_3
REMARK    3  A    between atoms: C_2  and  C_4
REMARK    4  A    between atoms: C_4  and  C_6
REMARK    5  A    between atoms: C_4  and  N_14
REMARK    6  A    between atoms: C_9  and  O_12
REMARK    7  A    between atoms: O_12  and  C_13
REMARK    8  A    between atoms: C_15  and  C_17
REMARK    9  A    between atoms: C_17  and  S_18
REMARK   10  A    between atoms: S_18  and  C_19
REMARK   11  A    between atoms: C_22  and  C_27
REMARK   12  A    between atoms: N_23  and  C_24
REMARK   13  A    between atoms: C_24  and  C_25
REMARK   14  A    between atoms: C_30  and  O_33
REMARK   15  A    between atoms: O_33  and  C_34
REMARK                            x       y       z     vdW  Elec       q    Type
REMARK                         _______ _______ _______ _____ _____    ______ ____
ROOT
ATOM      1  S   UNL     1       1.027   3.697   1.778  0.00  0.00    -0.077 S 
ENDROOT
BRANCH   1   2
ATOM      2  C   UNL     1      -0.348   2.621   2.009  0.00  0.00    +0.193 A 
ATOM      3  N   UNL     1      -1.325   2.778   2.874  0.00  0.00    -0.122 NA
ATOM      4  N   UNL     1      -2.159   1.806   2.779  0.00  0.00    -0.128 NA
ATOM      5  C   UNL     1      -1.771   0.971   1.844  0.00  0.00    +0.165 A 
ATOM      6  N   UNL     1      -0.600   1.468   1.320  0.00  0.00    -0.291 N 
BRANCH   5   7
ATOM      7  C   UNL     1      -2.460  -0.270   1.433  0.00  0.00    +0.020 A 
ATOM      8  C   UNL     1      -3.394  -0.867   2.282  0.00  0.00    +0.015 A 
ATOM      9  C   UNL     1      -4.038  -2.022   1.893  0.00  0.00    +0.046 A 
ATOM     10  C   UNL     1      -3.752  -2.597   0.661  0.00  0.00    +0.120 A 
ATOM     11  C   UNL     1      -2.820  -2.010  -0.184  0.00  0.00    +0.046 A 
ATOM     12  C   UNL     1      -2.175  -0.852   0.196  0.00  0.00    +0.015 A 
BRANCH  10  13
ATOM     13  O   UNL     1      -4.385  -3.738   0.283  0.00  0.00    -0.495 OA
ATOM     14  C   UNL     1      -5.332  -4.289   1.201  0.00  0.00    +0.277 C 
ENDBRANCH  10  13
ENDBRANCH   5   7
BRANCH   6  15
ATOM     15  C   UNL     1       0.210   0.882   0.249  0.00  0.00    +0.250 C 
BRANCH  15  16
ATOM     16  C   UNL     1      -0.240   1.431  -1.080  0.00  0.00    +0.375 C 
ATOM     17  O   UNL     1      -1.144   2.231  -1.128  0.00  0.00    -0.244 OA
ATOM     18  O   UNL     1       0.365   1.032  -2.210  0.00  0.00    -0.244 OA
ENDBRANCH  15  16
ENDBRANCH   6  15
ENDBRANCH   1   2
BRANCH   1  19
ATOM     19  C   UNL     1       0.656   4.954   3.027  0.00  0.00    +0.173 C 
BRANCH  19  21
ATOM     20  N   UNL     1       1.663   7.053   3.862  0.00  0.00    -0.308 N 
ATOM     21  C   UNL     1       1.730   6.011   3.011  0.00  0.00    +0.224 C 
ATOM     22  O   UNL     1       2.656   5.922   2.233  0.00  0.00    -0.275 OA
ATOM     23  H   UNL     1       0.922   7.124   4.485  0.00  0.00    +0.149 HD
BRANCH  20  24
ATOM     24  C   UNL     1       2.707   8.080   3.848  0.00  0.00    +0.106 C 
BRANCH  24  25
ATOM     25  C   UNL     1       2.773   8.750   5.196  0.00  0.00    -0.027 A 
ATOM     26  C   UNL     1       1.607   9.045   5.877  0.00  0.00    +0.009 A 
ATOM     27  C   UNL     1       1.664   9.653   7.116  0.00  0.00    +0.046 A 
ATOM     28  C   UNL     1       2.893   9.979   7.671  0.00  0.00    +0.120 A 
ATOM     29  C   UNL     1       4.062   9.687   6.983  0.00  0.00    +0.046 A 
ATOM     30  C   UNL     1       3.999   9.073   5.747  0.00  0.00    +0.009 A 
BRANCH  28  31
ATOM     31  O   UNL     1       2.952  10.584   8.887  0.00  0.00    -0.495 OA
ATOM     32  C   UNL     1       1.709  10.854   9.538  0.00  0.00    +0.277 C 
ENDBRANCH  28  31
ENDBRANCH  24  25
BRANCH  24  34
ATOM     33  C   UNL     1       3.474  10.195   2.760  0.00  0.00    +0.009 C 
ATOM     34  C   UNL     1       2.382   9.123   2.776  0.00  0.00    +0.008 C 
ATOM     35  C   UNL     1       2.316   8.443   1.407  0.00  0.00    +0.009 C 
ENDBRANCH  24  34
ENDBRANCH  20  24
ENDBRANCH  19  21
ENDBRANCH   1  19
TORSDOF 11
