REMARK  Name = ZINC39672944
REMARK  6 active torsions:
REMARK  status: ('A' for Active; 'I' for Inactive)
REMARK    1  A    between atoms: C_4  and  C_7
REMARK    2  A    between atoms: C_10  and  C_12
REMARK    3  A    between atoms: C_16  and  C_25
REMARK    4  A    between atoms: N_27  and  C_28
REMARK    5  A    between atoms: C_28  and  C_29
REMARK    6  A    between atoms: C_29  and  N_35
REMARK                            x       y       z     vdW  Elec       q    Type
REMARK                         _______ _______ _______ _____ _____    ______ ____
ROOT
ATOM      1  C   UNL     1       7.463  -0.751  -0.493  0.00  0.00    +0.282 C 
ATOM      2  O   UNL     1       8.262  -1.666  -0.558  0.00  0.00    -0.267 OA
ATOM      3  N   UNL     1       7.900   0.522  -0.417  0.00  0.00    -0.294 N 
ATOM      4  C   UNL     1       7.088   1.758  -0.326  0.00  0.00    +0.121 C 
ATOM      5  C   UNL     1       7.854   2.656   0.670  0.00  0.00    +0.100 C 
ATOM      6  C   UNL     1       9.308   2.156   0.611  0.00  0.00    -0.004 C 
ATOM      7  C   UNL     1       9.303   1.001  -0.401  0.00  0.00    +0.115 C 
ATOM      8  C   UNL     1      10.232   3.273   0.135  0.00  0.00    -0.010 C 
ATOM      9  C   UNL     1      11.678   2.769   0.141  0.00  0.00    -0.082 C 
ATOM     10  N   UNL     1      12.046   2.347   1.497  0.00  0.00    +0.379 N 
ATOM     11  C   UNL     1      11.214   1.211   1.911  0.00  0.00    -0.082 C 
ATOM     12  C   UNL     1       9.748   1.649   1.981  0.00  0.00    -0.010 C 
ATOM     13  H   UNL     1      13.017   2.073   1.511  0.00  0.00    -0.086 HD
ATOM     14  H   UNL     1      11.907   3.115   2.137  0.00  0.00    -0.086 HD
ENDROOT
BRANCH   1  18
ATOM     15  C   UNL     1       3.847  -0.737  -0.457  0.00  0.00    +0.136 A 
ATOM     16  C   UNL     1       4.060  -2.083  -0.544  0.00  0.00    +0.050 A 
ATOM     17  C   UNL     1       5.445  -2.280  -0.570  0.00  0.00    +0.055 A 
ATOM     18  C   UNL     1       6.025  -1.032  -0.497  0.00  0.00    +0.190 A 
ATOM     19  O   UNL     1       5.037  -0.114  -0.436  0.00  0.00    -0.450 OA
BRANCH  15  23
ATOM     20  C   UNL     1       0.054   1.165  -0.302  0.00  0.00    +0.000 A 
ATOM     21  C   UNL     1       1.208   1.927  -0.270  0.00  0.00    +0.001 A 
ATOM     22  C   UNL     1       2.444   1.316  -0.320  0.00  0.00    +0.011 A 
ATOM     23  C   UNL     1       2.528  -0.076  -0.403  0.00  0.00    +0.017 A 
ATOM     24  C   UNL     1       1.359  -0.839  -0.434  0.00  0.00    +0.011 A 
ATOM     25  C   UNL     1       0.130  -0.215  -0.383  0.00  0.00    +0.001 A 
ENDBRANCH  15  23
ENDBRANCH   1  18
BRANCH   5  26
ATOM     26  C   UNL     1       7.776   4.099   0.243  0.00  0.00    +0.218 C 
ATOM     27  O   UNL     1       7.701   4.380  -0.934  0.00  0.00    -0.275 OA
ATOM     28  N   UNL     1       7.789   5.078   1.169  0.00  0.00    -0.313 N 
ATOM     29  H   UNL     1       7.849   4.853   2.111  0.00  0.00    +0.149 HD
BRANCH  28  30
ATOM     30  C   UNL     1       7.713   6.481   0.754  0.00  0.00    +0.126 C 
BRANCH  30  31
ATOM     31  C   UNL     1       7.870   7.384   1.979  0.00  0.00    +0.038 C 
ATOM     32  C   UNL     1       7.660   8.843   1.567  0.00  0.00    +0.024 C 
ATOM     33  C   UNL     1       8.697   9.229   0.511  0.00  0.00    +0.002 C 
ATOM     34  C   UNL     1      10.103   9.061   1.092  0.00  0.00    +0.000 C 
ATOM     35  C   UNL     1      10.313   7.603   1.504  0.00  0.00    +0.002 C 
ATOM     36  C   UNL     1       9.275   7.216   2.559  0.00  0.00    +0.024 C 
BRANCH  31  37
ATOM     37  N   UNL     1       6.874   7.013   2.993  0.00  0.00    -0.291 NA
ATOM     38  C   UNL     1       5.510   7.108   2.451  0.00  0.00    +0.113 C 
ATOM     39  C   UNL     1       4.510   6.657   3.519  0.00  0.00    +0.175 C 
ATOM     40  O   UNL     1       4.683   7.453   4.694  0.00  0.00    -0.377 OA
ATOM     41  C   UNL     1       5.999   7.384   5.248  0.00  0.00    +0.175 C 
ATOM     42  C   UNL     1       7.014   7.843   4.198  0.00  0.00    +0.113 C 
ENDBRANCH  31  37
ENDBRANCH  30  31
ENDBRANCH  28  30
ENDBRANCH   5  26
TORSDOF 6
