REMARK  Name = ZINC34900129
REMARK  5 active torsions:
REMARK  status: ('A' for Active; 'I' for Inactive)
REMARK    1  A    between atoms: C_6  and  C_7
REMARK    2  A    between atoms: N_9  and  C_10
REMARK    3  A    between atoms: C_16  and  N_18
REMARK    4  A    between atoms: C_19  and  C_21
REMARK    5  A    between atoms: C_28  and  C_30
REMARK                            x       y       z     vdW  Elec       q    Type
REMARK                         _______ _______ _______ _____ _____    ______ ____
ROOT
ATOM      1  N   UNL     1      -1.906  -3.628  -1.978  0.00  0.00    -0.310 N 
ATOM      2  C   UNL     1      -0.927  -4.429  -2.445  0.00  0.00    +0.218 C 
ATOM      3  O   UNL     1      -0.432  -5.266  -1.721  0.00  0.00    -0.275 OA
ATOM      4  H   UNL     1      -2.302  -2.959  -2.557  0.00  0.00    +0.149 HD
ENDROOT
BRANCH   2   5
ATOM      5  C   UNL     1      -0.449  -4.284  -3.866  0.00  0.00    +0.092 C 
ATOM      6  C   UNL     1       0.657  -5.305  -4.140  0.00  0.00    +0.016 C 
ATOM      7  C   UNL     1       1.167  -5.137  -5.573  0.00  0.00    +0.020 C 
ATOM      8  C   UNL     1       0.018  -5.395  -6.553  0.00  0.00    +0.108 C 
ATOM      9  N   UNL     1      -1.107  -4.516  -6.205  0.00  0.00    -0.297 N 
ATOM     10  C   UNL     1      -1.616  -4.531  -4.827  0.00  0.00    +0.120 C 
ATOM     11  C   UNL     1      -1.660  -3.709  -7.132  0.00  0.00    +0.247 C 
ATOM     12  O   UNL     1      -2.634  -3.038  -6.850  0.00  0.00    -0.270 OA
BRANCH  11  13
ATOM     13  C   UNL     1      -1.084  -3.641  -8.491  0.00  0.00    +0.037 A 
ATOM     14  C   UNL     1      -0.838  -4.814  -9.207  0.00  0.00    +0.014 A 
ATOM     15  C   UNL     1      -0.300  -4.744 -10.475  0.00  0.00    +0.021 A 
ATOM     16  C   UNL     1      -0.005  -3.514 -11.038  0.00  0.00    +0.041 A 
ATOM     17  C   UNL     1      -0.247  -2.347 -10.333  0.00  0.00    +0.021 A 
ATOM     18  C   UNL     1      -0.789  -2.404  -9.066  0.00  0.00    +0.014 A 
ATOM     19 CL   UNL     1       0.673  -3.434 -12.635  0.00  0.00    -0.084 Cl
ENDBRANCH  11  13
ENDBRANCH   2   5
BRANCH   1  25
ATOM     20  C   UNL     1      -2.972  -2.445  -0.122  0.00  0.00    +0.093 C 
ATOM     21  C   UNL     1      -3.458  -2.592   1.321  0.00  0.00    +0.024 C 
ATOM     22  C   UNL     1      -4.522  -3.688   1.391  0.00  0.00    +0.002 C 
ATOM     23  C   UNL     1      -3.922  -5.013   0.917  0.00  0.00    +0.002 C 
ATOM     24  C   UNL     1      -3.436  -4.866  -0.526  0.00  0.00    +0.024 C 
ATOM     25  C   UNL     1      -2.371  -3.769  -0.596  0.00  0.00    +0.093 C 
BRANCH  20  28
ATOM     26  C   UNL     1      -2.321  -0.105  -0.319  0.00  0.00    +0.244 C 
ATOM     27  O   UNL     1      -3.499   0.188  -0.379  0.00  0.00    -0.270 OA
ATOM     28  N   UNL     1      -1.952  -1.395  -0.190  0.00  0.00    -0.307 N 
ATOM     29  H   UNL     1      -1.012  -1.628  -0.141  0.00  0.00    +0.149 HD
BRANCH  26  35
ATOM     30  C   UNL     1      -1.672   2.292  -0.520  0.00  0.00    +0.016 A 
ATOM     31  C   UNL     1      -0.709   3.276  -0.582  0.00  0.00    +0.039 A 
ATOM     32  C   UNL     1       0.634   2.939  -0.513  0.00  0.00    +0.123 A 
ATOM     33  C   UNL     1       1.016   1.613  -0.381  0.00  0.00    +0.039 A 
ATOM     34  C   UNL     1       0.061   0.621  -0.317  0.00  0.00    +0.016 A 
ATOM     35  C   UNL     1      -1.293   0.954  -0.386  0.00  0.00    +0.037 A 
ATOM     36  F   UNL     1       1.575   3.908  -0.574  0.00  0.00    -0.205 F 
ENDBRANCH  26  35
ENDBRANCH  20  28
ENDBRANCH   1  25
TORSDOF 5
