REMARK  Name = ZINC36842486
REMARK  4 active torsions:
REMARK  status: ('A' for Active; 'I' for Inactive)
REMARK    1  A    between atoms: C_1  and  C_2
REMARK    2  A    between atoms: C_8  and  N_10
REMARK    3  A    between atoms: N_10  and  C_11
REMARK    4  A    between atoms: C_13  and  C_15
REMARK                            x       y       z     vdW  Elec       q    Type
REMARK                         _______ _______ _______ _____ _____    ______ ____
ROOT
ATOM      1  C   UNL     1       0.830  -0.422   3.637  0.00  0.00    -0.070 C 
ATOM      2  C   UNL     1       0.486  -1.823   4.170  0.00  0.00    -0.008 C 
ATOM      3  C   UNL     1      -0.594  -1.145   5.029  0.00  0.00    +0.017 C 
ATOM      4  C   UNL     1       0.258   0.133   4.953  0.00  0.00    -0.008 C 
ENDROOT
BRANCH   3   5
ATOM      5  C   UNL     1      -0.704  -1.714   6.420  0.00  0.00    -0.030 A 
ATOM      6  C   UNL     1       0.383  -1.670   7.274  0.00  0.00    +0.005 A 
ATOM      7  C   UNL     1       0.282  -2.192   8.550  0.00  0.00    +0.000 A 
ATOM      8  C   UNL     1      -0.906  -2.759   8.973  0.00  0.00    +0.001 A 
ATOM      9  C   UNL     1      -1.993  -2.803   8.121  0.00  0.00    +0.015 A 
ATOM     10  C   UNL     1      -1.894  -2.276   6.845  0.00  0.00    +0.021 A 
ATOM     11 BR   UNL     1      -3.383  -2.331   5.681  0.00  0.00    -0.050 Br
ENDBRANCH   3   5
BRANCH   1  12
ATOM     12  N   UNL     1       0.054  -0.037   2.450  0.00  0.00    +0.383 N 
ATOM     13  H   UNL     1      -0.032   0.968   2.416  0.00  0.00    -0.085 HD
ATOM     14  H   UNL     1      -0.864  -0.452   2.499  0.00  0.00    -0.085 HD
BRANCH  12  21
ATOM     15  C   UNL     1      -0.019   1.526   0.010  0.00  0.00    +0.006 C 
ATOM     16  C   UNL     1       0.002  -0.004   0.002  0.00  0.00    -0.028 C 
ATOM     17  C   UNL     1       0.718  -0.497  -1.257  0.00  0.00    +0.002 C 
ATOM     18  C   UNL     1       0.739  -2.027  -1.265  0.00  0.00    +0.000 C 
ATOM     19  C   UNL     1       1.479  -2.534  -0.026  0.00  0.00    -0.002 C 
ATOM     20  C   UNL     1       0.763  -2.041   1.233  0.00  0.00    -0.015 C 
ATOM     21  C   UNL     1       0.742  -0.511   1.242  0.00  0.00    -0.069 C 
ENDBRANCH  12  21
ENDBRANCH   1  12
TORSDOF 3
