REMARK  Name = ZINC39677742
REMARK  7 active torsions:
REMARK  status: ('A' for Active; 'I' for Inactive)
REMARK    1  A    between atoms: C_1  and  C_2
REMARK    2  A    between atoms: C_3  and  C_8
REMARK    3  A    between atoms: C_4  and  C_7
REMARK    4  A    between atoms: C_12  and  C_21
REMARK    5  A    between atoms: N_23  and  C_24
REMARK    6  A    between atoms: C_24  and  C_25
REMARK    7  A    between atoms: C_28  and  C_30
REMARK                            x       y       z     vdW  Elec       q    Type
REMARK                         _______ _______ _______ _____ _____    ______ ____
ROOT
ATOM      1  C   UNL     1       0.029  -0.415  -2.749  0.00  0.00    +0.252 C 
ATOM      2  O   UNL     1       1.059  -0.160  -3.343  0.00  0.00    -0.270 OA
ATOM      3  N   UNL     1      -1.161  -0.208  -3.345  0.00  0.00    -0.296 N 
ATOM      4  C   UNL     1      -2.512  -0.450  -2.785  0.00  0.00    +0.121 C 
ATOM      5  C   UNL     1      -3.361   0.741  -3.283  0.00  0.00    +0.100 C 
ATOM      6  C   UNL     1      -2.638   1.236  -4.547  0.00  0.00    -0.004 C 
ATOM      7  C   UNL     1      -1.416   0.320  -4.707  0.00  0.00    +0.115 C 
ATOM      8  C   UNL     1      -2.184   2.682  -4.364  0.00  0.00    -0.010 C 
ATOM      9  C   UNL     1      -1.519   3.170  -5.653  0.00  0.00    -0.082 C 
ATOM     10  N   UNL     1      -2.472   3.072  -6.765  0.00  0.00    +0.379 N 
ATOM     11  C   UNL     1      -2.832   1.668  -6.995  0.00  0.00    -0.082 C 
ATOM     12  C   UNL     1      -3.553   1.116  -5.761  0.00  0.00    -0.010 C 
ATOM     13  H   UNL     1      -3.303   3.599  -6.541  0.00  0.00    -0.086 HD
ATOM     14  H   UNL     1      -2.052   3.451  -7.601  0.00  0.00    -0.086 HD
ENDROOT
BRANCH   1  17
ATOM     15  C   UNL     1       0.046   1.327  -0.020  0.00  0.00    +0.070 C 
ATOM     16  C   UNL     1       0.091  -0.174  -0.136  0.00  0.00    +0.093 A 
ATOM     17  C   UNL     1       0.083  -0.951  -1.377  0.00  0.00    +0.101 A 
ATOM     18  C   UNL     1       0.135  -2.268  -1.019  0.00  0.00    +0.147 A 
ATOM     19  O   UNL     1       0.173  -2.333   0.315  0.00  0.00    -0.359 OA
ATOM     20  N   UNL     1       0.149  -1.024   0.847  0.00  0.00    -0.083 NA
ATOM     21  C   UNL     1       0.148  -3.442  -1.963  0.00  0.00    +0.090 C 
ENDBRANCH   1  17
BRANCH   5  22
ATOM     22  C   UNL     1      -4.757   0.286  -3.620  0.00  0.00    +0.218 C 
ATOM     23  O   UNL     1      -4.947  -0.843  -4.021  0.00  0.00    -0.275 OA
ATOM     24  N   UNL     1      -5.796   1.133  -3.474  0.00  0.00    -0.310 N 
ATOM     25  H   UNL     1      -5.644   2.035  -3.153  0.00  0.00    +0.149 HD
BRANCH  24  26
ATOM     26  C   UNL     1      -7.153   0.690  -3.801  0.00  0.00    +0.146 C 
BRANCH  26  27
ATOM     27  C   UNL     1      -8.122   1.817  -3.553  0.00  0.00    +0.007 A 
ATOM     28  C   UNL     1      -8.544   2.785  -4.409  0.00  0.00    +0.013 A 
ATOM     29  C   UNL     1      -9.445   3.727  -3.965  0.00  0.00    +0.018 A 
ATOM     30  C   UNL     1      -9.887   3.656  -2.670  0.00  0.00    +0.038 A 
ATOM     31  S   UNL     1      -9.017   2.221  -2.062  0.00  0.00    -0.090 S 
BRANCH  30  32
ATOM     32  C   UNL     1     -10.839   4.536  -1.963  0.00  0.00    +0.078 A 
ATOM     33  C   UNL     1     -11.151   4.286  -0.625  0.00  0.00    +0.029 A 
ATOM     34  C   UNL     1     -12.045   5.119   0.023  0.00  0.00    +0.004 A 
ATOM     35  C   UNL     1     -12.600   6.177  -0.686  0.00  0.00    +0.020 A 
ATOM     36  C   UNL     1     -12.248   6.367  -2.009  0.00  0.00    +0.111 A 
ATOM     37  N   UNL     1     -11.389   5.562  -2.603  0.00  0.00    -0.254 NA
ENDBRANCH  30  32
ENDBRANCH  26  27
ENDBRANCH  24  26
ENDBRANCH   5  22
TORSDOF 5
