REMARK  Name = ZINC14886114
REMARK  13 active torsions:
REMARK  status: ('A' for Active; 'I' for Inactive)
REMARK    1  A    between atoms: C_1  and  C_2
REMARK    2  A    between atoms: C_2  and  N_3
REMARK    3  A    between atoms: C_4  and  C_32
REMARK    4  A    between atoms: C_5  and  C_9
REMARK    5  A    between atoms: C_6  and  C_8
REMARK    6  A    between atoms: C_9  and  N_62
REMARK    7  A    between atoms: C_10  and  N_62
REMARK    8  A    between atoms: C_11  and  C_12
REMARK    9  A    between atoms: C_11  and  N_62
REMARK   10  A    between atoms: C_13  and  C_31
REMARK   11  A    between atoms: C_15  and  C_17
REMARK   12  A    between atoms: C_22  and  N_23
REMARK   13  A    between atoms: C_24  and  C_26
REMARK                            x       y       z     vdW  Elec       q    Type
REMARK                         _______ _______ _______ _____ _____    ______ ____
ROOT
ATOM      1  C   UNL     1      -5.728  -1.905   0.208  0.00  0.00    +0.066 A 
ATOM      2  C   UNL     1      -4.386  -1.994   0.214  0.00  0.00    +0.124 A 
ATOM      3  O   UNL     1      -3.901  -0.736   0.214  0.00  0.00    -0.440 OA
ATOM      4  C   UNL     1      -4.949   0.106   0.218  0.00  0.00    +0.229 A 
ATOM      5  N   UNL     1      -6.054  -0.603   0.211  0.00  0.00    -0.216 NA
ATOM      6  C   UNL     1      -3.575  -3.264   0.214  0.00  0.00    +0.088 C 
ENDROOT
BRANCH   4   7
ATOM      7  C   UNL     1      -4.871   1.581   0.222  0.00  0.00    +0.058 A 
ATOM      8  C   UNL     1      -6.034   2.345   0.329  0.00  0.00    +0.015 A 
ATOM      9  C   UNL     1      -5.954   3.722   0.327  0.00  0.00    +0.001 A 
ATOM     10  C   UNL     1      -4.725   4.351   0.225  0.00  0.00    +0.002 A 
ATOM     11  C   UNL     1      -3.566   3.607   0.124  0.00  0.00    +0.024 A 
ATOM     12  C   UNL     1      -3.627   2.221   0.125  0.00  0.00    +0.046 A 
BRANCH  12  13
ATOM     13  N   UNL     1      -2.457   1.467   0.023  0.00  0.00    -0.281 N 
ATOM     14  C   UNL     1      -1.365   1.995  -0.564  0.00  0.00    +0.249 C 
ATOM     15  O   UNL     1      -1.427   3.088  -1.093  0.00  0.00    -0.270 OA
ATOM     16  H   UNL     1      -2.430   0.564   0.375  0.00  0.00    +0.155 HD
BRANCH  14  17
ATOM     17  C   UNL     1      -0.097   1.248  -0.564  0.00  0.00    +0.044 A 
ATOM     18  C   UNL     1       1.090   1.780  -1.187  0.00  0.00    +0.020 A 
ATOM     19  C   UNL     1       2.201   1.019  -1.139  0.00  0.00    +0.046 A 
ATOM     20  S   UNL     1       1.661  -0.428  -0.252  0.00  0.00    -0.104 S 
ATOM     21  C   UNL     1       0.008   0.006   0.027  0.00  0.00    +0.058 A 
ENDBRANCH  14  17
ENDBRANCH  12  13
ENDBRANCH   4   7
BRANCH   1  22
ATOM     22  C   UNL     1      -6.694  -3.061   0.201  0.00  0.00    -0.019 C 
BRANCH  22  24
ATOM     23  C   UNL     1      -5.814  -3.967  -1.864  0.00  0.00    -0.095 C 
ATOM     24  N   UNL     1      -7.011  -3.410  -1.200  0.00  0.00    +0.384 N 
ATOM     25  H   UNL     1      -7.303  -2.560  -1.697  0.00  0.00    -0.081 HD
BRANCH  24  26
ATOM     26  C   UNL     1      -8.114  -4.393  -1.239  0.00  0.00    -0.039 C 
BRANCH  26  29
ATOM     27  N   UNL     1      -8.743  -5.300  -4.715  0.00  0.00    -0.268 N 
ATOM     28  C   UNL     1      -8.086  -5.473  -3.549  0.00  0.00    +0.038 A 
ATOM     29  C   UNL     1      -8.562  -4.563  -2.668  0.00  0.00    -0.021 A 
ATOM     30  C   UNL     1      -9.549  -3.812  -3.316  0.00  0.00    +0.062 A 
ATOM     31  N   UNL     1      -9.654  -4.250  -4.545  0.00  0.00    -0.176 NA
ATOM     32  C   UNL     1     -10.350  -2.691  -2.705  0.00  0.00    +0.068 C 
ATOM     33  C   UNL     1      -7.013  -6.495  -3.277  0.00  0.00    +0.065 C 
BRANCH  27  35
ATOM     34  C   UNL     1      -9.476  -7.286  -5.940  0.00  0.00    +0.029 C 
ATOM     35  C   UNL     1      -8.540  -6.075  -5.941  0.00  0.00    +0.140 C 
ENDBRANCH  27  35
ENDBRANCH  26  29
ENDBRANCH  24  26
ENDBRANCH  22  24
ENDBRANCH   1  22
TORSDOF 8
