REMARK  Name = ZINC16976523
REMARK  3 active torsions:
REMARK  status: ('A' for Active; 'I' for Inactive)
REMARK    1  A    between atoms: C_4  and  C_7
REMARK    2  A    between atoms: C_9  and  C_26
REMARK    3  A    between atoms: C_17  and  C_19
REMARK                            x       y       z     vdW  Elec       q    Type
REMARK                         _______ _______ _______ _____ _____    ______ ____
ROOT
ATOM      1  C   UNL     1       3.691  -0.679  -0.038  0.00  0.00    +0.055 C 
ATOM      2  C   UNL     1       3.681  -2.182  -0.052  0.00  0.00    +0.087 C 
ATOM      3  C   UNL     1       4.863  -2.736  -0.855  0.00  0.00    +0.147 C 
ATOM      4  N   UNL     1       6.050  -1.950  -0.517  0.00  0.00    -0.220 N 
ATOM      5  C   UNL     1       5.982  -0.636  -0.145  0.00  0.00    +0.251 A 
ATOM      6  N   UNL     1       7.207  -0.222   0.072  0.00  0.00    -0.176 NA
ATOM      7  C   UNL     1       8.064  -1.227  -0.138  0.00  0.00    +0.243 A 
ATOM      8  N   UNL     1       7.395  -2.303  -0.498  0.00  0.00    -0.131 NA
ATOM      9  N   UNL     1       9.452  -1.148   0.001  0.00  0.00    -0.249 N 
ATOM     10  C   UNL     1      10.027   0.012   0.377  0.00  0.00    +0.250 C 
ATOM     11  O   UNL     1       9.337   0.990   0.595  0.00  0.00    -0.270 OA
ATOM     12  N   UNL     1       4.795   0.018  -0.046  0.00  0.00    -0.215 NA
ATOM     13  H   UNL     1      10.003  -1.927  -0.172  0.00  0.00    +0.158 HD
ENDROOT
BRANCH   3  14
ATOM     14  C   UNL     1       5.089  -4.182  -0.495  0.00  0.00    -0.023 A 
ATOM     15  C   UNL     1       5.378  -4.532   0.811  0.00  0.00    +0.007 A 
ATOM     16  C   UNL     1       5.586  -5.858   1.142  0.00  0.00    +0.020 A 
ATOM     17  C   UNL     1       5.504  -6.835   0.166  0.00  0.00    +0.041 A 
ATOM     18  C   UNL     1       5.215  -6.484  -1.141  0.00  0.00    +0.020 A 
ATOM     19  C   UNL     1       5.002  -5.159  -1.470  0.00  0.00    +0.007 A 
ATOM     20 CL   UNL     1       5.766  -8.500   0.581  0.00  0.00    -0.084 Cl
ENDBRANCH   3  14
BRANCH   1  24
ATOM     21  C   UNL     1      -0.017   1.380   0.010  0.00  0.00    +0.000 A 
ATOM     22  C   UNL     1       1.168   2.095   0.002  0.00  0.00    +0.001 A 
ATOM     23  C   UNL     1       2.377   1.433  -0.013  0.00  0.00    +0.010 A 
ATOM     24  C   UNL     1       2.405   0.035  -0.021  0.00  0.00    -0.004 A 
ATOM     25  C   UNL     1       1.203  -0.681  -0.013  0.00  0.00    +0.010 A 
ATOM     26  C   UNL     1       0.002  -0.004   0.002  0.00  0.00    +0.001 A 
ENDBRANCH   1  24
BRANCH  10  27
ATOM     27  C   UNL     1      11.495   0.096   0.524  0.00  0.00    +0.037 A 
ATOM     28  C   UNL     1      12.290  -1.022   0.270  0.00  0.00    +0.013 A 
ATOM     29  C   UNL     1      13.660  -0.937   0.409  0.00  0.00    +0.001 A 
ATOM     30  C   UNL     1      14.246   0.254   0.800  0.00  0.00    +0.000 A 
ATOM     31  C   UNL     1      13.463   1.367   1.054  0.00  0.00    +0.001 A 
ATOM     32  C   UNL     1      12.093   1.296   0.913  0.00  0.00    +0.013 A 
ENDBRANCH  10  27
TORSDOF 3
