REMARK  Name = ZINC35216551
REMARK  14 active torsions:
REMARK  status: ('A' for Active; 'I' for Inactive)
REMARK    1  A    between atoms: C_1  and  C_2
REMARK    2  A    between atoms: C_2  and  C_3
REMARK    3  A    between atoms: C_3  and  N_4
REMARK    4  A    between atoms: N_4  and  C_5
REMARK    5  A    between atoms: C_5  and  C_6
REMARK    6  A    between atoms: C_6  and  C_7
REMARK    7  A    between atoms: C_8  and  C_10
REMARK    8  A    between atoms: C_14  and  C_29
REMARK    9  A    between atoms: C_17  and  C_19
REMARK   10  A    between atoms: C_22  and  C_25
REMARK   11  A    between atoms: C_25  and  C_26
REMARK   12  A    between atoms: C_25  and  C_27
REMARK   13  A    between atoms: C_25  and  C_28
REMARK   14  A    between atoms: C_29  and  C_30
REMARK                            x       y       z     vdW  Elec       q    Type
REMARK                         _______ _______ _______ _____ _____    ______ ____
ROOT
ATOM      1  C   UNL     1      -1.525  -1.673  -3.031  0.00  0.00    +0.173 C 
ATOM      2  C   UNL     1      -2.656  -0.753  -3.579  0.00  0.00    +0.103 C 
ATOM      3  S   UNL     1      -3.747  -2.063  -4.294  0.00  0.00    -0.136 S 
ATOM      4  C   UNL     1      -2.416  -3.261  -4.730  0.00  0.00    +0.135 C 
ATOM      5  N   UNL     1      -1.263  -2.775  -3.952  0.00  0.00    -0.273 N 
ATOM      6  C   UNL     1      -0.036  -3.318  -4.084  0.00  0.00    +0.248 C 
ATOM      7  O   UNL     1       0.853  -3.005  -3.316  0.00  0.00    -0.270 OA
ENDROOT
BRANCH   6   8
ATOM      8  C   UNL     1       0.229  -4.293  -5.163  0.00  0.00    +0.037 A 
ATOM      9  C   UNL     1      -0.828  -4.808  -5.916  0.00  0.00    +0.013 A 
ATOM     10  C   UNL     1      -0.574  -5.718  -6.922  0.00  0.00    +0.005 A 
ATOM     11  C   UNL     1       0.724  -6.119  -7.185  0.00  0.00    -0.042 A 
ATOM     12  C   UNL     1       1.775  -5.612  -6.442  0.00  0.00    +0.005 A 
ATOM     13  C   UNL     1       1.536  -4.698  -5.437  0.00  0.00    +0.013 A 
BRANCH  11  14
ATOM     14  C   UNL     1       0.994  -7.113  -8.285  0.00  0.00    -0.013 C 
ATOM     15  C   UNL     1       0.504  -6.544  -9.618  0.00  0.00    +0.015 C 
ATOM     16  C   UNL     1       2.497  -7.386  -8.369  0.00  0.00    +0.015 C 
ATOM     17  C   UNL     1       0.254  -8.419  -7.985  0.00  0.00    +0.015 C 
ENDBRANCH  11  14
ENDBRANCH   6   8
BRANCH   1  19
ATOM     18  N   UNL     1      -1.816  -1.484  -0.582  0.00  0.00    -0.300 N 
ATOM     19  C   UNL     1      -1.944  -2.232  -1.696  0.00  0.00    +0.237 C 
ATOM     20  O   UNL     1      -2.397  -3.354  -1.623  0.00  0.00    -0.274 OA
BRANCH  18  21
ATOM     21  C   UNL     1      -2.091  -2.072   0.732  0.00  0.00    +0.107 C 
BRANCH  21  23
ATOM     22  C   UNL     1      -3.823  -2.387   2.504  0.00  0.00    +0.005 C 
ATOM     23  C   UNL     1      -3.537  -1.773   1.133  0.00  0.00    +0.016 C 
ENDBRANCH  21  23
ENDBRANCH  18  21
BRANCH  18  24
ATOM     24  C   UNL     1      -1.403  -0.082  -0.684  0.00  0.00    +0.107 C 
BRANCH  24  25
ATOM     25  C   UNL     1       0.125   0.001  -0.680  0.00  0.00    +0.016 C 
ATOM     26  C   UNL     1       0.557   1.465  -0.787  0.00  0.00    +0.005 C 
ENDBRANCH  24  25
ENDBRANCH  18  24
ENDBRANCH   1  19
BRANCH   4  27
ATOM     27  C   UNL     1      -2.803  -4.678  -4.302  0.00  0.00    +0.030 C 
ATOM     28  C   UNL     1      -4.005  -5.148  -5.124  0.00  0.00    +0.006 C 
ENDBRANCH   4  27
TORSDOF 8
