REMARK  Name = ZINC46841873
REMARK  12 active torsions:
REMARK  status: ('A' for Active; 'I' for Inactive)
REMARK    1  A    between atoms: C_1  and  C_2
REMARK    2  A    between atoms: C_5  and  S_28
REMARK    3  A    between atoms: C_7  and  C_8
REMARK    4  A    between atoms: N_10  and  C_11
REMARK    5  A    between atoms: C_11  and  C_12
REMARK    6  A    between atoms: C_20  and  C_27
REMARK    7  A    between atoms: C_23  and  C_26
REMARK    8  A    between atoms: S_28  and  N_31
REMARK    9  A    between atoms: N_31  and  C_32
REMARK   10  A    between atoms: C_32  and  C_33
REMARK   11  A    between atoms: C_33  and  O_34
REMARK   12  A    between atoms: O_34  and  C_35
REMARK                            x       y       z     vdW  Elec       q    Type
REMARK                         _______ _______ _______ _____ _____    ______ ____
ROOT
ATOM      1  C   UNL     1       0.199   0.013   2.486  0.00  0.00    +0.245 C 
ATOM      2  O   UNL     1       0.117   1.226   2.502  0.00  0.00    -0.270 OA
ATOM      3  N   UNL     1       0.428  -0.662   3.629  0.00  0.00    -0.307 N 
ATOM      4  H   UNL     1       0.494  -1.630   3.616  0.00  0.00    +0.149 HD
ENDROOT
BRANCH   1  11
ATOM      5  C   UNL     1      -0.159   1.485   0.021  0.00  0.00    +0.044 C 
ATOM      6  C   UNL     1      -0.125  -0.021   0.016  0.00  0.00    -0.038 A 
ATOM      7  C   UNL     1      -0.260  -0.712  -1.171  0.00  0.00    +0.006 A 
ATOM      8  C   UNL     1      -0.230  -2.095  -1.177  0.00  0.00    +0.029 A 
ATOM      9  C   UNL     1      -0.064  -2.795   0.005  0.00  0.00    +0.106 A 
ATOM     10  C   UNL     1       0.072  -2.116   1.199  0.00  0.00    +0.041 A 
ATOM     11  C   UNL     1       0.048  -0.721   1.211  0.00  0.00    +0.041 A 
BRANCH   9  12
ATOM     12  S   UNL     1      -0.028  -4.556  -0.013  0.00  0.00    +0.058 S 
ATOM     13  O   UNL     1      -0.409  -4.984   1.287  0.00  0.00    -0.153 OA
ATOM     14  O   UNL     1      -0.723  -4.965  -1.183  0.00  0.00    -0.153 OA
BRANCH  12  15
ATOM     15  N   UNL     1       1.551  -5.012  -0.218  0.00  0.00    -0.188 NA
ATOM     16  H   UNL     1       1.820  -5.480  -1.023  0.00  0.00    +0.148 HD
BRANCH  15  17
ATOM     17  C   UNL     1       2.541  -4.707   0.818  0.00  0.00    +0.134 C 
BRANCH  17  18
ATOM     18  C   UNL     1       3.804  -5.537   0.577  0.00  0.00    +0.176 C 
BRANCH  18  19
ATOM     19  O   UNL     1       4.409  -5.137  -0.654  0.00  0.00    -0.382 OA
ATOM     20  C   UNL     1       5.602  -5.854  -0.976  0.00  0.00    +0.194 C 
ENDBRANCH  18  19
ENDBRANCH  17  18
ENDBRANCH  15  17
ENDBRANCH  12  15
ENDBRANCH   9  12
ENDBRANCH   1  11
BRANCH   3  21
ATOM     21  C   UNL     1       0.578   0.065   4.892  0.00  0.00    +0.141 C 
BRANCH  21  22
ATOM     22  C   UNL     1       0.825  -0.915   6.010  0.00  0.00    -0.014 A 
ATOM     23  C   UNL     1      -0.242  -1.459   6.714  0.00  0.00    +0.010 A 
ATOM     24  C   UNL     1       0.028  -2.355   7.733  0.00  0.00    +0.042 A 
ATOM     25  C   UNL     1       1.351  -2.679   8.016  0.00  0.00    +0.099 A 
ATOM     26  N   UNL     1       2.341  -2.139   7.321  0.00  0.00    -0.349 N 
ATOM     27  C   UNL     1       2.112  -1.286   6.340  0.00  0.00    +0.089 A 
ATOM     28  N   UNL     1       1.637  -3.578   9.037  0.00  0.00    -0.312 N 
ATOM     29  C   UNL     1       3.024  -3.828   9.460  0.00  0.00    +0.137 C 
ATOM     30  C   UNL     1       3.098  -3.683  10.984  0.00  0.00    +0.133 C 
ATOM     31  O   UNL     1       2.094  -4.503  11.585  0.00  0.00    -0.371 OA
ATOM     32  C   UNL     1       0.756  -4.138  11.239  0.00  0.00    +0.133 C 
ATOM     33  C   UNL     1       0.560  -4.302   9.732  0.00  0.00    +0.137 C 
ATOM     34  C   UNL     1       0.508  -2.679  11.627  0.00  0.00    +0.039 C 
ATOM     35  C   UNL     1       4.480  -4.124  11.473  0.00  0.00    +0.039 C 
ATOM     36  H   UNL     1       3.256  -2.380   7.536  0.00  0.00    +0.167 HD
ENDBRANCH  21  22
ENDBRANCH   3  21
TORSDOF 8
