REMARK  Name = ZINC12853064
REMARK  15 active torsions:
REMARK  status: ('A' for Active; 'I' for Inactive)
REMARK    1  A    between atoms: C_1  and  C_2
REMARK    2  A    between atoms: C_2  and  C_3
REMARK    3  A    between atoms: C_3  and  C_4
REMARK    4  A    between atoms: C_4  and  N_5
REMARK    5  A    between atoms: C_6  and  N_36
REMARK    6  A    between atoms: C_7  and  N_14
REMARK    7  A    between atoms: N_14  and  C_15
REMARK    8  A    between atoms: C_15  and  C_16
REMARK    9  A    between atoms: C_16  and  O_17
REMARK   10  A    between atoms: O_17  and  C_18
REMARK   11  A    between atoms: C_19  and  C_21
REMARK   12  A    between atoms: C_21  and  S_22
REMARK   13  A    between atoms: S_22  and  C_23
REMARK   14  A    between atoms: C_26  and  C_29
REMARK   15  A    between atoms: N_27  and  N_28
REMARK                            x       y       z     vdW  Elec       q    Type
REMARK                         _______ _______ _______ _____ _____    ______ ____
ROOT
ATOM      1  N   UNL     1       0.538  -3.558  -5.862  0.00  0.00    -0.261 N 
ATOM      2  C   UNL     1      -0.737  -3.117  -5.888  0.00  0.00    +0.230 C 
ATOM      3  O   UNL     1      -1.248  -2.680  -4.878  0.00  0.00    -0.274 OA
ENDROOT
BRANCH   1   6
ATOM      4  N   UNL     1       3.123  -2.485  -3.481  0.00  0.00    -0.280 N 
ATOM      5  C   UNL     1       2.396  -2.587  -4.644  0.00  0.00    +0.127 A 
ATOM      6  C   UNL     1       1.305  -3.432  -4.684  0.00  0.00    +0.140 A 
ATOM      7  C   UNL     1       0.970  -4.165  -3.530  0.00  0.00    +0.277 A 
ATOM      8  O   UNL     1       0.011  -4.918  -3.538  0.00  0.00    -0.266 OA
ATOM      9  N   UNL     1       1.716  -4.028  -2.416  0.00  0.00    -0.273 N 
ATOM     10  H   UNL     1       1.486  -4.533  -1.621  0.00  0.00    +0.173 HD
ATOM     11  C   UNL     1       2.779  -3.204  -2.397  0.00  0.00    +0.331 A 
ATOM     12  O   UNL     1       3.437  -3.104  -1.380  0.00  0.00    -0.246 OA
BRANCH   5  13
ATOM     13  N   UNL     1       2.751  -1.857  -5.753  0.00  0.00    -0.343 N 
ATOM     14  H   UNL     1       3.479  -1.219  -5.700  0.00  0.00    +0.144 HD
ATOM     15  H   UNL     1       2.272  -1.979  -6.588  0.00  0.00    +0.144 HD
ENDBRANCH   5  13
BRANCH   4  16
ATOM     16  C   UNL     1       4.283  -1.593  -3.424  0.00  0.00    +0.128 C 
BRANCH  16  17
ATOM     17  C   UNL     1       5.537  -2.359  -3.848  0.00  0.00    +0.021 C 
BRANCH  17  19
ATOM     18  C   UNL     1       8.004  -2.193  -4.213  0.00  0.00    +0.004 C 
ATOM     19  C   UNL     1       6.749  -1.427  -3.789  0.00  0.00    -0.002 C 
ENDBRANCH  17  19
ENDBRANCH  16  17
ENDBRANCH   4  16
ENDBRANCH   1   6
BRANCH   1  20
ATOM     20  C   UNL     1       1.127  -4.169  -7.057  0.00  0.00    +0.142 C 
BRANCH  20  21
ATOM     21  C   UNL     1       0.946  -5.687  -6.996  0.00  0.00    +0.178 C 
BRANCH  21  22
ATOM     22  O   UNL     1      -0.446  -6.003  -7.056  0.00  0.00    -0.381 OA
ATOM     23  C   UNL     1      -0.726  -7.404  -7.006  0.00  0.00    +0.194 C 
ENDBRANCH  21  22
ENDBRANCH  20  21
ENDBRANCH   1  20
BRANCH   2  24
ATOM     24  C   UNL     1      -1.525  -3.167  -7.171  0.00  0.00    +0.173 C 
BRANCH  24  25
ATOM     25  S   UNL     1      -3.191  -2.508  -6.883  0.00  0.00    -0.075 S 
BRANCH  25  26
ATOM     26  C   UNL     1      -3.976  -2.632  -8.456  0.00  0.00    +0.209 A 
ATOM     27  N   UNL     1      -3.442  -3.107  -9.559  0.00  0.00    -0.121 NA
ATOM     28  N   UNL     1      -4.292  -3.052 -10.521  0.00  0.00    -0.127 NA
ATOM     29  C   UNL     1      -5.421  -2.539 -10.091  0.00  0.00    +0.182 A 
ATOM     30  N   UNL     1      -5.255  -2.259  -8.754  0.00  0.00    -0.224 N 
BRANCH  29  31
ATOM     31  C   UNL     1      -6.643  -2.310 -10.892  0.00  0.00    +0.021 A 
ATOM     32  C   UNL     1      -7.652  -1.477 -10.406  0.00  0.00    +0.014 A 
ATOM     33  C   UNL     1      -8.790  -1.266 -11.158  0.00  0.00    +0.039 A 
ATOM     34  C   UNL     1      -8.931  -1.879 -12.392  0.00  0.00    +0.123 A 
ATOM     35  C   UNL     1      -7.932  -2.708 -12.879  0.00  0.00    +0.039 A 
ATOM     36  C   UNL     1      -6.788  -2.921 -12.138  0.00  0.00    +0.014 A 
ATOM     37  F   UNL     1     -10.047  -1.670 -13.124  0.00  0.00    -0.205 F 
ENDBRANCH  29  31
BRANCH  30  38
ATOM     38  N   UNL     1      -6.177  -1.718  -7.904  0.00  0.00    -0.295 N 
ATOM     39  H   UNL     1      -6.118  -0.711  -7.899  0.00  0.00    +0.163 HD
ATOM     40  H   UNL     1      -7.109  -2.025  -8.139  0.00  0.00    +0.163 HD
ENDBRANCH  30  38
ENDBRANCH  25  26
ENDBRANCH  24  25
ENDBRANCH   2  24
TORSDOF 13
