REMARK  Name = ZINC02191929
REMARK  14 active torsions:
REMARK  status: ('A' for Active; 'I' for Inactive)
REMARK    1  A    between atoms: C_1  and  C_2
REMARK    2  A    between atoms: C_2  and  O_3
REMARK    3  A    between atoms: O_3  and  C_4
REMARK    4  A    between atoms: C_4  and  C_6
REMARK    5  A    between atoms: C_7  and  C_35
REMARK    6  A    between atoms: C_8  and  C_29
REMARK    7  A    between atoms: C_10  and  N_11
REMARK    8  A    between atoms: N_11  and  C_12
REMARK    9  A    between atoms: C_12  and  C_13
REMARK   10  A    between atoms: C_12  and  C_17
REMARK   11  A    between atoms: C_12  and  N_21
REMARK   12  A    between atoms: C_13  and  O_15
REMARK   13  A    between atoms: O_15  and  C_16
REMARK   14  A    between atoms: C_22  and  C_24
REMARK                            x       y       z     vdW  Elec       q    Type
REMARK                         _______ _______ _______ _____ _____    ______ ____
ROOT
ATOM      1  N   UNL     1       0.893  -2.289   0.185  0.00  0.00    -0.301 N 
ATOM      2  H   UNL     1       1.683  -2.851   0.162  0.00  0.00    +0.149 HD
ENDROOT
BRANCH   1   7
ATOM      3  C   UNL     1       0.701  -2.355   2.674  0.00  0.00    +0.091 A 
ATOM      4  C   UNL     1      -0.054  -1.815   3.776  0.00  0.00    -0.020 A 
ATOM      5  C   UNL     1      -1.049  -0.942   3.471  0.00  0.00    +0.025 A 
ATOM      6  S   UNL     1      -0.970  -0.836   1.695  0.00  0.00    -0.073 S 
ATOM      7  C   UNL     1       0.338  -1.930   1.396  0.00  0.00    +0.083 A 
ATOM      8  C   UNL     1       0.246  -2.202   5.202  0.00  0.00    +0.046 C 
BRANCH   5   9
ATOM      9  C   UNL     1      -1.970  -0.243   4.392  0.00  0.00    -0.011 A 
ATOM     10  C   UNL     1      -3.344  -0.244   4.143  0.00  0.00    +0.009 A 
ATOM     11  C   UNL     1      -4.199   0.406   5.010  0.00  0.00    +0.001 A 
ATOM     12  C   UNL     1      -3.696   1.066   6.117  0.00  0.00    +0.000 A 
ATOM     13  C   UNL     1      -2.335   1.075   6.366  0.00  0.00    +0.001 A 
ATOM     14  C   UNL     1      -1.470   0.425   5.511  0.00  0.00    +0.009 A 
ENDBRANCH   5   9
BRANCH   3  15
ATOM     15  C   UNL     1       1.794  -3.304   2.885  0.00  0.00    +0.342 C 
ATOM     16  O   UNL     1       2.929  -2.898   3.047  0.00  0.00    -0.245 OA
BRANCH  15  17
ATOM     17  O   UNL     1       1.544  -4.630   2.900  0.00  0.00    -0.461 OA
BRANCH  17  19
ATOM     18  C   UNL     1       2.200  -6.967   3.099  0.00  0.00    +0.048 C 
ATOM     19  C   UNL     1       2.676  -5.513   3.114  0.00  0.00    +0.229 C 
ENDBRANCH  17  19
ENDBRANCH  15  17
ENDBRANCH   3  15
ENDBRANCH   1   7
BRANCH   1  20
ATOM     20  C   UNL     1       0.288  -1.823  -1.065  0.00  0.00    +0.296 C 
BRANCH  20  21
ATOM     21  C   UNL     1       0.950  -2.533  -2.247  0.00  0.00    +0.438 C 
ATOM     22  F   UNL     1       0.422  -2.036  -3.444  0.00  0.00    -0.166 F 
ATOM     23  F   UNL     1       2.329  -2.304  -2.216  0.00  0.00    -0.166 F 
ATOM     24  F   UNL     1       0.702  -3.907  -2.164  0.00  0.00    -0.166 F 
ENDBRANCH  20  21
BRANCH  20  25
ATOM     25  N   UNL     1       0.483  -0.376  -1.192  0.00  0.00    -0.272 N 
ATOM     26  C   UNL     1      -0.037   0.284  -2.245  0.00  0.00    +0.282 C 
ATOM     27  O   UNL     1      -0.756  -0.300  -3.034  0.00  0.00    -0.267 OA
ATOM     28  H   UNL     1       0.988   0.106  -0.518  0.00  0.00    +0.152 HD
BRANCH  26  29
ATOM     29  C   UNL     1       0.263   1.706  -2.439  0.00  0.00    +0.189 A 
ATOM     30  C   UNL     1      -0.197   2.491  -3.458  0.00  0.00    +0.054 A 
ATOM     31  C   UNL     1       0.335   3.774  -3.251  0.00  0.00    +0.042 A 
ATOM     32  C   UNL     1       1.086   3.716  -2.129  0.00  0.00    +0.196 A 
ATOM     33  O   UNL     1       1.036   2.470  -1.640  0.00  0.00    -0.458 OA
ENDBRANCH  26  29
ENDBRANCH  20  25
BRANCH  20  34
ATOM     34  C   UNL     1      -1.187  -2.131  -1.055  0.00  0.00    +0.359 C 
ATOM     35  O   UNL     1      -1.982  -1.294  -1.411  0.00  0.00    -0.246 OA
BRANCH  34  36
ATOM     36  O   UNL     1      -1.618  -3.336  -0.650  0.00  0.00    -0.465 OA
ATOM     37  C   UNL     1      -3.052  -3.563  -0.667  0.00  0.00    +0.280 C 
ENDBRANCH  34  36
ENDBRANCH  20  34
ENDBRANCH   1  20
TORSDOF 11
