REMARK  Name = ZINC39595812
REMARK  8 active torsions:
REMARK  status: ('A' for Active; 'I' for Inactive)
REMARK    1  A    between atoms: C_1  and  C_2
REMARK    2  A    between atoms: C_2  and  C_4
REMARK    3  A    between atoms: C_2  and  O_32
REMARK    4  A    between atoms: C_4  and  N_5
REMARK    5  A    between atoms: C_6  and  C_8
REMARK    6  A    between atoms: C_19  and  C_21
REMARK    7  A    between atoms: C_25  and  C_27
REMARK    8  A    between atoms: O_32  and  C_33
REMARK                            x       y       z     vdW  Elec       q    Type
REMARK                         _______ _______ _______ _____ _____    ______ ____
ROOT
ATOM      1  C   UNL     1      -0.652  -4.896  -1.531  0.00  0.00    +0.100 C 
ATOM      2  C   UNL     1      -2.184  -5.080  -1.618  0.00  0.00    +0.121 C 
ATOM      3  N   UNL     1      -2.414  -5.679  -2.954  0.00  0.00    -0.296 N 
ATOM      4  C   UNL     1      -1.298  -6.640  -3.124  0.00  0.00    +0.115 C 
ATOM      5  C   UNL     1      -0.075  -5.924  -2.518  0.00  0.00    -0.004 C 
ATOM      6  C   UNL     1       0.717  -5.217  -3.614  0.00  0.00    -0.010 C 
ATOM      7  C   UNL     1       1.329  -6.263  -4.551  0.00  0.00    -0.082 C 
ATOM      8  N   UNL     1       2.206  -7.156  -3.784  0.00  0.00    +0.379 N 
ATOM      9  C   UNL     1       1.420  -7.901  -2.793  0.00  0.00    -0.082 C 
ATOM     10  C   UNL     1       0.812  -6.924  -1.782  0.00  0.00    -0.010 C 
ATOM     11  C   UNL     1      -3.413  -5.411  -3.818  0.00  0.00    +0.247 C 
ATOM     12  O   UNL     1      -4.197  -4.513  -3.581  0.00  0.00    -0.270 OA
ATOM     13  H   UNL     1       2.655  -7.805  -4.413  0.00  0.00    -0.086 HD
ATOM     14  H   UNL     1       2.910  -6.609  -3.311  0.00  0.00    -0.086 HD
ENDROOT
BRANCH  11  15
ATOM     15  C   UNL     1      -3.553  -6.207  -5.054  0.00  0.00    +0.038 A 
ATOM     16  C   UNL     1      -2.984  -7.480  -5.137  0.00  0.00    +0.016 A 
ATOM     17  C   UNL     1      -3.118  -8.219  -6.292  0.00  0.00    +0.039 A 
ATOM     18  C   UNL     1      -3.817  -7.701  -7.372  0.00  0.00    +0.135 A 
ATOM     19  C   UNL     1      -4.384  -6.438  -7.296  0.00  0.00    +0.091 A 
ATOM     20  C   UNL     1      -4.261  -5.693  -6.143  0.00  0.00    +0.028 A 
ATOM     21  F   UNL     1      -3.945  -8.429  -8.503  0.00  0.00    -0.205 F 
BRANCH  19  22
ATOM     22  C   UNL     1      -5.142  -5.882  -8.474  0.00  0.00    +0.420 C 
ATOM     23  F   UNL     1      -5.617  -4.604  -8.161  0.00  0.00    -0.166 F 
ATOM     24  F   UNL     1      -4.291  -5.804  -9.581  0.00  0.00    -0.166 F 
ATOM     25  F   UNL     1      -6.221  -6.721  -8.772  0.00  0.00    -0.166 F 
ENDBRANCH  19  22
ENDBRANCH  11  15
BRANCH   1  27
ATOM     26  N   UNL     1       0.845  -2.930  -1.439  0.00  0.00    -0.312 N 
ATOM     27  C   UNL     1      -0.267  -3.499  -1.943  0.00  0.00    +0.218 C 
ATOM     28  O   UNL     1      -0.959  -2.886  -2.729  0.00  0.00    -0.275 OA
ATOM     29  H   UNL     1       1.399  -3.420  -0.811  0.00  0.00    +0.149 HD
BRANCH  26  30
ATOM     30  C   UNL     1       1.220  -1.571  -1.840  0.00  0.00    +0.148 C 
BRANCH  30  32
ATOM     31  C   UNL     1       2.903   0.252  -1.547  0.00  0.00    +0.053 C 
ATOM     32  C   UNL     1       2.512  -1.167  -1.128  0.00  0.00    +0.187 C 
BRANCH  32  33
ATOM     33  O   UNL     1       2.310  -1.208   0.286  0.00  0.00    -0.488 OA
BRANCH  33  34
ATOM     34  C   UNL     1       3.411  -1.398   1.061  0.00  0.00    +0.121 A 
ATOM     35  C   UNL     1       3.274  -1.569   2.431  0.00  0.00    +0.048 A 
ATOM     36  C   UNL     1       4.393  -1.763   3.217  0.00  0.00    +0.042 A 
ATOM     37  C   UNL     1       5.651  -1.785   2.639  0.00  0.00    +0.124 A 
ATOM     38  C   UNL     1       5.789  -1.614   1.273  0.00  0.00    +0.042 A 
ATOM     39  C   UNL     1       4.671  -1.427   0.483  0.00  0.00    +0.048 A 
ATOM     40  F   UNL     1       6.744  -1.973   3.410  0.00  0.00    -0.205 F 
ENDBRANCH  33  34
ENDBRANCH  32  33
ENDBRANCH  30  32
ENDBRANCH  26  30
ENDBRANCH   1  27
TORSDOF 7
