REMARK  Name = ZINC44707857
REMARK  6 active torsions:
REMARK  status: ('A' for Active; 'I' for Inactive)
REMARK    1  A    between atoms: C_1  and  C_2
REMARK    2  A    between atoms: C_8  and  C_12
REMARK    3  A    between atoms: C_12  and  C_13
REMARK    4  A    between atoms: C_13  and  N_14
REMARK    5  A    between atoms: C_15  and  C_17
REMARK    6  A    between atoms: C_28  and  C_30
REMARK                            x       y       z     vdW  Elec       q    Type
REMARK                         _______ _______ _______ _____ _____    ______ ____
ROOT
ATOM      1  C   UNL     1      -2.522  -2.013   7.803  0.00  0.00    +0.100 C 
ATOM      2  C   UNL     1      -1.668  -0.771   8.145  0.00  0.00    +0.121 C 
ATOM      3  N   UNL     1      -2.640   0.345   8.212  0.00  0.00    -0.296 N 
ATOM      4  C   UNL     1      -3.830  -0.242   8.873  0.00  0.00    +0.115 C 
ATOM      5  C   UNL     1      -3.939  -1.663   8.286  0.00  0.00    -0.004 C 
ATOM      6  C   UNL     1      -4.389  -2.647   9.362  0.00  0.00    -0.010 C 
ATOM      7  C   UNL     1      -5.822  -2.314   9.784  0.00  0.00    -0.082 C 
ATOM      8  N   UNL     1      -6.710  -2.395   8.618  0.00  0.00    +0.379 N 
ATOM      9  C   UNL     1      -6.327  -1.382   7.627  0.00  0.00    -0.082 C 
ATOM     10  C   UNL     1      -4.915  -1.675   7.113  0.00  0.00    -0.010 C 
ATOM     11  C   UNL     1      -2.479   1.608   7.771  0.00  0.00    +0.248 C 
ATOM     12  O   UNL     1      -1.474   1.915   7.158  0.00  0.00    -0.270 OA
ATOM     13  H   UNL     1      -6.637  -3.312   8.204  0.00  0.00    -0.086 HD
ATOM     14  H   UNL     1      -7.662  -2.235   8.910  0.00  0.00    -0.086 HD
ENDROOT
BRANCH  11  15
ATOM     15  C   UNL     1      -3.517   2.614   8.030  0.00  0.00    +0.052 A 
ATOM     16  C   UNL     1      -4.234   2.599   9.184  0.00  0.00    +0.059 A 
ATOM     17  S   UNL     1      -5.290   3.898   9.069  0.00  0.00    -0.096 S 
ATOM     18  C   UNL     1      -4.835   4.533   7.479  0.00  0.00    +0.020 A 
ATOM     19  C   UNL     1      -3.807   3.669   7.055  0.00  0.00    +0.001 A 
ATOM     20  C   UNL     1      -3.225   3.925   5.799  0.00  0.00    +0.010 A 
ATOM     21  C   UNL     1      -3.654   4.984   5.038  0.00  0.00    +0.001 A 
ATOM     22  C   UNL     1      -4.666   5.824   5.481  0.00  0.00    +0.001 A 
ATOM     23  C   UNL     1      -5.262   5.590   6.705  0.00  0.00    +0.015 A 
ENDBRANCH  11  15
BRANCH   1  25
ATOM     24  N   UNL     1      -2.636  -3.513   5.839  0.00  0.00    -0.315 N 
ATOM     25  C   UNL     1      -2.519  -2.257   6.316  0.00  0.00    +0.218 C 
ATOM     26  O   UNL     1      -2.413  -1.325   5.548  0.00  0.00    -0.275 OA
ATOM     27  H   UNL     1      -2.721  -4.259   6.453  0.00  0.00    +0.149 HD
BRANCH  24  28
ATOM     28  C   UNL     1      -2.634  -3.751   4.393  0.00  0.00    +0.109 C 
BRANCH  28  29
ATOM     29  C   UNL     1      -2.778  -5.250   4.123  0.00  0.00    +0.056 C 
BRANCH  29  37
ATOM     30  C   UNL     1       2.131  -5.791   1.221  0.00  0.00    +0.044 C 
ATOM     31  C   UNL     1       0.646  -5.813   0.970  0.00  0.00    -0.050 A 
ATOM     32  C   UNL     1       0.167  -6.019  -0.317  0.00  0.00    +0.005 A 
ATOM     33  C   UNL     1      -1.187  -6.043  -0.567  0.00  0.00    +0.026 A 
ATOM     34  C   UNL     1      -2.087  -5.859   0.478  0.00  0.00    +0.047 A 
ATOM     35  C   UNL     1      -1.597  -5.651   1.780  0.00  0.00    +0.003 A 
ATOM     36  C   UNL     1      -0.220  -5.636   2.012  0.00  0.00    +0.013 A 
ATOM     37  C   UNL     1      -2.775  -5.494   2.636  0.00  0.00    -0.021 A 
ATOM     38  C   UNL     1      -3.853  -5.610   1.844  0.00  0.00    +0.087 A 
ATOM     39  N   UNL     1      -3.461  -5.828   0.551  0.00  0.00    -0.360 N 
ATOM     40  H   UNL     1      -4.062  -5.945  -0.201  0.00  0.00    +0.165 HD
ENDBRANCH  29  37
ENDBRANCH  28  29
ENDBRANCH  24  28
ENDBRANCH   1  25
TORSDOF 5
