REMARK  Name = ZINC35497978
REMARK  4 active torsions:
REMARK  status: ('A' for Active; 'I' for Inactive)
REMARK    1  A    between atoms: C_1  and  N_2
REMARK    2  A    between atoms: N_2  and  C_3
REMARK    3  A    between atoms: C_3  and  C_5
REMARK    4  A    between atoms: C_3  and  C_11
REMARK                            x       y       z     vdW  Elec       q    Type
REMARK                         _______ _______ _______ _____ _____    ______ ____
ROOT
ATOM      1  C   UNL     1       0.713  -0.491   1.192  0.00  0.00    -0.002 C 
ENDROOT
BRANCH   1   2
ATOM      2  C   UNL     1       0.841  -1.991   1.123  0.00  0.00    -0.037 A 
ATOM      3  C   UNL     1       0.003  -2.718   0.298  0.00  0.00    +0.019 A 
ATOM      4  C   UNL     1       0.120  -4.095   0.234  0.00  0.00    +0.018 A 
ATOM      5  C   UNL     1       1.076  -4.744   0.996  0.00  0.00    +0.017 A 
ATOM      6  C   UNL     1       1.913  -4.017   1.820  0.00  0.00    +0.021 A 
ATOM      7  C   UNL     1       1.800  -2.639   1.879  0.00  0.00    +0.043 A 
ATOM      8 CL   UNL     1       2.857  -1.725   2.909  0.00  0.00    -0.083 Cl
ATOM      9 BR   UNL     1      -1.026  -5.090  -0.893  0.00  0.00    -0.050 Br
ENDBRANCH   1   2
BRANCH   1  10
ATOM     10  C   UNL     1      -0.059  -0.109   2.429  0.00  0.00    -0.019 A 
ATOM     11  C   UNL     1       0.406   0.339   3.620  0.00  0.00    +0.011 A 
ATOM     12  C   UNL     1      -0.498   0.631   4.626  0.00  0.00    +0.028 A 
ATOM     13  C   UNL     1      -1.822   0.459   4.389  0.00  0.00    +0.078 A 
ATOM     14  S   UNL     1      -1.823  -0.123   2.702  0.00  0.00    -0.083 S 
ATOM     15 CL   UNL     1      -3.168   0.740   5.450  0.00  0.00    -0.076 Cl
ENDBRANCH   1  10
BRANCH   1  17
ATOM     16  C   UNL     1      -0.018   1.465   0.010  0.00  0.00    -0.099 C 
ATOM     17  N   UNL     1       0.002  -0.004   0.002  0.00  0.00    +0.385 N 
ATOM     18  H   UNL     1      -0.945  -0.353   0.009  0.00  0.00    -0.085 HD
ATOM     19  H   UNL     1       0.474  -0.330  -0.828  0.00  0.00    -0.085 HD
ENDBRANCH   1  17
TORSDOF 3
