REMARK  Name = ZINC34947279
REMARK  10 active torsions:
REMARK  status: ('A' for Active; 'I' for Inactive)
REMARK    1  A    between atoms: C_1  and  C_2
REMARK    2  A    between atoms: C_5  and  S_8
REMARK    3  A    between atoms: S_8  and  N_11
REMARK    4  A    between atoms: N_11  and  C_12
REMARK    5  A    between atoms: N_11  and  C_23
REMARK    6  A    between atoms: C_12  and  C_13
REMARK    7  A    between atoms: C_13  and  C_14
REMARK    8  A    between atoms: C_14  and  N_15
REMARK    9  A    between atoms: C_20  and  C_22
REMARK   10  A    between atoms: C_23  and  C_24
REMARK                            x       y       z     vdW  Elec       q    Type
REMARK                         _______ _______ _______ _____ _____    ______ ____
ROOT
ATOM      1  N   UNL     1       1.737  -4.983  -0.134  0.00  0.00    -0.172 NA
ENDROOT
BRANCH   1   2
ATOM      2  S   UNL     1       0.178  -4.486   0.120  0.00  0.00    +0.061 S 
ATOM      3  O   UNL     1      -0.268  -5.136   1.302  0.00  0.00    -0.153 OA
ATOM      4  O   UNL     1      -0.497  -4.617  -1.123  0.00  0.00    -0.153 OA
BRANCH   2   9
ATOM      5  C   UNL     1       0.366   1.415   1.364  0.00  0.00    +0.044 C 
ATOM      6  C   UNL     1       0.320  -0.058   1.053  0.00  0.00    -0.050 A 
ATOM      7  C   UNL     1       0.298  -0.488  -0.261  0.00  0.00    +0.005 A 
ATOM      8  C   UNL     1       0.255  -1.840  -0.546  0.00  0.00    +0.029 A 
ATOM      9  C   UNL     1       0.234  -2.762   0.483  0.00  0.00    +0.106 A 
ATOM     10  C   UNL     1       0.257  -2.333   1.797  0.00  0.00    +0.029 A 
ATOM     11  C   UNL     1       0.304  -0.982   2.082  0.00  0.00    +0.005 A 
ENDBRANCH   2   9
ENDBRANCH   1   2
BRANCH   1  12
ATOM     12  C   UNL     1       2.596  -5.312   1.006  0.00  0.00    +0.108 C 
BRANCH  12  13
ATOM     13  C   UNL     1       2.544  -6.819   1.266  0.00  0.00    -0.001 C 
BRANCH  13  14
ATOM     14  C   UNL     1       3.441  -7.163   2.457  0.00  0.00    -0.077 C 
BRANCH  14  15
ATOM     15  N   UNL     1       3.391  -8.610   2.706  0.00  0.00    +0.381 N 
ATOM     16  C   UNL     1       3.965  -9.322   1.559  0.00  0.00    -0.078 C 
ATOM     17  C   UNL     1       3.842 -10.832   1.778  0.00  0.00    -0.019 C 
ATOM     18  C   UNL     1       4.597 -11.221   3.052  0.00  0.00    -0.003 C 
ATOM     19  C   UNL     1       4.040 -10.416   4.229  0.00  0.00    -0.016 C 
ATOM     20  C   UNL     1       4.156  -8.922   3.920  0.00  0.00    -0.072 C 
ATOM     21  C   UNL     1       3.600  -8.114   5.094  0.00  0.00    -0.013 C 
ATOM     22  H   UNL     1       2.432  -8.895   2.832  0.00  0.00    -0.081 HD
ENDBRANCH  14  15
ENDBRANCH  13  14
ENDBRANCH  12  13
ENDBRANCH   1  12
BRANCH   1  23
ATOM     23  C   UNL     1       2.258  -5.095  -1.499  0.00  0.00    +0.145 C 
BRANCH  23  24
ATOM     24  C   UNL     1       2.613  -6.531  -1.786  0.00  0.00    -0.016 A 
ATOM     25  C   UNL     1       3.897  -7.002  -1.519  0.00  0.00    -0.013 A 
ATOM     26  C   UNL     1       4.887  -6.154  -0.979  0.00  0.00    +0.009 A 
ATOM     27  C   UNL     1       6.128  -6.646  -0.731  0.00  0.00    +0.001 A 
ATOM     28  C   UNL     1       6.457  -7.976  -0.997  0.00  0.00    +0.001 A 
ATOM     29  C   UNL     1       5.552  -8.844  -1.517  0.00  0.00    +0.008 A 
ATOM     30  C   UNL     1       4.242  -8.400  -1.799  0.00  0.00    -0.017 A 
ATOM     31  C   UNL     1       3.289  -9.265  -2.333  0.00  0.00    +0.017 A 
ATOM     32  C   UNL     1       2.005  -8.793  -2.600  0.00  0.00    -0.017 A 
ATOM     33  C   UNL     1       1.657  -7.397  -2.314  0.00  0.00    -0.013 A 
ATOM     34  C   UNL     1       0.346  -6.955  -2.590  0.00  0.00    +0.009 A 
ATOM     35  C   UNL     1      -0.560  -7.825  -3.104  0.00  0.00    +0.001 A 
ATOM     36  C   UNL     1      -0.231  -9.155  -3.370  0.00  0.00    +0.001 A 
ATOM     37  C   UNL     1       1.015  -9.642  -3.141  0.00  0.00    +0.008 A 
ENDBRANCH  23  24
ENDBRANCH   1  23
TORSDOF 8
