REMARK  Name = ZINC08909046
REMARK  10 active torsions:
REMARK  status: ('A' for Active; 'I' for Inactive)
REMARK    1  A    between atoms: C_1  and  C_2
REMARK    2  A    between atoms: C_5  and  C_36
REMARK    3  A    between atoms: C_6  and  N_8
REMARK    4  A    between atoms: C_9  and  C_11
REMARK    5  A    between atoms: C_11  and  S_12
REMARK    6  A    between atoms: S_12  and  C_13
REMARK    7  A    between atoms: C_19  and  C_21
REMARK    8  A    between atoms: N_26  and  C_28
REMARK    9  A    between atoms: C_31  and  C_35
REMARK   10  A    between atoms: C_32  and  C_34
REMARK                            x       y       z     vdW  Elec       q    Type
REMARK                         _______ _______ _______ _____ _____    ______ ____
ROOT
ATOM      1  C   UNL     1       5.318   0.119  -0.195  0.00  0.00    +0.160 A 
ATOM      2  N   UNL     1       4.276  -0.699  -0.218  0.00  0.00    -0.133 NA
ATOM      3  N   UNL     1       3.091  -0.270  -0.198  0.00  0.00    -0.125 NA
ATOM      4  C   UNL     1       2.813   1.023  -0.165  0.00  0.00    +0.189 A 
ATOM      5  S   UNL     1       4.472   1.697  -0.148  0.00  0.00    -0.024 S 
ATOM      6  N   UNL     1       1.583   1.675  -0.144  0.00  0.00    -0.263 N 
ATOM      7  C   UNL     1       0.441   0.959  -0.163  0.00  0.00    +0.224 C 
ATOM      8  O   UNL     1       0.485  -0.253  -0.199  0.00  0.00    -0.275 OA
ATOM      9  H   UNL     1       1.547   2.644  -0.115  0.00  0.00    +0.157 HD
ENDROOT
BRANCH   7  10
ATOM     10  C   UNL     1      -0.891   1.664  -0.147  0.00  0.00    +0.102 C 
ATOM     11  C   UNL     1      -1.093   2.434   1.179  0.00  0.00    +0.110 C 
ATOM     12  C   UNL     1      -1.838   1.459   2.064  0.00  0.00    +0.221 C 
ATOM     13  O   UNL     1      -1.949   1.558   3.268  0.00  0.00    -0.275 OA
ATOM     14  N   UNL     1      -2.361   0.467   1.322  0.00  0.00    -0.271 N 
ATOM     15  C   UNL     1      -2.054   0.648  -0.103  0.00  0.00    +0.127 C 
BRANCH  14  16
ATOM     16  C   UNL     1      -3.102  -0.600   1.840  0.00  0.00    +0.037 A 
ATOM     17  C   UNL     1      -3.428  -0.631   3.190  0.00  0.00    +0.024 A 
ATOM     18  C   UNL     1      -4.164  -1.683   3.697  0.00  0.00    +0.005 A 
ATOM     19  C   UNL     1      -4.568  -2.711   2.865  0.00  0.00    -0.047 A 
ATOM     20  C   UNL     1      -4.242  -2.686   1.522  0.00  0.00    -0.046 A 
ATOM     21  C   UNL     1      -3.510  -1.633   1.007  0.00  0.00    +0.027 A 
ATOM     22  C   UNL     1      -4.685  -3.808   0.618  0.00  0.00    +0.044 C 
ATOM     23  C   UNL     1      -5.367  -3.861   3.423  0.00  0.00    +0.044 C 
ENDBRANCH  14  16
ENDBRANCH   7  10
BRANCH   1  24
ATOM     24  S   UNL     1       7.043  -0.242  -0.209  0.00  0.00    -0.088 S 
BRANCH  24  25
ATOM     25  C   UNL     1       7.111  -2.054  -0.262  0.00  0.00    +0.172 C 
BRANCH  25  27
ATOM     26  N   UNL     1       8.846  -3.816  -0.316  0.00  0.00    -0.285 N 
ATOM     27  C   UNL     1       8.550  -2.502  -0.277  0.00  0.00    +0.227 C 
ATOM     28  O   UNL     1       9.441  -1.679  -0.255  0.00  0.00    -0.275 OA
ATOM     29  H   UNL     1       8.138  -4.475  -0.252  0.00  0.00    +0.155 HD
BRANCH  26  35
ATOM     30  C   UNL     1      13.438  -2.890  -1.809  0.00  0.00    +0.044 C 
ATOM     31  C   UNL     1      12.423  -3.801  -1.168  0.00  0.00    -0.049 A 
ATOM     32  C   UNL     1      12.807  -5.048  -0.709  0.00  0.00    +0.004 A 
ATOM     33  C   UNL     1      11.879  -5.886  -0.120  0.00  0.00    +0.005 A 
ATOM     34  C   UNL     1      10.566  -5.479   0.017  0.00  0.00    -0.029 A 
ATOM     35  C   UNL     1      10.177  -4.230  -0.448  0.00  0.00    +0.037 A 
ATOM     36  C   UNL     1      11.111  -3.390  -1.039  0.00  0.00    +0.027 A 
ATOM     37  C   UNL     1       9.556  -6.391   0.665  0.00  0.00    +0.045 C 
ENDBRANCH  26  35
ENDBRANCH  25  27
ENDBRANCH  24  25
ENDBRANCH   1  24
TORSDOF 6
