REMARK  Name = ZINC48302851
REMARK  9 active torsions:
REMARK  status: ('A' for Active; 'I' for Inactive)
REMARK    1  A    between atoms: C_1  and  C_2
REMARK    2  A    between atoms: C_2  and  N_3
REMARK    3  A    between atoms: N_3  and  C_4
REMARK    4  A    between atoms: N_3  and  S_6
REMARK    5  A    between atoms: C_4  and  C_5
REMARK    6  A    between atoms: S_6  and  N_9
REMARK    7  A    between atoms: N_9  and  C_10
REMARK    8  A    between atoms: C_10  and  C_11
REMARK    9  A    between atoms: N_20  and  C_23
REMARK                            x       y       z     vdW  Elec       q    Type
REMARK                         _______ _______ _______ _____ _____    ______ ____
ROOT
ATOM      1  C   UNL     1       0.445   2.099  -5.139  0.00  0.00    -0.027 A 
ATOM      2  C   UNL     1       0.283   1.698  -6.459  0.00  0.00    +0.022 A 
ATOM      3  C   UNL     1      -0.097   2.626  -7.407  0.00  0.00    +0.084 A 
ATOM      4  N   UNL     1      -0.306   3.886  -7.074  0.00  0.00    -0.350 N 
ATOM      5  C   UNL     1      -0.162   4.308  -5.828  0.00  0.00    +0.099 A 
ATOM      6  C   UNL     1       0.213   3.425  -4.820  0.00  0.00    +0.046 A 
ATOM      7  N   UNL     1      -0.392   5.644  -5.522  0.00  0.00    -0.314 N 
ATOM      8  C   UNL     1      -0.357   6.110  -4.128  0.00  0.00    +0.125 C 
ATOM      9  C   UNL     1       0.651   7.260  -4.020  0.00  0.00    +0.124 C 
ATOM     10  N   UNL     1       0.369   8.233  -5.085  0.00  0.00    -0.327 N 
ATOM     11  C   UNL     1       0.335   7.768  -6.479  0.00  0.00    +0.124 C 
ATOM     12  C   UNL     1      -0.668   6.619  -6.587  0.00  0.00    +0.125 C 
ATOM     13  H   UNL     1      -0.572   4.518  -7.760  0.00  0.00    +0.166 HD
ENDROOT
BRANCH  10  14
ATOM     14  C   UNL     1       0.138   9.577  -4.778  0.00  0.00    +0.030 A 
ATOM     15  C   UNL     1      -0.255  10.461  -5.774  0.00  0.00    +0.026 A 
ATOM     16  C   UNL     1      -0.484  11.788  -5.468  0.00  0.00    +0.040 A 
ATOM     17  C   UNL     1      -0.322  12.238  -4.169  0.00  0.00    +0.124 A 
ATOM     18  C   UNL     1       0.070  11.359  -3.173  0.00  0.00    +0.040 A 
ATOM     19  C   UNL     1       0.294  10.029  -3.474  0.00  0.00    +0.026 A 
ATOM     20  F   UNL     1      -0.546  13.537  -3.872  0.00  0.00    -0.205 F 
ENDBRANCH  10  14
BRANCH   1  21
ATOM     21  C   UNL     1       0.857   1.112  -4.078  0.00  0.00    +0.142 C 
BRANCH  21  22
ATOM     22  N   UNL     1      -0.337   0.501  -3.489  0.00  0.00    -0.175 NA
ATOM     23  H   UNL     1      -1.208   0.901  -3.635  0.00  0.00    +0.149 HD
BRANCH  22  24
ATOM     24  S   UNL     1      -0.198  -0.872  -2.573  0.00  0.00    +0.097 S 
ATOM     25  O   UNL     1       0.600  -1.779  -3.320  0.00  0.00    -0.141 OA
ATOM     26  O   UNL     1      -1.508  -1.197  -2.128  0.00  0.00    -0.141 OA
BRANCH  24  27
ATOM     27  N   UNL     1       0.675  -0.474  -1.223  0.00  0.00    -0.167 NA
BRANCH  27  29
ATOM     28  C   UNL     1      -0.033   1.528  -0.010  0.00  0.00    +0.022 C 
ATOM     29  C   UNL     1      -0.013  -0.002  -0.019  0.00  0.00    +0.107 C 
ENDBRANCH  27  29
BRANCH  27  30
ATOM     30  C   UNL     1       2.135  -0.595  -1.233  0.00  0.00    +0.107 C 
ATOM     31  C   UNL     1       2.539  -1.950  -0.649  0.00  0.00    +0.022 C 
ENDBRANCH  27  30
ENDBRANCH  24  27
ENDBRANCH  22  24
ENDBRANCH  21  22
ENDBRANCH   1  21
TORSDOF 7
