REMARK  Name = ZINC00901814
REMARK  11 active torsions:
REMARK  status: ('A' for Active; 'I' for Inactive)
REMARK    1  A    between atoms: C_1  and  N_2
REMARK    2  A    between atoms: N_2  and  C_3
REMARK    3  A    between atoms: N_2  and  S_4
REMARK    4  A    between atoms: S_4  and  C_7
REMARK    5  A    between atoms: C_10  and  N_13
REMARK    6  A    between atoms: N_13  and  C_14
REMARK    7  A    between atoms: C_14  and  C_16
REMARK    8  A    between atoms: C_14  and  C_21
REMARK    9  A    between atoms: N_23  and  C_24
REMARK   10  A    between atoms: C_30  and  C_32
REMARK   11  A    between atoms: C_32  and  N_33
REMARK                            x       y       z     vdW  Elec       q    Type
REMARK                         _______ _______ _______ _____ _____    ______ ____
ROOT
ATOM      1  N   UNL     1      -5.468   3.398  -1.598  0.00  0.00    -0.251 N 
ATOM      2  C   UNL     1      -4.174   3.689  -1.359  0.00  0.00    +0.242 C 
ATOM      3  O   UNL     1      -3.481   4.143  -2.245  0.00  0.00    -0.273 OA
ENDROOT
BRANCH   1   7
ATOM      4  C   UNL     1      -8.114   2.906   1.582  0.00  0.00    +0.106 A 
ATOM      5  C   UNL     1      -6.824   3.345   1.819  0.00  0.00    +0.030 A 
ATOM      6  C   UNL     1      -5.944   3.510   0.767  0.00  0.00    +0.025 A 
ATOM      7  C   UNL     1      -6.356   3.233  -0.530  0.00  0.00    +0.038 A 
ATOM      8  C   UNL     1      -7.654   2.797  -0.765  0.00  0.00    +0.025 A 
ATOM      9  C   UNL     1      -8.526   2.628   0.292  0.00  0.00    +0.030 A 
BRANCH   4  10
ATOM     10  S   UNL     1      -9.233   2.697   2.927  0.00  0.00    +0.060 S 
ATOM     11  O   UNL     1     -10.208   1.756   2.502  0.00  0.00    -0.153 OA
ATOM     12  O   UNL     1      -8.439   2.500   4.089  0.00  0.00    -0.153 OA
BRANCH  10  14
ATOM     13  C   UNL     1     -11.275   4.395   2.416  0.00  0.00    +0.131 C 
ATOM     14  N   UNL     1     -10.024   4.138   3.134  0.00  0.00    -0.183 NA
ATOM     15  C   UNL     1      -9.472   5.154   4.033  0.00  0.00    +0.131 C 
ENDBRANCH  10  14
ENDBRANCH   4  10
ENDBRANCH   1   7
BRANCH   1  16
ATOM     16  C   UNL     1      -5.944   3.254  -2.976  0.00  0.00    +0.233 C 
BRANCH  16  17
ATOM     17  C   UNL     1      -6.497   1.866  -3.174  0.00  0.00    +0.135 A 
ATOM     18  C   UNL     1      -6.331   1.102  -4.268  0.00  0.00    +0.047 A 
ATOM     19  C   UNL     1      -7.013  -0.112  -4.027  0.00  0.00    +0.041 A 
ATOM     20  C   UNL     1      -7.556  -0.018  -2.800  0.00  0.00    +0.195 A 
ATOM     21  O   UNL     1      -7.235   1.181  -2.286  0.00  0.00    -0.465 OA
ENDBRANCH  16  17
BRANCH  16  22
ATOM     22  C   UNL     1      -7.026   4.269  -3.242  0.00  0.00    +0.242 C 
ATOM     23  O   UNL     1      -7.365   5.037  -2.367  0.00  0.00    -0.273 OA
ATOM     24  N   UNL     1      -7.615   4.323  -4.453  0.00  0.00    -0.311 N 
ATOM     25  H   UNL     1      -7.344   3.709  -5.153  0.00  0.00    +0.149 HD
BRANCH  24  26
ATOM     26  C   UNL     1      -8.667   5.310  -4.711  0.00  0.00    +0.073 C 
ATOM     27  C   UNL     1     -10.014   4.755  -4.243  0.00  0.00    +0.022 C 
ATOM     28  C   UNL     1     -11.112   5.785  -4.513  0.00  0.00    +0.002 C 
ATOM     29  C   UNL     1     -11.176   6.081  -6.013  0.00  0.00    +0.000 C 
ATOM     30  C   UNL     1      -9.829   6.636  -6.481  0.00  0.00    +0.002 C 
ATOM     31  C   UNL     1      -8.731   5.606  -6.211  0.00  0.00    +0.022 C 
ENDBRANCH  24  26
ENDBRANCH  16  22
ENDBRANCH   1  16
BRANCH   2  32
ATOM     32  C   UNL     1      -3.588   3.451   0.009  0.00  0.00    +0.242 C 
BRANCH  32  33
ATOM     33  N   UNL     1      -2.161   3.144  -0.118  0.00  0.00    -0.235 N 
ATOM     34  C   UNL     1      -1.598   1.900  -0.274  0.00  0.00    +0.090 A 
ATOM     35  C   UNL     1      -2.112   0.611  -0.366  0.00  0.00    +0.029 A 
ATOM     36  C   UNL     1      -1.264  -0.450  -0.519  0.00  0.00    +0.002 A 
ATOM     37  C   UNL     1       0.108  -0.252  -0.594  0.00  0.00    +0.002 A 
ATOM     38  C   UNL     1       0.638   1.003  -0.511  0.00  0.00    +0.032 A 
ATOM     39  C   UNL     1      -0.210   2.107  -0.349  0.00  0.00    +0.113 A 
ATOM     40  N   UNL     1       0.013   3.432  -0.239  0.00  0.00    -0.129 NA
ATOM     41  N   UNL     1      -1.100   4.062  -0.103  0.00  0.00    -0.064 NA
ENDBRANCH  32  33
ENDBRANCH   2  32
TORSDOF 9
