REMARK  Name = ZINC04248444
REMARK  5 active torsions:
REMARK  status: ('A' for Active; 'I' for Inactive)
REMARK    1  A    between atoms: C_1  and  C_2
REMARK    2  A    between atoms: C_7  and  C_11
REMARK    3  A    between atoms: C_11  and  C_12
REMARK    4  A    between atoms: C_12  and  N_13
REMARK    5  A    between atoms: C_14  and  C_16
REMARK                            x       y       z     vdW  Elec       q    Type
REMARK                         _______ _______ _______ _____ _____    ______ ____
ROOT
ATOM      1  C   UNL     1       0.087  -5.536   2.312  0.00  0.00    +0.073 C 
ENDROOT
BRANCH   1   8
ATOM      2  C   UNL     1      -0.018   1.503   0.010  0.00  0.00    +0.044 C 
ATOM      3  C   UNL     1       0.002  -0.004   0.002  0.00  0.00    -0.046 A 
ATOM      4  C   UNL     1       0.006  -0.703  -1.216  0.00  0.00    +0.021 A 
ATOM      5  C   UNL     1       0.025  -2.052  -1.227  0.00  0.00    +0.093 A 
ATOM      6  N   UNL     1       0.040  -2.757  -0.058  0.00  0.00    -0.308 N 
ATOM      7  C   UNL     1       0.059  -4.097   0.214  0.00  0.00    +0.113 A 
ATOM      8  C   UNL     1       0.067  -4.231   1.559  0.00  0.00    +0.036 A 
ATOM      9  N   UNL     1       0.053  -3.014   2.108  0.00  0.00    -0.343 N 
ATOM     10  C   UNL     1       0.036  -2.103   1.146  0.00  0.00    +0.116 A 
ATOM     11  C   UNL     1       0.023  -0.694   1.174  0.00  0.00    +0.048 A 
ATOM     12  H   UNL     1       0.055  -2.827   3.060  0.00  0.00    +0.167 HD
ENDBRANCH   1   8
BRANCH   1  13
ATOM     13  C   UNL     1       1.531  -6.021   2.453  0.00  0.00    +0.111 C 
BRANCH  13  14
ATOM     14  N   UNL     1       1.551  -7.290   3.185  0.00  0.00    -0.308 N 
ATOM     15  C   UNL     1       2.723  -7.909   3.429  0.00  0.00    +0.279 C 
ATOM     16  O   UNL     1       3.765  -7.414   3.041  0.00  0.00    -0.267 OA
ATOM     17  H   UNL     1       0.720  -7.684   3.494  0.00  0.00    +0.149 HD
BRANCH  15  18
ATOM     18  C   UNL     1       2.743  -9.178   4.162  0.00  0.00    +0.191 A 
ATOM     19  C   UNL     1       3.855  -9.904   4.480  0.00  0.00    +0.056 A 
ATOM     20  C   UNL     1       3.412 -11.038   5.177  0.00  0.00    +0.058 A 
ATOM     21  C   UNL     1       2.063 -10.956   5.254  0.00  0.00    +0.171 A 
ATOM     22  O   UNL     1       1.665  -9.831   4.646  0.00  0.00    -0.444 OA
ATOM     23 BR   UNL     1       0.929 -12.218   6.089  0.00  0.00    -0.008 Br
ENDBRANCH  15  18
ENDBRANCH  13  14
ENDBRANCH   1  13
TORSDOF 4
