REMARK  Name = ZINC41583725
REMARK  6 active torsions:
REMARK  status: ('A' for Active; 'I' for Inactive)
REMARK    1  A    between atoms: C_1  and  C_2
REMARK    2  A    between atoms: C_5  and  C_30
REMARK    3  A    between atoms: N_8  and  C_10
REMARK    4  A    between atoms: C_10  and  C_11
REMARK    5  A    between atoms: C_12  and  O_29
REMARK    6  A    between atoms: C_19  and  C_20
REMARK                            x       y       z     vdW  Elec       q    Type
REMARK                         _______ _______ _______ _____ _____    ______ ____
ROOT
ATOM      1  C   UNL     1       2.155   0.251   3.580  0.00  0.00    +0.020 A 
ATOM      2  C   UNL     1       3.263  -0.474   3.171  0.00  0.00    +0.122 A 
ATOM      3  C   UNL     1       4.548  -0.047   3.495  0.00  0.00    +0.046 A 
ATOM      4  C   UNL     1       4.728   1.096   4.221  0.00  0.00    +0.019 A 
ATOM      5  C   UNL     1       3.622   1.837   4.638  0.00  0.00    +0.068 A 
ATOM      6  C   UNL     1       2.321   1.419   4.314  0.00  0.00    +0.144 A 
ATOM      7  O   UNL     1       1.423   2.293   4.816  0.00  0.00    -0.451 OA
ATOM      8  C   UNL     1       2.025   3.310   5.476  0.00  0.00    +0.176 C 
ATOM      9  C   UNL     1       1.402   4.346   6.092  0.00  0.00    +0.058 C 
ATOM     10  C   UNL     1       3.477   3.082   5.414  0.00  0.00    +0.231 C 
ATOM     11  O   UNL     1       4.362   3.773   5.887  0.00  0.00    -0.283 OA
ENDROOT
BRANCH   9  12
ATOM     12  C   UNL     1       2.190   5.468   6.621  0.00  0.00    -0.021 A 
ATOM     13  C   UNL     1       3.281   5.963   5.898  0.00  0.00    +0.009 A 
ATOM     14  C   UNL     1       4.016   7.016   6.400  0.00  0.00    +0.020 A 
ATOM     15  C   UNL     1       3.676   7.583   7.617  0.00  0.00    +0.041 A 
ATOM     16  C   UNL     1       2.597   7.098   8.339  0.00  0.00    +0.020 A 
ATOM     17  C   UNL     1       1.850   6.050   7.847  0.00  0.00    +0.009 A 
ATOM     18 CL   UNL     1       4.607   8.909   8.242  0.00  0.00    -0.084 Cl
ENDBRANCH   9  12
BRANCH   2  19
ATOM     19  O   UNL     1       3.094  -1.612   2.450  0.00  0.00    -0.506 OA
ATOM     20  H   UNL     1       3.076  -1.472   1.493  0.00  0.00    +0.292 HD
ENDBRANCH   2  19
BRANCH   1  21
ATOM     21  C   UNL     1       0.770  -0.223   3.222  0.00  0.00    -0.036 C 
BRANCH  21  27
ATOM     22  C   UNL     1       1.073   2.014  -0.343  0.00  0.00    +0.005 C 
ATOM     23  C   UNL     1       0.896   0.498  -0.459  0.00  0.00    -0.031 C 
ATOM     24  C   UNL     1      -0.561   0.179  -0.805  0.00  0.00    +0.003 C 
ATOM     25  C   UNL     1      -1.464   0.653   0.337  0.00  0.00    -0.031 C 
ATOM     26  C   UNL     1      -1.019  -0.012   1.641  0.00  0.00    -0.075 C 
ATOM     27  N   UNL     1       0.373   0.354   1.931  0.00  0.00    +0.383 N 
ATOM     28  C   UNL     1       1.254  -0.161   0.875  0.00  0.00    -0.075 C 
ATOM     29  C   UNL     1      -2.914   0.270   0.035  0.00  0.00    +0.005 C 
ATOM     30  H   UNL     1       0.454   1.358   1.975  0.00  0.00    -0.081 HD
ENDBRANCH  21  27
ENDBRANCH   1  21
TORSDOF 4
