REMARK  Name = ZINC14984566
REMARK  4 active torsions:
REMARK  status: ('A' for Active; 'I' for Inactive)
REMARK    1  A    between atoms: C_11  and  C_16
REMARK    2  A    between atoms: N_18  and  C_19
REMARK    3  A    between atoms: C_19  and  C_20
REMARK    4  A    between atoms: C_25  and  C_30
REMARK                            x       y       z     vdW  Elec       q    Type
REMARK                         _______ _______ _______ _____ _____    ______ ____
ROOT
ATOM      1  C   UNL     1      -0.423 -10.168  -0.469  0.00  0.00    +0.222 C 
ATOM      2  O   UNL     1      -1.342 -10.261  -1.255  0.00  0.00    -0.275 OA
ATOM      3  N   UNL     1      -0.100  -8.967   0.050  0.00  0.00    -0.311 N 
ATOM      4  H   UNL     1       0.635  -8.892   0.678  0.00  0.00    +0.149 HD
ENDROOT
BRANCH   1  15
ATOM      5  C   UNL     1      -1.843 -16.564  -2.313  0.00  0.00    +0.001 A 
ATOM      6  C   UNL     1      -1.930 -15.826  -3.483  0.00  0.00    +0.002 A 
ATOM      7  C   UNL     1      -1.537 -14.501  -3.551  0.00  0.00    +0.026 A 
ATOM      8  C   UNL     1      -1.043 -13.928  -2.380  0.00  0.00    +0.047 A 
ATOM      9  C   UNL     1      -0.962 -14.689  -1.177  0.00  0.00    +0.003 A 
ATOM     10  C   UNL     1      -1.361 -16.026  -1.146  0.00  0.00    +0.010 A 
ATOM     11  C   UNL     1      -0.412 -13.796  -0.178  0.00  0.00    -0.018 A 
ATOM     12  C   UNL     1      -0.204 -12.604  -0.783  0.00  0.00    +0.032 A 
ATOM     13  N   UNL     1      -0.578 -12.676  -2.100  0.00  0.00    -0.357 N 
ATOM     14  H   UNL     1      -0.522 -11.946  -2.736  0.00  0.00    +0.166 HD
ATOM     15  C   UNL     1       0.358 -11.394  -0.074  0.00  0.00    +0.122 C 
ATOM     16  C   UNL     1       0.243 -11.613   1.438  0.00  0.00    +0.019 C 
ATOM     17  C   UNL     1       0.822 -12.983   1.800  0.00  0.00    +0.006 C 
ATOM     18  C   UNL     1      -0.107 -14.082   1.270  0.00  0.00    +0.037 C 
ENDBRANCH   1  15
BRANCH   3  19
ATOM     19  C   UNL     1      -0.859  -7.774  -0.334  0.00  0.00    +0.149 C 
BRANCH  19  20
ATOM     20  C   UNL     1      -0.293  -6.553   0.393  0.00  0.00    +0.195 C 
ATOM     21  C   UNL     1      -1.072  -5.274   0.004  0.00  0.00    +0.085 C 
ATOM     22  C   UNL     1       0.029  -4.231  -0.019  0.00  0.00    -0.002 A 
ATOM     23  C   UNL     1      -0.004  -2.857  -0.012  0.00  0.00    +0.017 A 
ATOM     24  C   UNL     1       1.189  -2.133  -0.020  0.00  0.00    +0.002 A 
ATOM     25  C   UNL     1       2.406  -2.815  -0.041  0.00  0.00    +0.013 A 
ATOM     26  C   UNL     1       2.429  -4.191  -0.046  0.00  0.00    +0.046 A 
ATOM     27  C   UNL     1       1.239  -4.917  -0.042  0.00  0.00    +0.124 A 
ATOM     28  O   UNL     1       1.040  -6.263  -0.061  0.00  0.00    -0.487 OA
BRANCH  24  29
ATOM     29  C   UNL     1       1.163  -0.651  -0.013  0.00  0.00    +0.089 A 
ATOM     30  C   UNL     1       2.358   0.070  -0.020  0.00  0.00    +0.139 A 
ATOM     31  N   UNL     1       2.329   1.389  -0.013  0.00  0.00    -0.260 NA
ATOM     32  C   UNL     1       1.171   2.027   0.002  0.00  0.00    +0.130 A 
ATOM     33  C   UNL     1      -0.016   1.316   0.009  0.00  0.00    +0.131 A 
ATOM     34  N   UNL     1       0.002  -0.004   0.002  0.00  0.00    -0.252 NA
ENDBRANCH  24  29
ENDBRANCH  19  20
ENDBRANCH   3  19
TORSDOF 4
