REMARK  Name = ZINC08752704
REMARK  10 active torsions:
REMARK  status: ('A' for Active; 'I' for Inactive)
REMARK    1  A    between atoms: C_1  and  C_2
REMARK    2  A    between atoms: C_2  and  N_3
REMARK    3  A    between atoms: N_3  and  C_14
REMARK    4  A    between atoms: C_4  and  C_6
REMARK    5  A    between atoms: C_6  and  S_7
REMARK    6  A    between atoms: S_7  and  C_8
REMARK    7  A    between atoms: C_14  and  C_19
REMARK    8  A    between atoms: N_21  and  C_22
REMARK    9  A    between atoms: C_22  and  C_24
REMARK   10  A    between atoms: C_22  and  C_31
REMARK                            x       y       z     vdW  Elec       q    Type
REMARK                         _______ _______ _______ _____ _____    ______ ____
ROOT
ATOM      1  C   UNL     1       7.477  -4.184   1.253  0.00  0.00    +0.237 C 
ATOM      2  O   UNL     1       7.819  -5.204   1.814  0.00  0.00    -0.273 OA
ATOM      3  N   UNL     1       7.855  -2.986   1.743  0.00  0.00    -0.303 N 
ATOM      4  H   UNL     1       7.523  -2.170   1.338  0.00  0.00    +0.150 HD
ENDROOT
BRANCH   1   5
ATOM      5  C   UNL     1       6.630  -4.256   0.009  0.00  0.00    +0.113 C 
ATOM      6  C   UNL     1       7.527  -4.245  -1.242  0.00  0.00    +0.035 C 
ATOM      7  C   UNL     1       7.258  -5.568  -1.988  0.00  0.00    +0.003 C 
ATOM      8  C   UNL     1       5.844  -5.989  -1.517  0.00  0.00    +0.003 C 
ATOM      9  C   UNL     1       5.847  -5.584  -0.022  0.00  0.00    +0.035 C 
BRANCH   5  10
ATOM     10  N   UNL     1       5.701  -3.124  -0.031  0.00  0.00    -0.287 N 
ATOM     11  C   UNL     1       4.895  -2.876   1.021  0.00  0.00    +0.227 C 
ATOM     12  O   UNL     1       4.874  -3.641   1.962  0.00  0.00    -0.275 OA
BRANCH  10  14
ATOM     13  C   UNL     1       6.741  -1.197  -1.120  0.00  0.00    +0.024 C 
ATOM     14  C   UNL     1       5.647  -2.262  -1.214  0.00  0.00    +0.105 C 
ENDBRANCH  10  14
BRANCH  11  15
ATOM     15  C   UNL     1       4.020  -1.649   1.027  0.00  0.00    +0.173 C 
BRANCH  15  16
ATOM     16  S   UNL     1       3.064  -1.598   2.563  0.00  0.00    -0.077 S 
BRANCH  16  17
ATOM     17  C   UNL     1       2.158  -0.108   2.310  0.00  0.00    +0.184 A 
ATOM     18  N   UNL     1       1.263   0.433   3.164  0.00  0.00    -0.254 N 
ATOM     19  H   UNL     1       0.996   0.081   4.027  0.00  0.00    +0.191 HD
ATOM     20  N   UNL     1       0.794   1.608   2.553  0.00  0.00    -0.160 NA
ATOM     21  C   UNL     1       1.408   1.712   1.405  0.00  0.00    +0.245 A 
ATOM     22  N   UNL     1       2.234   0.675   1.255  0.00  0.00    -0.209 NA
ENDBRANCH  16  17
ENDBRANCH  15  16
ENDBRANCH  11  15
ENDBRANCH   5  10
ENDBRANCH   1   5
BRANCH   3  23
ATOM     23  C   UNL     1       8.768  -2.918   2.887  0.00  0.00    +0.135 C 
BRANCH  23  24
ATOM     24  C   UNL     1       8.565  -1.613   3.614  0.00  0.00    -0.023 A 
ATOM     25  C   UNL     1       8.362  -0.448   2.898  0.00  0.00    +0.007 A 
ATOM     26  C   UNL     1       8.171   0.748   3.564  0.00  0.00    +0.020 A 
ATOM     27  C   UNL     1       8.194   0.781   4.947  0.00  0.00    +0.041 A 
ATOM     28  C   UNL     1       8.402  -0.385   5.662  0.00  0.00    +0.020 A 
ATOM     29  C   UNL     1       8.588  -1.581   4.996  0.00  0.00    +0.007 A 
ATOM     30 CL   UNL     1       7.960   2.283   5.784  0.00  0.00    -0.084 Cl
ENDBRANCH  23  24
BRANCH  23  31
ATOM     31  C   UNL     1      10.191  -3.006   2.401  0.00  0.00    -0.005 A 
ATOM     32  C   UNL     1      10.506  -2.619   1.111  0.00  0.00    +0.007 A 
ATOM     33  C   UNL     1      11.812  -2.700   0.665  0.00  0.00    +0.000 A 
ATOM     34  C   UNL     1      12.803  -3.167   1.508  0.00  0.00    +0.001 A 
ATOM     35  C   UNL     1      12.489  -3.555   2.796  0.00  0.00    +0.020 A 
ATOM     36  C   UNL     1      11.184  -3.469   3.246  0.00  0.00    +0.046 A 
ATOM     37 CL   UNL     1      10.790  -3.948   4.867  0.00  0.00    -0.083 Cl
ENDBRANCH  23  31
ENDBRANCH   3  23
TORSDOF 9
