REMARK  Name = ZINC39229396
REMARK  8 active torsions:
REMARK  status: ('A' for Active; 'I' for Inactive)
REMARK    1  A    between atoms: C_1  and  C_2
REMARK    2  A    between atoms: C_2  and  C_4
REMARK    3  A    between atoms: C_2  and  N_18
REMARK    4  A    between atoms: C_4  and  C_5
REMARK    5  A    between atoms: C_4  and  C_11
REMARK    6  A    between atoms: C_4  and  O_17
REMARK    7  A    between atoms: C_19  and  C_21
REMARK    8  A    between atoms: C_31  and  C_34
REMARK                            x       y       z     vdW  Elec       q    Type
REMARK                         _______ _______ _______ _____ _____    ______ ____
ROOT
ATOM      1  N   UNL     1       0.723  -0.254  -1.272  0.00  0.00    -0.305 N 
ATOM      2  C   UNL     1       0.009  -0.594  -2.363  0.00  0.00    +0.246 C 
ATOM      3  O   UNL     1      -1.204  -0.500  -2.349  0.00  0.00    -0.270 OA
ATOM      4  H   UNL     1       1.690  -0.328  -1.282  0.00  0.00    +0.149 HD
ENDROOT
BRANCH   2   5
ATOM      5  C   UNL     1       0.698  -1.079  -3.574  0.00  0.00    +0.055 A 
ATOM      6  C   UNL     1      -0.036  -1.431  -4.718  0.00  0.00    +0.018 A 
ATOM      7  C   UNL     1       0.644  -1.876  -5.818  0.00  0.00    +0.044 A 
ATOM      8  C   UNL     1       2.035  -1.967  -5.772  0.00  0.00    +0.121 A 
ATOM      9  N   UNL     1       2.704  -1.629  -4.678  0.00  0.00    -0.240 NA
ATOM     10  C   UNL     1       2.088  -1.190  -3.600  0.00  0.00    +0.126 A 
ATOM     11  N   UNL     1       2.726  -2.418  -6.884  0.00  0.00    -0.318 N 
ATOM     12  C   UNL     1       4.156  -2.753  -6.800  0.00  0.00    +0.087 C 
ATOM     13  C   UNL     1       4.891  -2.032  -7.936  0.00  0.00    -0.062 C 
ATOM     14  N   UNL     1       4.263  -2.373  -9.218  0.00  0.00    +0.386 N 
ATOM     15  C   UNL     1       2.886  -1.863  -9.252  0.00  0.00    -0.023 C 
ATOM     16  C   UNL     1       2.051  -2.581  -8.180  0.00  0.00    +0.095 C 
ATOM     17  H   UNL     1       4.792  -1.960  -9.971  0.00  0.00    -0.085 HD
ATOM     18  H   UNL     1       4.251  -3.376  -9.329  0.00  0.00    -0.085 HD
BRANCH  15  19
ATOM     19  C   UNL     1       2.287  -2.122 -10.611  0.00  0.00    -0.060 A 
ATOM     20  C   UNL     1       2.532  -3.319 -11.257  0.00  0.00    +0.002 A 
ATOM     21  C   UNL     1       1.983  -3.557 -12.503  0.00  0.00    +0.000 A 
ATOM     22  C   UNL     1       1.188  -2.597 -13.103  0.00  0.00    +0.000 A 
ATOM     23  C   UNL     1       0.943  -1.401 -12.456  0.00  0.00    +0.000 A 
ATOM     24  C   UNL     1       1.489  -1.165 -11.208  0.00  0.00    +0.002 A 
ENDBRANCH  15  19
ENDBRANCH   2   5
BRANCH   1  26
ATOM     25  C   UNL     1      -0.212   1.732  -0.194  0.00  0.00    +0.031 C 
ATOM     26  C   UNL     1       0.039   0.228  -0.069  0.00  0.00    +0.111 C 
BRANCH  26  27
ATOM     27  C   UNL     1       0.911  -0.044   1.158  0.00  0.00    +0.134 C 
BRANCH  27  28
ATOM     28  C   UNL     1       0.157   0.339   2.405  0.00  0.00    -0.010 A 
ATOM     29  C   UNL     1      -1.221   0.243   2.436  0.00  0.00    +0.007 A 
ATOM     30  C   UNL     1      -1.913   0.595   3.580  0.00  0.00    +0.000 A 
ATOM     31  C   UNL     1      -1.226   1.041   4.694  0.00  0.00    +0.000 A 
ATOM     32  C   UNL     1       0.153   1.136   4.663  0.00  0.00    +0.000 A 
ATOM     33  C   UNL     1       0.845   0.780   3.520  0.00  0.00    +0.007 A 
ENDBRANCH  27  28
BRANCH  27  34
ATOM     34  C   UNL     1       1.260  -1.509   1.211  0.00  0.00    -0.010 A 
ATOM     35  C   UNL     1       0.389  -2.446   0.688  0.00  0.00    +0.007 A 
ATOM     36  C   UNL     1       0.709  -3.790   0.737  0.00  0.00    +0.000 A 
ATOM     37  C   UNL     1       1.899  -4.197   1.309  0.00  0.00    +0.000 A 
ATOM     38  C   UNL     1       2.771  -3.260   1.832  0.00  0.00    +0.000 A 
ATOM     39  C   UNL     1       2.453  -1.915   1.779  0.00  0.00    +0.007 A 
ENDBRANCH  27  34
BRANCH  27  40
ATOM     40  O   UNL     1       2.111   0.728   1.070  0.00  0.00    -0.377 OA
ATOM     41  H   UNL     1       2.647   0.534   0.289  0.00  0.00    +0.211 HD
ENDBRANCH  27  40
ENDBRANCH  26  27
ENDBRANCH   1  26
TORSDOF 7
