REMARK  Name = ZINC54615856
REMARK  13 active torsions:
REMARK  status: ('A' for Active; 'I' for Inactive)
REMARK    1  A    between atoms: C_1  and  C_2
REMARK    2  A    between atoms: C_2  and  N_3
REMARK    3  A    between atoms: N_3  and  C_4
REMARK    4  A    between atoms: C_4  and  C_5
REMARK    5  A    between atoms: C_6  and  C_8
REMARK    6  A    between atoms: C_8  and  O_9
REMARK    7  A    between atoms: O_9  and  C_10
REMARK    8  A    between atoms: C_13  and  C_16
REMARK    9  A    between atoms: C_18  and  C_27
REMARK   10  A    between atoms: C_19  and  C_26
REMARK   11  A    between atoms: N_29  and  C_30
REMARK   12  A    between atoms: C_34  and  C_37
REMARK   13  A    between atoms: C_35  and  C_36
REMARK                            x       y       z     vdW  Elec       q    Type
REMARK                         _______ _______ _______ _____ _____    ______ ____
ROOT
ATOM      1  C   UNL     1       1.802  -3.207  -9.659  0.00  0.00    +0.177 C 
ATOM      2  C   UNL     1       1.086  -4.496  -9.964  0.00  0.00    +0.060 C 
ATOM      3  C   UNL     1       0.146  -4.604 -10.914  0.00  0.00    +0.018 C 
ATOM      4  N   UNL     1      -0.230  -3.540 -11.697  0.00  0.00    -0.287 N 
ATOM      5  C   UNL     1       0.571  -2.407 -11.661  0.00  0.00    +0.218 A 
ATOM      6  N   UNL     1       1.530  -2.238 -10.717  0.00  0.00    -0.221 N 
ATOM      7  N   UNL     1       2.137  -1.012 -10.984  0.00  0.00    -0.156 NA
ATOM      8  C   UNL     1       1.535  -0.512 -12.035  0.00  0.00    +0.247 A 
ATOM      9  N   UNL     1       0.585  -1.361 -12.442  0.00  0.00    -0.201 NA
ATOM     10  C   UNL     1      -0.519  -5.939 -11.131  0.00  0.00    +0.061 C 
ATOM     11  H   UNL     1      -1.024  -3.579 -12.252  0.00  0.00    +0.155 HD
ENDROOT
BRANCH   1  15
ATOM     12  C   UNL     1       0.425  -1.660  -5.921  0.00  0.00    +0.121 A 
ATOM     13  C   UNL     1       1.765  -1.973  -6.092  0.00  0.00    +0.046 A 
ATOM     14  C   UNL     1       2.208  -2.474  -7.301  0.00  0.00    +0.009 A 
ATOM     15  C   UNL     1       1.317  -2.661  -8.341  0.00  0.00    -0.018 A 
ATOM     16  C   UNL     1      -0.020  -2.349  -8.174  0.00  0.00    +0.009 A 
ATOM     17  C   UNL     1      -0.469  -1.855  -6.965  0.00  0.00    +0.046 A 
BRANCH  12  18
ATOM     18  O   UNL     1      -0.013  -1.168  -4.733  0.00  0.00    -0.483 OA
BRANCH  18  19
ATOM     19  C   UNL     1       0.963  -0.994  -3.704  0.00  0.00    +0.324 C 
BRANCH  19  21
ATOM     20  N   UNL     1       1.028  -0.197  -1.363  0.00  0.00    -0.299 N 
ATOM     21  C   UNL     1       0.297  -0.444  -2.468  0.00  0.00    +0.253 C 
ATOM     22  O   UNL     1      -0.895  -0.223  -2.469  0.00  0.00    -0.272 OA
BRANCH  20  24
ATOM     23  C   UNL     1       0.405   1.867  -0.208  0.00  0.00    +0.024 C 
ATOM     24  C   UNL     1       0.381   0.338  -0.162  0.00  0.00    +0.104 C 
ENDBRANCH  20  24
BRANCH  20  25
ATOM     25  C   UNL     1       2.468  -0.464  -1.362  0.00  0.00    +0.104 C 
ATOM     26  C   UNL     1       2.721  -1.899  -0.897  0.00  0.00    +0.024 C 
ENDBRANCH  20  25
ENDBRANCH  19  21
ENDBRANCH  18  19
ENDBRANCH  12  18
ENDBRANCH   1  15
BRANCH   2  27
ATOM     27  C   UNL     1       1.421  -5.647  -9.212  0.00  0.00    +0.248 C 
ATOM     28  O   UNL     1       2.421  -6.285  -9.489  0.00  0.00    -0.270 OA
ATOM     29  N   UNL     1       0.634  -6.037  -8.190  0.00  0.00    -0.281 N 
ATOM     30  H   UNL     1      -0.195  -5.567  -8.010  0.00  0.00    +0.155 HD
BRANCH  29  31
ATOM     31  C   UNL     1       1.014  -7.118  -7.389  0.00  0.00    +0.037 A 
ATOM     32  C   UNL     1       1.691  -8.195  -7.948  0.00  0.00    +0.023 A 
ATOM     33  C   UNL     1       2.064  -9.261  -7.154  0.00  0.00    +0.002 A 
ATOM     34  C   UNL     1       1.764  -9.259  -5.804  0.00  0.00    +0.004 A 
ATOM     35  C   UNL     1       1.089  -8.190  -5.245  0.00  0.00    -0.046 A 
ATOM     36  C   UNL     1       0.719  -7.116  -6.032  0.00  0.00    -0.026 A 
ATOM     37  C   UNL     1      -0.010  -5.948  -5.420  0.00  0.00    +0.046 C 
ATOM     38  C   UNL     1       0.762  -8.192  -3.774  0.00  0.00    +0.044 C 
ENDBRANCH  29  31
ENDBRANCH   2  27
TORSDOF 8
