REMARK  Name = ZINC12403689
REMARK  6 active torsions:
REMARK  status: ('A' for Active; 'I' for Inactive)
REMARK    1  A    between atoms: C_1  and  C_2
REMARK    2  A    between atoms: C_5  and  C_22
REMARK    3  A    between atoms: N_9  and  N_10
REMARK    4  A    between atoms: C_11  and  C_13
REMARK    5  A    between atoms: C_18  and  N_19
REMARK    6  A    between atoms: C_22  and  C_24
REMARK                            x       y       z     vdW  Elec       q    Type
REMARK                         _______ _______ _______ _____ _____    ______ ____
ROOT
ATOM      1  N   UNL     1      -0.171  -0.165   3.896  0.00  0.00    -0.203 N 
ATOM      2  C   UNL     1       0.396   0.186   5.068  0.00  0.00    +0.265 C 
ATOM      3  O   UNL     1       0.853   1.304   5.211  0.00  0.00    -0.268 OA
ATOM      4  H   UNL     1      -0.535  -1.056   3.782  0.00  0.00    +0.178 HD
ENDROOT
BRANCH   1  12
ATOM      5  C   UNL     1      -0.538   2.822   0.821  0.00  0.00    +0.045 C 
ATOM      6  C   UNL     1      -0.858   1.367   0.592  0.00  0.00    -0.032 C 
ATOM      7  C   UNL     1      -1.202   0.953  -0.617  0.00  0.00    -0.021 C 
ATOM      8  C   UNL     1      -1.546  -0.473  -0.931  0.00  0.00    +0.035 C 
ATOM      9  C   UNL     1      -0.947  -1.425   0.102  0.00  0.00    +0.024 C 
ATOM     10  C   UNL     1      -1.362  -0.965   1.507  0.00  0.00    +0.065 C 
ATOM     11  C   UNL     1      -0.779   0.419   1.714  0.00  0.00    +0.062 C 
ATOM     12  N   UNL     1      -0.233   0.758   2.844  0.00  0.00    -0.184 NA
BRANCH   9  13
ATOM     13  C   UNL     1      -1.457  -2.822  -0.144  0.00  0.00    -0.076 C 
ATOM     14  C   UNL     1      -0.615  -3.789  -0.410  0.00  0.00    +0.007 C 
ATOM     15  C   UNL     1      -2.936  -3.105  -0.085  0.00  0.00    +0.039 C 
ENDBRANCH   9  13
ENDBRANCH   1  12
BRANCH   2  16
ATOM     16  C   UNL     1       0.462  -0.787   6.178  0.00  0.00    +0.068 A 
ATOM     17  C   UNL     1      -0.702  -1.408   6.636  0.00  0.00    +0.015 A 
ATOM     18  C   UNL     1      -0.634  -2.315   7.673  0.00  0.00    +0.001 A 
ATOM     19  C   UNL     1       0.585  -2.610   8.259  0.00  0.00    +0.002 A 
ATOM     20  C   UNL     1       1.742  -1.999   7.810  0.00  0.00    +0.033 A 
ATOM     21  C   UNL     1       1.688  -1.094   6.770  0.00  0.00    +0.138 A 
BRANCH  21  22
ATOM     22  N   UNL     1       2.928  -0.445   6.286  0.00  0.00    +0.057 N 
ATOM     23  O   UNL     1       3.969  -0.616   6.877  0.00  0.00    -0.126 OA
ATOM     24  O   UNL     1       2.899   0.255   5.301  0.00  0.00    -0.126 OA
ENDBRANCH  21  22
ENDBRANCH   2  16
TORSDOF 4
