REMARK  Name = ZINC20759151
REMARK  7 active torsions:
REMARK  status: ('A' for Active; 'I' for Inactive)
REMARK    1  A    between atoms: C_1  and  S_2
REMARK    2  A    between atoms: S_2  and  C_3
REMARK    3  A    between atoms: C_6  and  C_9
REMARK    4  A    between atoms: C_22  and  C_25
REMARK    5  A    between atoms: N_27  and  C_28
REMARK    6  A    between atoms: C_31  and  N_34
REMARK    7  A    between atoms: N_34  and  C_35
REMARK                            x       y       z     vdW  Elec       q    Type
REMARK                         _______ _______ _______ _____ _____    ______ ____
ROOT
ATOM      1  C   UNL     1       6.872   9.716   0.027  0.00  0.00    +0.105 C 
ATOM      2  C   UNL     1       7.966  10.340   0.868  0.00  0.00    +0.029 C 
ATOM      3  C   UNL     1       8.006  11.868   0.980  0.00  0.00    +0.033 C 
ATOM      4  C   UNL     1       9.503  12.119   1.183  0.00  0.00    -0.030 C 
ATOM      5  C   UNL     1      10.205  11.128   0.644  0.00  0.00    -0.023 C 
ATOM      6  C   UNL     1       9.262  10.170   0.016  0.00  0.00    +0.049 C 
ATOM      7  C   UNL     1       9.533   8.717  -0.059  0.00  0.00    -0.019 A 
ATOM      8  C   UNL     1      10.817   8.221  -0.111  0.00  0.00    +0.006 A 
ATOM      9  C   UNL     1      11.049   6.858  -0.200  0.00  0.00    +0.001 A 
ATOM     10  C   UNL     1       9.985   5.983  -0.246  0.00  0.00    +0.015 A 
ATOM     11  C   UNL     1       8.680   6.467  -0.195  0.00  0.00    +0.058 A 
ATOM     12  C   UNL     1       8.435   7.853  -0.093  0.00  0.00    +0.044 A 
ATOM     13  N   UNL     1       7.116   8.264   0.007  0.00  0.00    -0.336 N 
ATOM     14  H   UNL     1       6.271   7.564   0.071  0.00  0.00    +0.147 HD
ENDROOT
BRANCH   1  18
ATOM     15  C   UNL     1       7.024  11.271  -3.951  0.00  0.00    +0.008 A 
ATOM     16  C   UNL     1       7.704  10.101  -3.634  0.00  0.00    +0.015 A 
ATOM     17  C   UNL     1       7.652   9.602  -2.348  0.00  0.00    +0.006 A 
ATOM     18  C   UNL     1       6.926  10.264  -1.375  0.00  0.00    -0.027 A 
ATOM     19  C   UNL     1       6.244  11.426  -1.688  0.00  0.00    +0.006 A 
ATOM     20  C   UNL     1       6.295  11.934  -2.971  0.00  0.00    +0.015 A 
BRANCH  15  22
ATOM     21  C   UNL     1       6.072  13.414  -5.514  0.00  0.00    +0.090 C 
ATOM     22  S   UNL     1       7.087  11.913  -5.591  0.00  0.00    -0.129 S 
ENDBRANCH  15  22
ENDBRANCH   1  18
BRANCH  11  23
ATOM     23  C   UNL     1       7.547   5.526  -0.255  0.00  0.00    +0.250 C 
ATOM     24  O   UNL     1       6.406   5.944  -0.211  0.00  0.00    -0.270 OA
ATOM     25  N   UNL     1       7.776   4.202  -0.359  0.00  0.00    -0.281 N 
ATOM     26  H   UNL     1       8.806   3.827  -0.453  0.00  0.00    +0.155 HD
BRANCH  25  27
ATOM     27  C   UNL     1       6.702   3.302  -0.346  0.00  0.00    +0.034 A 
ATOM     28  C   UNL     1       6.848   2.055   0.248  0.00  0.00    +0.025 A 
ATOM     29  C   UNL     1       5.790   1.169   0.261  0.00  0.00    +0.025 A 
ATOM     30  C   UNL     1       4.580   1.524  -0.321  0.00  0.00    +0.031 A 
ATOM     31  C   UNL     1       4.436   2.769  -0.920  0.00  0.00    +0.025 A 
ATOM     32  C   UNL     1       5.492   3.657  -0.928  0.00  0.00    +0.025 A 
BRANCH  30  33
ATOM     33  N   UNL     1       3.507   0.625  -0.308  0.00  0.00    -0.314 N 
ATOM     34  H   UNL     1       3.697  -0.458  -0.341  0.00  0.00    +0.152 HD
BRANCH  33  35
ATOM     35  C   UNL     1       2.196   1.104  -0.255  0.00  0.00    +0.031 A 
ATOM     36  C   UNL     1       1.157   0.348  -0.783  0.00  0.00    +0.023 A 
ATOM     37  C   UNL     1      -0.138   0.826  -0.734  0.00  0.00    +0.002 A 
ATOM     38  C   UNL     1      -0.402   2.052  -0.149  0.00  0.00    +0.000 A 
ATOM     39  C   UNL     1       0.630   2.807   0.377  0.00  0.00    +0.002 A 
ATOM     40  C   UNL     1       1.928   2.337   0.327  0.00  0.00    +0.023 A 
ENDBRANCH  33  35
ENDBRANCH  30  33
ENDBRANCH  25  27
ENDBRANCH  11  23
TORSDOF 6
