REMARK  Name = ZINC34829547
REMARK  13 active torsions:
REMARK  status: ('A' for Active; 'I' for Inactive)
REMARK    1  A    between atoms: C_1  and  C_2
REMARK    2  A    between atoms: C_2  and  N_3
REMARK    3  A    between atoms: N_6  and  C_9
REMARK    4  A    between atoms: C_10  and  C_21
REMARK    5  A    between atoms: C_11  and  C_20
REMARK    6  A    between atoms: N_13  and  C_14
REMARK    7  A    between atoms: C_21  and  N_22
REMARK    8  A    between atoms: N_22  and  C_23
REMARK    9  A    between atoms: C_23  and  C_24
REMARK   10  A    between atoms: C_24  and  C_25
REMARK   11  A    between atoms: C_24  and  C_26
REMARK   12  A    between atoms: C_27  and  C_29
REMARK   13  A    between atoms: C_32  and  C_35
REMARK                            x       y       z     vdW  Elec       q    Type
REMARK                         _______ _______ _______ _____ _____    ______ ____
ROOT
ATOM      1  C   UNL     1       0.822  -2.506   4.133  0.00  0.00    +0.130 A 
ATOM      2  C   UNL     1       0.989  -3.857   4.176  0.00  0.00    +0.032 A 
ATOM      3  C   UNL     1       0.419  -4.322   5.365  0.00  0.00    +0.067 A 
ATOM      4  N   UNL     1      -0.073  -3.299   6.017  0.00  0.00    -0.170 NA
ATOM      5  N   UNL     1       0.170  -2.139   5.270  0.00  0.00    -0.218 N 
ATOM      6  C   UNL     1       0.379  -5.758   5.819  0.00  0.00    +0.068 C 
ENDROOT
BRANCH   1  10
ATOM      7  N   UNL     1       1.605   0.680   1.624  0.00  0.00    +0.382 N 
ATOM      8  C   UNL     1       2.278   0.544   2.922  0.00  0.00    -0.060 C 
ATOM      9  C   UNL     1       2.527  -0.940   3.214  0.00  0.00    +0.088 C 
ATOM     10  N   UNL     1       1.246  -1.655   3.116  0.00  0.00    -0.318 N 
ATOM     11  C   UNL     1       0.425  -1.447   1.914  0.00  0.00    +0.088 C 
ATOM     12  C   UNL     1       0.275   0.061   1.683  0.00  0.00    -0.060 C 
ATOM     13  H   UNL     1       2.156   0.224   0.913  0.00  0.00    -0.082 HD
BRANCH   7  15
ATOM     14  C   UNL     1       2.852   2.724   1.110  0.00  0.00    -0.017 C 
ATOM     15  C   UNL     1       1.465   2.105   1.295  0.00  0.00    -0.082 C 
ENDBRANCH   7  15
ENDBRANCH   1  10
BRANCH   5  16
ATOM     16  C   UNL     1      -0.197  -0.835   5.628  0.00  0.00    +0.067 A 
ATOM     17  C   UNL     1       0.723   0.200   5.522  0.00  0.00    +0.028 A 
ATOM     18  C   UNL     1       0.359   1.485   5.875  0.00  0.00    +0.002 A 
ATOM     19  C   UNL     1      -0.920   1.741   6.333  0.00  0.00    +0.000 A 
ATOM     20  C   UNL     1      -1.839   0.713   6.441  0.00  0.00    +0.002 A 
ATOM     21  C   UNL     1      -1.482  -0.573   6.084  0.00  0.00    +0.028 A 
ENDBRANCH   5  16
BRANCH   2  22
ATOM     22  C   UNL     1       1.667  -4.700   3.128  0.00  0.00    +0.148 C 
BRANCH  22  23
ATOM     23  N   UNL     1       3.059  -4.937   3.517  0.00  0.00    -0.293 N 
ATOM     24  C   UNL     1       4.038  -4.147   3.032  0.00  0.00    +0.247 C 
ATOM     25  O   UNL     1       3.759  -3.199   2.325  0.00  0.00    -0.270 OA
BRANCH  24  26
ATOM     26  C   UNL     1       5.451  -4.436   3.359  0.00  0.00    +0.037 A 
ATOM     27  C   UNL     1       5.837  -5.727   3.720  0.00  0.00    +0.013 A 
ATOM     28  C   UNL     1       7.157  -5.989   4.024  0.00  0.00    +0.013 A 
ATOM     29  C   UNL     1       8.097  -4.975   3.971  0.00  0.00    +0.055 A 
ATOM     30  C   UNL     1       7.721  -3.693   3.614  0.00  0.00    +0.013 A 
ATOM     31  C   UNL     1       6.405  -3.418   3.302  0.00  0.00    +0.013 A 
BRANCH  29  32
ATOM     32  C   UNL     1       9.537  -5.269   4.305  0.00  0.00    +0.417 C 
ATOM     33  F   UNL     1      10.218  -5.644   3.142  0.00  0.00    -0.166 F 
ATOM     34  F   UNL     1      10.133  -4.125   4.846  0.00  0.00    -0.166 F 
ATOM     35  F   UNL     1       9.597  -6.311   5.237  0.00  0.00    -0.166 F 
ENDBRANCH  29  32
ENDBRANCH  24  26
BRANCH  23  36
ATOM     36  C   UNL     1       3.388  -6.032   4.434  0.00  0.00    +0.111 C 
BRANCH  36  37
ATOM     37  C   UNL     1       3.268  -7.367   3.697  0.00  0.00    +0.000 C 
ATOM     38  C   UNL     1       3.742  -7.197   2.252  0.00  0.00    +0.009 C 
ATOM     39  C   UNL     1       4.134  -8.416   4.397  0.00  0.00    +0.009 C 
ENDBRANCH  36  37
ENDBRANCH  23  36
ENDBRANCH  22  23
ENDBRANCH   2  22
TORSDOF 9
