REMARK  Name = ZINC08381610
REMARK  6 active torsions:
REMARK  status: ('A' for Active; 'I' for Inactive)
REMARK    1  A    between atoms: C_4  and  C_7
REMARK    2  A    between atoms: C_10  and  S_13
REMARK    3  A    between atoms: S_13  and  C_14
REMARK    4  A    between atoms: C_14  and  C_15
REMARK    5  A    between atoms: N_17  and  C_18
REMARK    6  A    between atoms: C_21  and  N_24
REMARK                            x       y       z     vdW  Elec       q    Type
REMARK                         _______ _______ _______ _____ _____    ______ ____
ROOT
ATOM      1  C   UNL     1       4.359  -5.032  -0.060  0.00  0.00    +0.173 C 
ENDROOT
BRANCH   1   2
ATOM      2  C   UNL     1       4.808  -6.471  -0.080  0.00  0.00    +0.227 C 
ATOM      3  O   UNL     1       5.991  -6.737  -0.102  0.00  0.00    -0.275 OA
ATOM      4  N   UNL     1       3.895  -7.462  -0.074  0.00  0.00    -0.285 N 
ATOM      5  H   UNL     1       2.952  -7.251   0.010  0.00  0.00    +0.155 HD
BRANCH   4   6
ATOM      6  C   UNL     1       4.307  -8.794  -0.191  0.00  0.00    +0.034 A 
ATOM      7  C   UNL     1       3.526  -9.705  -0.889  0.00  0.00    +0.025 A 
ATOM      8  C   UNL     1       3.935 -11.019  -1.002  0.00  0.00    +0.034 A 
ATOM      9  C   UNL     1       5.122 -11.428  -0.421  0.00  0.00    +0.126 A 
ATOM     10  C   UNL     1       5.902 -10.523   0.275  0.00  0.00    +0.034 A 
ATOM     11  C   UNL     1       5.501  -9.206   0.386  0.00  0.00    +0.025 A 
BRANCH   9  12
ATOM     12  N   UNL     1       5.558 -12.837  -0.545  0.00  0.00    +0.056 N 
ATOM     13  O   UNL     1       4.877 -13.630  -1.153  0.00  0.00    -0.126 OA
ATOM     14  O   UNL     1       6.595 -13.195  -0.037  0.00  0.00    -0.126 OA
ENDBRANCH   9  12
ENDBRANCH   4   6
ENDBRANCH   1   2
BRANCH   1  15
ATOM     15  S   UNL     1       5.812  -3.945  -0.074  0.00  0.00    -0.077 S 
BRANCH  15  19
ATOM     16  C   UNL     1       3.698  -0.689  -0.009  0.00  0.00    +0.182 A 
ATOM     17  N   UNL     1       3.849  -2.022  -0.024  0.00  0.00    -0.201 NA
ATOM     18  H   UNL     1       6.795  -1.072  -0.064  0.00  0.00    +0.191 HD
ATOM     19  C   UNL     1       5.129  -2.321  -0.048  0.00  0.00    +0.185 A 
ATOM     20  N   UNL     1       5.830  -1.165  -0.049  0.00  0.00    -0.253 N 
ATOM     21  N   UNL     1       4.885  -0.127  -0.029  0.00  0.00    -0.152 NA
BRANCH  16  25
ATOM     22  C   UNL     1      -0.017   1.378   0.070  0.00  0.00    +0.000 A 
ATOM     23  C   UNL     1       1.168   2.091   0.058  0.00  0.00    +0.001 A 
ATOM     24  C   UNL     1       2.377   1.425   0.032  0.00  0.00    +0.011 A 
ATOM     25  C   UNL     1       2.402   0.032   0.019  0.00  0.00    +0.021 A 
ATOM     26  C   UNL     1       1.205  -0.681   0.031  0.00  0.00    +0.011 A 
ATOM     27  C   UNL     1       0.002  -0.005   0.056  0.00  0.00    +0.001 A 
ENDBRANCH  16  25
ENDBRANCH  15  19
ENDBRANCH   1  15
TORSDOF 6
