REMARK  Name = ZINC36252149
REMARK  5 active torsions:
REMARK  status: ('A' for Active; 'I' for Inactive)
REMARK    1  A    between atoms: C_1  and  C_2
REMARK    2  A    between atoms: C_7  and  C_12
REMARK    3  A    between atoms: C_10  and  N_11
REMARK    4  A    between atoms: C_12  and  C_13
REMARK    5  A    between atoms: C_12  and  C_14
REMARK                            x       y       z     vdW  Elec       q    Type
REMARK                         _______ _______ _______ _____ _____    ______ ____
ROOT
ATOM      1  C   UNL     1      -0.018   1.503   0.010  0.00  0.00    +0.046 C 
ATOM      2  C   UNL     1       0.002  -0.004   0.002  0.00  0.00    -0.025 A 
ATOM      3  C   UNL     1       0.006  -0.680  -1.177  0.00  0.00    +0.053 A 
ATOM      4  C   UNL     1       0.025  -2.088  -1.166  0.00  0.00    +0.161 A 
ATOM      5  N   UNL     1       0.034  -3.005  -2.121  0.00  0.00    -0.129 NA
ATOM      6  N   UNL     1       0.052  -4.177  -1.590  0.00  0.00    -0.133 NA
ATOM      7  C   UNL     1       0.058  -4.083  -0.285  0.00  0.00    +0.140 A 
ATOM      8  N   UNL     1       0.041  -2.760   0.031  0.00  0.00    -0.284 N 
ATOM      9  C   UNL     1       0.037  -2.074   1.212  0.00  0.00    +0.117 A 
ATOM     10  C   UNL     1       0.023  -0.719   1.218  0.00  0.00    +0.044 A 
ENDROOT
BRANCH  10  11
ATOM     11  N   UNL     1       0.025  -0.025   2.435  0.00  0.00    -0.357 N 
ATOM     12  H   UNL     1       0.012   0.944   2.441  0.00  0.00    +0.142 HD
ATOM     13  H   UNL     1       0.040  -0.515   3.272  0.00  0.00    +0.142 HD
ENDBRANCH  10  11
BRANCH   7  14
ATOM     14  C   UNL     1       0.078  -5.232   0.691  0.00  0.00    +0.051 C 
ATOM     15  C   UNL     1      -1.161  -6.105   0.476  0.00  0.00    +0.015 C 
ATOM     16  C   UNL     1       1.338  -6.070   0.465  0.00  0.00    +0.015 C 
ENDBRANCH   7  14
TORSDOF 2
