REMARK  Name = ZINC34729757
REMARK  9 active torsions:
REMARK  status: ('A' for Active; 'I' for Inactive)
REMARK    1  A    between atoms: C_1  and  C_2
REMARK    2  A    between atoms: C_7  and  N_8
REMARK    3  A    between atoms: C_9  and  C_11
REMARK    4  A    between atoms: C_11  and  N_12
REMARK    5  A    between atoms: N_24  and  C_27
REMARK    6  A    between atoms: C_27  and  C_28
REMARK    7  A    between atoms: C_28  and  C_29
REMARK    8  A    between atoms: C_29  and  C_30
REMARK    9  A    between atoms: C_29  and  C_31
REMARK                            x       y       z     vdW  Elec       q    Type
REMARK                         _______ _______ _______ _____ _____    ______ ____
ROOT
ATOM      1  N   UNL     1      -0.241  -0.905   5.988  0.00  0.00    -0.278 N 
ATOM      2  C   UNL     1      -1.463  -1.369   6.405  0.00  0.00    +0.097 A 
ATOM      3  C   UNL     1      -1.567  -2.280   7.454  0.00  0.00    +0.074 A 
ATOM      4  C   UNL     1      -2.927  -2.693   7.798  0.00  0.00    -0.023 A 
ATOM      5  C   UNL     1      -3.896  -2.132   7.048  0.00  0.00    -0.004 A 
ATOM      6  S   UNL     1      -3.034  -1.083   5.914  0.00  0.00    -0.075 S 
ATOM      7  C   UNL     1      -5.371  -2.361   7.165  0.00  0.00    +0.043 C 
ATOM      8  C   UNL     1      -5.598  -3.616   8.020  0.00  0.00    +0.005 C 
ATOM      9  C   UNL     1      -4.734  -3.521   9.280  0.00  0.00    +0.005 C 
ATOM     10  C   UNL     1      -3.257  -3.676   8.912  0.00  0.00    +0.037 C 
ATOM     11  C   UNL     1      -0.291  -2.702   8.073  0.00  0.00    +0.265 A 
ATOM     12  O   UNL     1      -0.287  -3.496   8.996  0.00  0.00    -0.267 OA
ATOM     13  N   UNL     1       0.864  -2.198   7.604  0.00  0.00    -0.260 N 
ATOM     14  C   UNL     1       0.891  -1.325   6.583  0.00  0.00    +0.333 A 
ATOM     15  O   UNL     1       1.961  -0.902   6.190  0.00  0.00    -0.246 OA
ENDROOT
BRANCH   1  16
ATOM     16  C   UNL     1      -0.168   0.052   4.882  0.00  0.00    +0.223 C 
BRANCH  16  18
ATOM     17  N   UNL     1       0.025  -0.015   2.417  0.00  0.00    -0.284 N 
ATOM     18  C   UNL     1      -0.056  -0.694   3.578  0.00  0.00    +0.237 C 
ATOM     19  O   UNL     1      -0.040  -1.907   3.573  0.00  0.00    -0.274 OA
ATOM     20  H   UNL     1       0.078   0.954   2.425  0.00  0.00    +0.155 HD
BRANCH  17  27
ATOM     21  C   UNL     1      -1.264   1.184   0.181  0.00  0.00    +0.045 C 
ATOM     22  C   UNL     1      -0.584  -0.158   0.084  0.00  0.00    -0.029 A 
ATOM     23  C   UNL     1      -0.568  -0.840  -1.117  0.00  0.00    +0.005 A 
ATOM     24  C   UNL     1       0.055  -2.071  -1.206  0.00  0.00    +0.000 A 
ATOM     25  C   UNL     1       0.666  -2.622  -0.095  0.00  0.00    +0.002 A 
ATOM     26  C   UNL     1       0.655  -1.945   1.108  0.00  0.00    +0.023 A 
ATOM     27  C   UNL     1       0.034  -0.706   1.201  0.00  0.00    +0.036 A 
ENDBRANCH  17  27
ENDBRANCH  16  18
ENDBRANCH   1  16
BRANCH  13  28
ATOM     28  C   UNL     1       2.127  -2.616   8.218  0.00  0.00    +0.130 C 
BRANCH  28  29
ATOM     29  C   UNL     1       2.661  -3.853   7.494  0.00  0.00    +0.025 C 
BRANCH  29  30
ATOM     30  C   UNL     1       3.980  -4.290   8.136  0.00  0.00    -0.016 C 
ATOM     31  C   UNL     1       4.451  -5.597   7.494  0.00  0.00    +0.007 C 
ATOM     32  C   UNL     1       5.037  -3.205   7.918  0.00  0.00    +0.007 C 
ENDBRANCH  29  30
ENDBRANCH  28  29
ENDBRANCH  13  28
TORSDOF 6
