REMARK  Name = ZINC61397545
REMARK  7 active torsions:
REMARK  status: ('A' for Active; 'I' for Inactive)
REMARK    1  A    between atoms: C_1  and  C_2
REMARK    2  A    between atoms: C_7  and  N_8
REMARK    3  A    between atoms: C_9  and  C_11
REMARK    4  A    between atoms: C_16  and  N_17
REMARK    5  A    between atoms: N_20  and  C_21
REMARK    6  A    between atoms: C_21  and  C_22
REMARK    7  A    between atoms: C_21  and  C_23
REMARK                            x       y       z     vdW  Elec       q    Type
REMARK                         _______ _______ _______ _____ _____    ______ ____
ROOT
ATOM      1  C   UNL     1      -0.166   0.044   4.863  0.00  0.00    +0.058 A 
ATOM      2  C   UNL     1      -0.305   1.434   4.873  0.00  0.00    +0.015 A 
ATOM      3  C   UNL     1      -0.423   2.105   6.071  0.00  0.00    +0.001 A 
ATOM      4  C   UNL     1      -0.404   1.408   7.268  0.00  0.00    +0.002 A 
ATOM      5  C   UNL     1      -0.268   0.034   7.274  0.00  0.00    +0.024 A 
ATOM      6  C   UNL     1      -0.153  -0.659   6.077  0.00  0.00    +0.047 A 
ENDROOT
BRANCH   6   7
ATOM      7  N   UNL     1      -0.021  -2.046   6.081  0.00  0.00    -0.269 N 
ATOM      8  C   UNL     1       0.677  -2.653   7.061  0.00  0.00    +0.304 C 
ATOM      9  O   UNL     1       1.121  -2.000   7.986  0.00  0.00    -0.253 OA
ATOM     10  N   UNL     1       0.882  -3.985   7.017  0.00  0.00    -0.297 N 
ATOM     11  H   UNL     1      -0.430  -2.574   5.378  0.00  0.00    +0.156 HD
ATOM     12  H   UNL     1       0.527  -4.505   6.279  0.00  0.00    +0.151 HD
BRANCH  10  13
ATOM     13  C   UNL     1       1.639  -4.645   8.083  0.00  0.00    +0.068 C 
ATOM     14  C   UNL     1       0.702  -4.976   9.246  0.00  0.00    +0.027 C 
ATOM     15  C   UNL     1       2.259  -5.936   7.543  0.00  0.00    +0.027 C 
ENDBRANCH  10  13
ENDBRANCH   6   7
BRANCH   1  17
ATOM     16  N   UNL     1       0.047   0.006   2.428  0.00  0.00    -0.281 N 
ATOM     17  C   UNL     1      -0.040  -0.680   3.585  0.00  0.00    +0.250 C 
ATOM     18  O   UNL     1      -0.014  -1.896   3.575  0.00  0.00    -0.270 OA
ATOM     19  H   UNL     1       0.093   0.975   2.440  0.00  0.00    +0.155 HD
BRANCH  16  26
ATOM     20  C   UNL     1      -1.232   1.205   0.188  0.00  0.00    +0.045 C 
ATOM     21  C   UNL     1      -0.541  -0.131   0.090  0.00  0.00    -0.029 A 
ATOM     22  C   UNL     1      -0.510  -0.806  -1.115  0.00  0.00    +0.008 A 
ATOM     23  C   UNL     1       0.124  -2.031  -1.207  0.00  0.00    +0.039 A 
ATOM     24  C   UNL     1       0.731  -2.585  -0.092  0.00  0.00    +0.125 A 
ATOM     25  C   UNL     1       0.703  -1.913   1.117  0.00  0.00    +0.062 A 
ATOM     26  C   UNL     1       0.072  -0.680   1.209  0.00  0.00    +0.039 A 
ATOM     27  F   UNL     1       1.350  -3.782  -0.185  0.00  0.00    -0.205 F 
ENDBRANCH  16  26
ENDBRANCH   1  17
TORSDOF 4
