REMARK  Name = ZINC13499417
REMARK  13 active torsions:
REMARK  status: ('A' for Active; 'I' for Inactive)
REMARK    1  A    between atoms: C_1  and  C_2
REMARK    2  A    between atoms: C_2  and  C_3
REMARK    3  A    between atoms: C_3  and  C_4
REMARK    4  A    between atoms: C_4  and  C_6
REMARK    5  A    between atoms: C_4  and  N_15
REMARK    6  A    between atoms: N_10  and  C_11
REMARK    7  A    between atoms: C_11  and  C_12
REMARK    8  A    between atoms: C_12  and  O_13
REMARK    9  A    between atoms: O_13  and  C_14
REMARK   10  A    between atoms: N_15  and  C_16
REMARK   11  A    between atoms: N_15  and  C_22
REMARK   12  A    between atoms: C_16  and  C_17
REMARK   13  A    between atoms: C_22  and  C_23
REMARK                            x       y       z     vdW  Elec       q    Type
REMARK                         _______ _______ _______ _____ _____    ______ ____
ROOT
ATOM      1  N   UNL     1      -0.931  -2.556   1.258  0.00  0.00    -0.284 NA
ENDROOT
BRANCH   1   2
ATOM      2  C   UNL     1      -1.410  -2.068  -0.043  0.00  0.00    +0.127 C 
BRANCH   2   3
ATOM      3  C   UNL     1      -1.069  -0.607  -0.187  0.00  0.00    +0.168 A 
ATOM      4  N   UNL     1       0.107  -0.056  -0.009  0.00  0.00    -0.112 NA
ATOM      5  N   UNL     1      -0.009   1.208  -0.226  0.00  0.00    -0.023 NA
ATOM      6  N   UNL     1      -1.229   1.479  -0.538  0.00  0.00    -0.044 NA
ATOM      7  N   UNL     1      -1.913   0.384  -0.530  0.00  0.00    -0.226 N 
BRANCH   7   8
ATOM      8  C   UNL     1      -3.339   0.248  -0.834  0.00  0.00    +0.175 C 
BRANCH   8   9
ATOM      9  C   UNL     1      -4.152   0.412   0.452  0.00  0.00    +0.183 C 
BRANCH   9  10
ATOM     10  O   UNL     1      -5.544   0.278   0.155  0.00  0.00    -0.381 OA
ATOM     11  C   UNL     1      -6.396   0.416   1.294  0.00  0.00    +0.194 C 
ENDBRANCH   9  10
ENDBRANCH   8   9
ENDBRANCH   7   8
ENDBRANCH   2   3
BRANCH   2  12
ATOM     12  C   UNL     1      -0.737  -2.862  -1.164  0.00  0.00    +0.026 C 
BRANCH  12  14
ATOM     13  C   UNL     1      -0.572  -5.104  -2.254  0.00  0.00    +0.004 C 
ATOM     14  C   UNL     1      -1.143  -4.333  -1.062  0.00  0.00    -0.001 C 
ENDBRANCH  12  14
ENDBRANCH   2  12
ENDBRANCH   1   2
BRANCH   1  15
ATOM     15  C   UNL     1      -1.783  -2.066   2.350  0.00  0.00    +0.127 C 
BRANCH  15  16
ATOM     16  C   UNL     1      -3.063  -2.860   2.383  0.00  0.00    +0.004 A 
ATOM     17  C   UNL     1      -3.378  -3.941   3.138  0.00  0.00    +0.012 A 
ATOM     18  C   UNL     1      -4.628  -4.514   3.001  0.00  0.00    +0.008 A 
ATOM     19  C   UNL     1      -5.503  -3.978   2.116  0.00  0.00    +0.045 A 
ATOM     20  S   UNL     1      -4.562  -2.617   1.445  0.00  0.00    -0.100 S 
ENDBRANCH  15  16
ENDBRANCH   1  15
BRANCH   1  21
ATOM     21  C   UNL     1       0.472  -2.182   1.476  0.00  0.00    +0.126 C 
BRANCH  21  22
ATOM     22  C   UNL     1       1.048  -3.020   2.589  0.00  0.00    +0.031 A 
ATOM     23  C   UNL     1       1.699  -4.175   2.298  0.00  0.00    +0.020 A 
ATOM     24  C   UNL     1       2.247  -4.965   3.399  0.00  0.00    +0.003 A 
ATOM     25  C   UNL     1       2.927  -6.166   3.159  0.00  0.00    +0.059 A 
ATOM     26  C   UNL     1       3.434  -6.889   4.218  0.00  0.00    +0.163 A 
ATOM     27  C   UNL     1       3.272  -6.428   5.527  0.00  0.00    +0.164 A 
ATOM     28  C   UNL     1       2.599  -5.243   5.774  0.00  0.00    +0.075 A 
ATOM     29  C   UNL     1       2.082  -4.503   4.719  0.00  0.00    +0.053 A 
ATOM     30  N   UNL     1       1.409  -3.320   4.947  0.00  0.00    -0.322 N 
ATOM     31  H   UNL     1       1.296  -3.002   5.857  0.00  0.00    +0.169 HD
ATOM     32  C   UNL     1       0.914  -2.598   3.927  0.00  0.00    +0.254 A 
ATOM     33  O   UNL     1       0.329  -1.555   4.165  0.00  0.00    -0.268 OA
ATOM     34  O   UNL     1       3.776  -7.132   6.577  0.00  0.00    -0.485 OA
ATOM     35  C   UNL     1       4.118  -8.500   6.330  0.00  0.00    +0.270 C 
ATOM     36  C   UNL     1       4.914  -8.569   5.020  0.00  0.00    +0.270 C 
ATOM     37  O   UNL     1       4.090  -8.056   3.968  0.00  0.00    -0.485 OA
ENDBRANCH  21  22
ENDBRANCH   1  21
TORSDOF 11
