REMARK  Name = ZINC09632876
REMARK  6 active torsions:
REMARK  status: ('A' for Active; 'I' for Inactive)
REMARK    1  A    between atoms: C_1  and  C_2
REMARK    2  A    between atoms: C_6  and  N_9
REMARK    3  A    between atoms: C_10  and  C_12
REMARK    4  A    between atoms: C_12  and  O_13
REMARK    5  A    between atoms: O_13  and  C_14
REMARK    6  A    between atoms: C_14  and  C_16
REMARK                            x       y       z     vdW  Elec       q    Type
REMARK                         _______ _______ _______ _____ _____    ______ ____
ROOT
ATOM      1  C   UNL     1      -1.739   8.998  -1.899  0.00  0.00    +0.320 C 
ATOM      2  O   UNL     1      -0.606   8.633  -2.105  0.00  0.00    -0.250 OA
ENDROOT
BRANCH   1   3
ATOM      3  C   UNL     1      -2.006  10.116  -0.924  0.00  0.00    +0.165 C 
ATOM      4  C   UNL     1      -2.909   9.614   0.169  0.00  0.00    +0.013 A 
ATOM      5  C   UNL     1      -4.263   9.472  -0.082  0.00  0.00    +0.008 A 
ATOM      6  C   UNL     1      -5.109   9.006   0.906  0.00  0.00    +0.001 A 
ATOM      7  C   UNL     1      -4.606   8.691   2.155  0.00  0.00    +0.004 A 
ATOM      8  C   UNL     1      -3.257   8.832   2.412  0.00  0.00    +0.046 A 
ATOM      9  C   UNL     1      -2.402   9.295   1.418  0.00  0.00    +0.133 A 
ATOM     10  O   UNL     1      -1.082   9.425   1.689  0.00  0.00    -0.455 OA
ATOM     11  C   UNL     1      -0.305  10.228   0.923  0.00  0.00    +0.133 A 
ATOM     12  C   UNL     1      -0.700  10.597  -0.352  0.00  0.00    +0.013 A 
ATOM     13  C   UNL     1       0.112  11.418  -1.114  0.00  0.00    +0.008 A 
ATOM     14  C   UNL     1       1.316  11.870  -0.608  0.00  0.00    +0.001 A 
ATOM     15  C   UNL     1       1.712  11.504   0.665  0.00  0.00    +0.004 A 
ATOM     16  C   UNL     1       0.906  10.686   1.430  0.00  0.00    +0.046 A 
ENDBRANCH   1   3
BRANCH   1  17
ATOM     17  O   UNL     1      -2.761   8.408  -2.539  0.00  0.00    -0.455 OA
BRANCH  17  18
ATOM     18  C   UNL     1      -2.430   7.338  -3.463  0.00  0.00    +0.328 C 
BRANCH  18  20
ATOM     19  N   UNL     1      -3.632   5.795  -4.978  0.00  0.00    -0.280 N 
ATOM     20  C   UNL     1      -3.695   6.800  -4.082  0.00  0.00    +0.255 C 
ATOM     21  O   UNL     1      -4.769   7.271  -3.774  0.00  0.00    -0.272 OA
ATOM     22  H   UNL     1      -2.770   5.467  -5.279  0.00  0.00    +0.155 HD
BRANCH  19  28
ATOM     23  C   UNL     1      -7.189   5.700  -8.373  0.00  0.00    +0.045 C 
ATOM     24  C   UNL     1      -6.556   5.158  -7.118  0.00  0.00    -0.030 A 
ATOM     25  C   UNL     1      -7.140   4.094  -6.454  0.00  0.00    +0.006 A 
ATOM     26  C   UNL     1      -6.562   3.594  -5.301  0.00  0.00    +0.022 A 
ATOM     27  C   UNL     1      -5.396   4.152  -4.812  0.00  0.00    +0.064 A 
ATOM     28  C   UNL     1      -4.810   5.224  -5.473  0.00  0.00    +0.071 A 
ATOM     29  C   UNL     1      -5.393   5.724  -6.631  0.00  0.00    +0.066 A 
ATOM     30 CL   UNL     1      -4.661   7.058  -7.466  0.00  0.00    -0.081 Cl
ATOM     31 CL   UNL     1      -4.669   3.519  -3.368  0.00  0.00    -0.082 Cl
ENDBRANCH  19  28
ENDBRANCH  18  20
ENDBRANCH  17  18
ENDBRANCH   1  17
TORSDOF 5
