REMARK  Name = ZINC58132928
REMARK  8 active torsions:
REMARK  status: ('A' for Active; 'I' for Inactive)
REMARK    1  A    between atoms: C_1  and  C_2
REMARK    2  A    between atoms: C_2  and  C_3
REMARK    3  A    between atoms: C_3  and  C_5
REMARK    4  A    between atoms: C_3  and  N_22
REMARK    5  A    between atoms: C_7  and  C_21
REMARK    6  A    between atoms: C_14  and  N_16
REMARK    7  A    between atoms: N_16  and  S_17
REMARK    8  A    between atoms: S_17  and  C_20
REMARK                            x       y       z     vdW  Elec       q    Type
REMARK                         _______ _______ _______ _____ _____    ______ ____
ROOT
ATOM      1  C   UNL     1       0.632  -2.000  -1.327  0.00  0.00    -0.020 A 
ATOM      2  C   UNL     1       1.662  -2.773  -0.830  0.00  0.00    +0.009 A 
ATOM      3  C   UNL     1       1.583  -4.152  -0.894  0.00  0.00    -0.050 A 
ATOM      4  C   UNL     1       0.473  -4.755  -1.453  0.00  0.00    +0.012 A 
ATOM      5  C   UNL     1      -0.563  -3.985  -1.953  0.00  0.00    +0.013 A 
ATOM      6  C   UNL     1      -0.489  -2.605  -1.889  0.00  0.00    +0.127 A 
ATOM      7  O   UNL     1      -1.480  -1.811  -2.372  0.00  0.00    -0.491 OA
ATOM      8  C   UNL     1      -2.759  -2.405  -2.600  0.00  0.00    +0.231 C 
ATOM      9  C   UNL     1      -2.557  -3.696  -3.404  0.00  0.00    +0.066 C 
ATOM     10  C   UNL     1      -1.760  -4.680  -2.551  0.00  0.00    +0.113 C 
ATOM     11  C   UNL     1       2.709  -4.996  -0.354  0.00  0.00    +0.044 C 
ENDROOT
BRANCH  10  12
ATOM     12  N   UNL     1      -1.309  -5.804  -3.376  0.00  0.00    -0.187 NA
ATOM     13  H   UNL     1      -0.482  -5.736  -3.879  0.00  0.00    +0.148 HD
BRANCH  12  14
ATOM     14  S   UNL     1      -2.209  -7.192  -3.448  0.00  0.00    +0.027 S 
ATOM     15  O   UNL     1      -1.474  -8.057  -4.303  0.00  0.00    -0.158 OA
ATOM     16  O   UNL     1      -2.445  -7.543  -2.091  0.00  0.00    -0.158 OA
ATOM     17  C   UNL     1      -3.763  -6.699  -4.245  0.00  0.00    +0.214 C 
ENDBRANCH  12  14
ENDBRANCH  10  12
BRANCH   1  18
ATOM     18  C   UNL     1       0.718  -0.497  -1.257  0.00  0.00    -0.041 C 
BRANCH  18  19
ATOM     19  N   UNL     1       2.129  -0.090  -1.209  0.00  0.00    +0.383 N 
ATOM     20  H   UNL     1       2.601  -0.415  -2.039  0.00  0.00    -0.089 HD
ATOM     21  H   UNL     1       2.187   0.916  -1.162  0.00  0.00    -0.089 HD
ATOM     22  H   UNL     1       2.567  -0.491  -0.394  0.00  0.00    -0.089 HD
ENDBRANCH  18  19
BRANCH  18  24
ATOM     23  C   UNL     1      -0.019   1.526   0.010  0.00  0.00    +0.002 C 
ATOM     24  C   UNL     1       0.002  -0.004   0.002  0.00  0.00    -0.015 C 
ENDBRANCH  18  24
ENDBRANCH   1  18
TORSDOF 5
