REMARK  Name = ZINC37985286
REMARK  2 active torsions:
REMARK  status: ('A' for Active; 'I' for Inactive)
REMARK    1  A    between atoms: C_4  and  C_8
REMARK    2  A    between atoms: N_10  and  C_11
REMARK                            x       y       z     vdW  Elec       q    Type
REMARK                         _______ _______ _______ _____ _____    ______ ____
ROOT
ATOM      1  C   UNL     1       4.035   0.098  -1.119  0.00  0.00    +0.263 C 
ATOM      2  O   UNL     1       4.388  -0.525  -2.101  0.00  0.00    -0.269 OA
ATOM      3  N   UNL     1       4.845   0.176  -0.044  0.00  0.00    -0.307 N 
ATOM      4  H   UNL     1       4.564   0.673   0.740  0.00  0.00    +0.149 HD
ENDROOT
BRANCH   3   5
ATOM      5  C   UNL     1       6.151  -0.489  -0.061  0.00  0.00    +0.077 C 
ATOM      6  C   UNL     1       6.662  -0.691   1.391  0.00  0.00    +0.026 C 
ATOM      7  C   UNL     1       7.829   0.377   1.486  0.00  0.00    -0.006 C 
ATOM      8  C   UNL     1       8.478   0.046   0.075  0.00  0.00    +0.009 C 
ATOM      9  C   UNL     1       7.187   0.400  -0.776  0.00  0.00    +0.013 C 
ATOM     10  C   UNL     1       7.085   1.856  -0.345  0.00  0.00    -0.003 C 
ATOM     11  C   UNL     1       7.040   1.625   1.236  0.00  0.00    -0.004 C 
ATOM     12  C   UNL     1       6.843   2.946   1.841  0.00  0.00    +0.004 C 
ATOM     13  C   UNL     1       5.905   3.663   0.812  0.00  0.00    +0.001 C 
ATOM     14  C   UNL     1       5.799   2.662  -0.481  0.00  0.00    +0.004 C 
ENDBRANCH   3   5
BRANCH   1  18
ATOM     15  C   UNL     1       0.295   2.020  -1.039  0.00  0.00    +0.040 A 
ATOM     16  C   UNL     1       1.173   2.061   0.031  0.00  0.00    +0.113 A 
ATOM     17  N   UNL     1       2.336   1.449  -0.026  0.00  0.00    -0.250 NA
ATOM     18  C   UNL     1       2.715   0.770  -1.102  0.00  0.00    +0.127 A 
ATOM     19  C   UNL     1       1.883   0.686  -2.215  0.00  0.00    +0.053 A 
ATOM     20  C   UNL     1       0.650   1.322  -2.184  0.00  0.00    +0.045 A 
ATOM     21 CL   UNL     1      -0.423   1.245  -3.547  0.00  0.00    -0.083 Cl
ENDBRANCH   1  18
TORSDOF 2
