REMARK  Name = ZINC62689990
REMARK  7 active torsions:
REMARK  status: ('A' for Active; 'I' for Inactive)
REMARK    1  A    between atoms: C_1  and  C_2
REMARK    2  A    between atoms: C_6  and  C_8
REMARK    3  A    between atoms: N_15  and  S_16
REMARK    4  A    between atoms: S_16  and  C_19
REMARK    5  A    between atoms: C_20  and  C_27
REMARK    6  A    between atoms: C_22  and  C_26
REMARK    7  A    between atoms: C_24  and  C_25
REMARK                            x       y       z     vdW  Elec       q    Type
REMARK                         _______ _______ _______ _____ _____    ______ ____
ROOT
ATOM      1  C   UNL     1       0.932  -2.611   2.236  0.00  0.00    +0.195 C 
ATOM      2  C   UNL     1      -0.553  -2.704   2.462  0.00  0.00    +0.236 C 
ATOM      3  O   UNL     1      -1.157  -1.696   2.761  0.00  0.00    -0.274 OA
ATOM      4  N   UNL     1      -1.235  -3.845   2.349  0.00  0.00    -0.312 N 
ATOM      5  C   UNL     1      -0.634  -5.145   2.087  0.00  0.00    +0.121 C 
ATOM      6  C   UNL     1       0.741  -4.986   1.436  0.00  0.00    +0.129 C 
ATOM      7  N   UNL     1       1.495  -3.969   2.192  0.00  0.00    -0.159 NA
ATOM      8  H   UNL     1      -2.199  -3.805   2.449  0.00  0.00    +0.149 HD
ENDROOT
BRANCH   1  14
ATOM      9  C   UNL     1       3.190   1.033  -0.346  0.00  0.00    +0.044 C 
ATOM     10  C   UNL     1       2.280  -0.167  -0.306  0.00  0.00    -0.050 A 
ATOM     11  C   UNL     1       1.691  -0.626  -1.470  0.00  0.00    +0.003 A 
ATOM     12  C   UNL     1       0.856  -1.727  -1.434  0.00  0.00    +0.001 A 
ATOM     13  C   UNL     1       0.610  -2.369  -0.235  0.00  0.00    +0.006 A 
ATOM     14  C   UNL     1       1.200  -1.911   0.928  0.00  0.00    -0.020 A 
ATOM     15  C   UNL     1       2.038  -0.812   0.892  0.00  0.00    +0.009 A 
ENDBRANCH   1  14
BRANCH   7  16
ATOM     16  S   UNL     1       2.914  -4.338   2.962  0.00  0.00    +0.062 S 
ATOM     17  O   UNL     1       3.452  -5.474   2.299  0.00  0.00    -0.153 OA
ATOM     18  O   UNL     1       3.635  -3.120   3.091  0.00  0.00    -0.153 OA
BRANCH  16  19
ATOM     19  C   UNL     1       2.502  -4.855   4.595  0.00  0.00    +0.111 A 
ATOM     20  C   UNL     1       2.384  -6.202   4.884  0.00  0.00    -0.024 A 
ATOM     21  C   UNL     1       2.061  -6.607   6.166  0.00  0.00    +0.008 A 
ATOM     22  C   UNL     1       1.855  -5.666   7.157  0.00  0.00    -0.050 A 
ATOM     23  C   UNL     1       1.974  -4.320   6.868  0.00  0.00    +0.008 A 
ATOM     24  C   UNL     1       2.301  -3.914   5.588  0.00  0.00    -0.024 A 
ATOM     25  C   UNL     1       2.435  -2.446   5.273  0.00  0.00    +0.046 C 
ATOM     26  C   UNL     1       1.502  -6.109   8.554  0.00  0.00    +0.044 C 
ATOM     27  C   UNL     1       2.609  -7.227   3.803  0.00  0.00    +0.046 C 
ENDBRANCH  16  19
ENDBRANCH   7  16
TORSDOF 3
