REMARK  Name = ZINC39686755
REMARK  10 active torsions:
REMARK  status: ('A' for Active; 'I' for Inactive)
REMARK    1  A    between atoms: C_1  and  C_2
REMARK    2  A    between atoms: C_7  and  C_8
REMARK    3  A    between atoms: C_8  and  C_9
REMARK    4  A    between atoms: C_13  and  C_22
REMARK    5  A    between atoms: N_24  and  C_25
REMARK    6  A    between atoms: C_25  and  C_27
REMARK    7  A    between atoms: C_25  and  C_28
REMARK    8  A    between atoms: C_28  and  C_29
REMARK    9  A    between atoms: C_34  and  O_35
REMARK   10  A    between atoms: O_35  and  C_36
REMARK                            x       y       z     vdW  Elec       q    Type
REMARK                         _______ _______ _______ _____ _____    ______ ____
ROOT
ATOM      1  C   UNL     1      -1.088   0.277   2.995  0.00  0.00    +0.220 C 
ATOM      2  O   UNL     1      -1.939  -0.131   2.234  0.00  0.00    -0.275 OA
ATOM      3  N   UNL     1      -1.442   0.979   4.090  0.00  0.00    -0.300 N 
ATOM      4  C   UNL     1      -0.554   1.560   5.123  0.00  0.00    +0.121 C 
ATOM      5  C   UNL     1      -1.189   2.928   5.460  0.00  0.00    +0.100 C 
ATOM      6  C   UNL     1      -2.670   2.779   5.071  0.00  0.00    -0.004 C 
ATOM      7  C   UNL     1      -2.810   1.350   4.527  0.00  0.00    +0.115 C 
ATOM      8  C   UNL     1      -3.560   2.970   6.295  0.00  0.00    -0.010 C 
ATOM      9  C   UNL     1      -5.029   2.875   5.873  0.00  0.00    -0.082 C 
ATOM     10  N   UNL     1      -5.318   3.905   4.868  0.00  0.00    +0.379 N 
ATOM     11  C   UNL     1      -4.525   3.660   3.657  0.00  0.00    -0.082 C 
ATOM     12  C   UNL     1      -3.035   3.788   3.986  0.00  0.00    -0.010 C 
ATOM     13  H   UNL     1      -6.300   3.881   4.636  0.00  0.00    -0.086 HD
ATOM     14  H   UNL     1      -5.086   4.813   5.242  0.00  0.00    -0.086 HD
ENDROOT
BRANCH   5  15
ATOM     15  C   UNL     1      -0.539   4.022   4.652  0.00  0.00    +0.218 C 
ATOM     16  O   UNL     1      -0.094   3.779   3.551  0.00  0.00    -0.275 OA
ATOM     17  N   UNL     1      -0.453   5.269   5.154  0.00  0.00    -0.312 N 
ATOM     18  H   UNL     1      -0.809   5.464   6.035  0.00  0.00    +0.149 HD
BRANCH  17  19
ATOM     19  C   UNL     1       0.179   6.333   4.369  0.00  0.00    +0.074 C 
ATOM     20  C   UNL     1      -0.851   6.945   3.417  0.00  0.00    +0.028 C 
BRANCH  19  21
ATOM     21  C   UNL     1       0.710   7.415   5.311  0.00  0.00    +0.060 C 
BRANCH  21  22
ATOM     22  C   UNL     1       1.811   6.843   6.165  0.00  0.00    -0.004 A 
ATOM     23  C   UNL     1       1.524   6.347   7.422  0.00  0.00    +0.007 A 
ATOM     24  C   UNL     1       2.534   5.822   8.207  0.00  0.00    +0.000 A 
ATOM     25  C   UNL     1       3.833   5.790   7.735  0.00  0.00    +0.004 A 
ATOM     26  C   UNL     1       4.126   6.284   6.479  0.00  0.00    +0.046 A 
ATOM     27  C   UNL     1       3.113   6.807   5.688  0.00  0.00    +0.123 A 
BRANCH  27  28
ATOM     28  O   UNL     1       3.397   7.289   4.449  0.00  0.00    -0.495 OA
ATOM     29  C   UNL     1       4.759   7.220   4.023  0.00  0.00    +0.277 C 
ENDBRANCH  27  28
ENDBRANCH  21  22
ENDBRANCH  19  21
ENDBRANCH  17  19
ENDBRANCH   5  15
BRANCH   1  30
ATOM     30  C   UNL     1       0.367  -0.001   2.717  0.00  0.00    +0.131 C 
BRANCH  30  37
ATOM     31  C   UNL     1       0.425   1.355   0.167  0.00  0.00    +0.044 C 
ATOM     32  C   UNL     1       0.520  -0.148   0.224  0.00  0.00    -0.047 A 
ATOM     33  C   UNL     1       0.640  -0.878  -0.945  0.00  0.00    +0.003 A 
ATOM     34  C   UNL     1       0.728  -2.256  -0.892  0.00  0.00    +0.000 A 
ATOM     35  C   UNL     1       0.695  -2.905   0.328  0.00  0.00    +0.000 A 
ATOM     36  C   UNL     1       0.575  -2.176   1.496  0.00  0.00    +0.004 A 
ATOM     37  C   UNL     1       0.492  -0.797   1.444  0.00  0.00    -0.036 A 
ENDBRANCH  30  37
ENDBRANCH   1  30
TORSDOF 7
