REMARK  Name = ZINC43265343
REMARK  5 active torsions:
REMARK  status: ('A' for Active; 'I' for Inactive)
REMARK    1  A    between atoms: C_5  and  O_7
REMARK    2  A    between atoms: O_7  and  C_8
REMARK    3  A    between atoms: C_8  and  C_10
REMARK    4  A    between atoms: C_8  and  C_12
REMARK    5  A    between atoms: C_10  and  N_11
REMARK                            x       y       z     vdW  Elec       q    Type
REMARK                         _______ _______ _______ _____ _____    ______ ____
ROOT
ATOM      1  C   UNL     1      -0.023  -2.708   0.098  0.00  0.00    +0.193 C 
ENDROOT
BRANCH   1   2
ATOM      2  C   UNL     1       0.156  -3.975   0.894  0.00  0.00    +0.029 A 
ATOM      3  C   UNL     1      -0.699  -4.564   1.765  0.00  0.00    +0.016 A 
ATOM      4  C   UNL     1      -0.319  -5.738   2.389  0.00  0.00    +0.023 A 
ATOM      5  C   UNL     1       0.898  -6.266   2.109  0.00  0.00    +0.055 A 
ATOM      6  S   UNL     1       1.546  -5.095   0.928  0.00  0.00    -0.083 S 
ATOM      7 BR   UNL     1       1.698  -7.839   2.788  0.00  0.00    -0.043 Br
ENDBRANCH   1   2
BRANCH   1   8
ATOM      8  O   UNL     1       1.234  -2.039  -0.021  0.00  0.00    -0.485 OA
BRANCH   8  13
ATOM      9  C   UNL     1      -0.002   1.378   0.153  0.00  0.00    +0.004 A 
ATOM     10  C   UNL     1       1.188   2.083   0.160  0.00  0.00    +0.001 A 
ATOM     11  C   UNL     1       2.393   1.408   0.107  0.00  0.00    +0.018 A 
ATOM     12  C   UNL     1       2.412   0.027   0.047  0.00  0.00    +0.055 A 
ATOM     13  C   UNL     1       1.219  -0.681   0.039  0.00  0.00    +0.134 A 
ATOM     14  C   UNL     1       0.011  -0.002   0.092  0.00  0.00    +0.047 A 
ATOM     15  I   UNL     1       4.239  -0.994  -0.034  0.00  0.00    -0.040 I 
ENDBRANCH   8  13
ENDBRANCH   1   8
BRANCH   1  16
ATOM     16  C   UNL     1      -0.552  -3.052  -1.296  0.00  0.00    -0.036 C 
BRANCH  16  17
ATOM     17  N   UNL     1      -0.726  -1.817  -2.071  0.00  0.00    +0.381 N 
ATOM     18  H   UNL     1       0.161  -1.344  -2.156  0.00  0.00    -0.090 HD
ATOM     19  H   UNL     1      -1.075  -2.043  -2.991  0.00  0.00    -0.090 HD
ATOM     20  H   UNL     1      -1.385  -1.214  -1.601  0.00  0.00    -0.090 HD
ENDBRANCH  16  17
ENDBRANCH   1  16
TORSDOF 5
