REMARK  Name = ZINC11229238
REMARK  13 active torsions:
REMARK  status: ('A' for Active; 'I' for Inactive)
REMARK    1  A    between atoms: C_1  and  C_2
REMARK    2  A    between atoms: C_2  and  O_3
REMARK    3  A    between atoms: O_3  and  C_4
REMARK    4  A    between atoms: C_4  and  C_6
REMARK    5  A    between atoms: C_7  and  C_21
REMARK    6  A    between atoms: C_12  and  C_14
REMARK    7  A    between atoms: C_21  and  O_22
REMARK    8  A    between atoms: O_22  and  C_23
REMARK    9  A    between atoms: C_23  and  C_25
REMARK   10  A    between atoms: C_26  and  C_27
REMARK   11  A    between atoms: C_28  and  C_34
REMARK   12  A    between atoms: N_30  and  C_33
REMARK   13  A    between atoms: C_31  and  C_32
REMARK                            x       y       z     vdW  Elec       q    Type
REMARK                         _______ _______ _______ _____ _____    ______ ____
ROOT
ATOM      1  C   UNL     1      -0.814   1.399   1.318  0.00  0.00    +0.081 C 
ATOM      2  C   UNL     1      -1.847   2.259   1.196  0.00  0.00    +0.061 C 
ATOM      3  N   UNL     1      -2.200   2.768  -0.021  0.00  0.00    -0.269 N 
ATOM      4  C   UNL     1      -1.571   2.466  -1.163  0.00  0.00    +0.304 C 
ATOM      5  O   UNL     1      -1.958   2.969  -2.199  0.00  0.00    -0.252 OA
ATOM      6  N   UNL     1      -0.521   1.621  -1.202  0.00  0.00    -0.288 N 
ATOM      7  C   UNL     1      -0.061   1.017   0.060  0.00  0.00    +0.144 C 
ATOM      8  H   UNL     1      -2.949   3.383  -0.060  0.00  0.00    +0.156 HD
ATOM      9  H   UNL     1      -0.080   1.415  -2.041  0.00  0.00    +0.151 HD
ENDROOT
BRANCH   7  10
ATOM     10  C   UNL     1       1.386   1.391   0.253  0.00  0.00    -0.022 A 
ATOM     11  C   UNL     1       1.805   2.684   0.001  0.00  0.00    +0.007 A 
ATOM     12  C   UNL     1       3.131   3.029   0.183  0.00  0.00    +0.020 A 
ATOM     13  C   UNL     1       4.041   2.077   0.608  0.00  0.00    +0.041 A 
ATOM     14  C   UNL     1       3.622   0.782   0.855  0.00  0.00    +0.020 A 
ATOM     15  C   UNL     1       2.295   0.439   0.677  0.00  0.00    +0.007 A 
ATOM     16 CL   UNL     1       5.708   2.508   0.830  0.00  0.00    -0.084 Cl
ENDBRANCH   7  10
BRANCH   1  17
ATOM     17  C   UNL     1      -0.448   0.871   2.578  0.00  0.00    +0.339 C 
ATOM     18  O   UNL     1      -1.060   1.200   3.577  0.00  0.00    -0.245 OA
BRANCH  17  19
ATOM     19  O   UNL     1       0.579   0.001   2.673  0.00  0.00    -0.462 OA
BRANCH  19  21
ATOM     20  C   UNL     1       2.076  -1.459   3.885  0.00  0.00    +0.048 C 
ATOM     21  C   UNL     1       0.893  -0.493   3.977  0.00  0.00    +0.229 C 
ENDBRANCH  19  21
ENDBRANCH  17  19
ENDBRANCH   1  17
BRANCH   2  22
ATOM     22  C   UNL     1      -2.623   2.665   2.423  0.00  0.00    +0.283 C 
BRANCH  22  23
ATOM     23  O   UNL     1      -3.734   3.477   2.037  0.00  0.00    -0.456 OA
BRANCH  23  24
ATOM     24  C   UNL     1      -4.536   3.927   3.024  0.00  0.00    +0.332 C 
ATOM     25  O   UNL     1      -4.298   3.637   4.181  0.00  0.00    -0.246 OA
BRANCH  24  26
ATOM     26  C   UNL     1      -5.655   4.736   2.713  0.00  0.00    +0.092 C 
ATOM     27  C   UNL     1      -6.459   5.187   3.702  0.00  0.00    +0.018 C 
BRANCH  27  28
ATOM     28  C   UNL     1      -7.620   6.027   3.379  0.00  0.00    +0.018 A 
ATOM     29  C   UNL     1      -7.621   7.181   2.561  0.00  0.00    +0.067 A 
ATOM     30  N   UNL     1      -8.840   7.645   2.518  0.00  0.00    -0.176 NA
ATOM     31  N   UNL     1      -9.666   6.825   3.295  0.00  0.00    -0.271 N 
ATOM     32  C   UNL     1      -8.919   5.835   3.814  0.00  0.00    +0.043 A 
ATOM     33  C   UNL     1      -9.407   4.724   4.708  0.00  0.00    +0.066 C 
ATOM     34  C   UNL     1     -11.104   7.010   3.501  0.00  0.00    +0.172 C 
ATOM     35  C   UNL     1      -6.424   7.771   1.861  0.00  0.00    +0.068 C 
ENDBRANCH  27  28
ENDBRANCH  24  26
ENDBRANCH  23  24
ENDBRANCH  22  23
ENDBRANCH   2  22
TORSDOF 9
