REMARK  Name = ZINC35171941
REMARK  12 active torsions:
REMARK  status: ('A' for Active; 'I' for Inactive)
REMARK    1  A    between atoms: C_1  and  C_2
REMARK    2  A    between atoms: C_2  and  C_3
REMARK    3  A    between atoms: C_3  and  N_4
REMARK    4  A    between atoms: N_4  and  C_5
REMARK    5  A    between atoms: C_5  and  C_6
REMARK    6  A    between atoms: N_8  and  C_9
REMARK    7  A    between atoms: C_11  and  C_21
REMARK    8  A    between atoms: N_13  and  C_14
REMARK    9  A    between atoms: C_27  and  C_29
REMARK   10  A    between atoms: C_29  and  C_31
REMARK   11  A    between atoms: C_29  and  C_33
REMARK   12  A    between atoms: C_31  and  C_32
REMARK                            x       y       z     vdW  Elec       q    Type
REMARK                         _______ _______ _______ _____ _____    ______ ____
ROOT
ATOM      1  C   UNL     1      -0.213  -2.722  -2.541  0.00  0.00    +0.236 C 
ATOM      2  O   UNL     1       0.680  -2.348  -3.272  0.00  0.00    -0.274 OA
ATOM      3  N   UNL     1      -1.242  -3.433  -3.044  0.00  0.00    -0.269 N 
ATOM      4  H   UNL     1      -1.956  -3.732  -2.459  0.00  0.00    +0.156 HD
ENDROOT
BRANCH   3   5
ATOM      5  C   UNL     1      -1.280  -3.739  -4.404  0.00  0.00    +0.129 A 
ATOM      6  C   UNL     1      -0.297  -3.492  -5.309  0.00  0.00    +0.074 A 
ATOM      7  C   UNL     1      -0.739  -3.957  -6.562  0.00  0.00    +0.095 A 
ATOM      8  N   UNL     1      -1.945  -4.464  -6.410  0.00  0.00    -0.165 NA
ATOM      9  N   UNL     1      -2.306  -4.344  -5.063  0.00  0.00    -0.216 N 
BRANCH   9  10
ATOM     10  C   UNL     1      -3.514  -4.770  -4.493  0.00  0.00    +0.086 A 
ATOM     11  C   UNL     1      -4.233  -3.916  -3.668  0.00  0.00    +0.029 A 
ATOM     12  C   UNL     1      -5.423  -4.339  -3.108  0.00  0.00    +0.002 A 
ATOM     13  C   UNL     1      -5.899  -5.611  -3.368  0.00  0.00    +0.002 A 
ATOM     14  C   UNL     1      -5.185  -6.465  -4.189  0.00  0.00    +0.022 A 
ATOM     15  C   UNL     1      -3.997  -6.046  -4.757  0.00  0.00    +0.066 A 
ATOM     16 CL   UNL     1      -3.105  -7.115  -5.794  0.00  0.00    -0.081 Cl
ENDBRANCH   9  10
BRANCH   7  17
ATOM     17  C   UNL     1       0.022  -3.887  -7.834  0.00  0.00    +0.002 A 
ATOM     18  C   UNL     1       1.298  -3.326  -7.855  0.00  0.00    +0.010 A 
ATOM     19  C   UNL     1       2.001  -3.264  -9.041  0.00  0.00    +0.001 A 
ATOM     20  C   UNL     1       1.442  -3.757 -10.207  0.00  0.00    +0.000 A 
ATOM     21  C   UNL     1       0.177  -4.314 -10.191  0.00  0.00    +0.001 A 
ATOM     22  C   UNL     1      -0.534  -4.386  -9.010  0.00  0.00    +0.010 A 
ENDBRANCH   7  17
ENDBRANCH   3   5
BRANCH   1  23
ATOM     23  C   UNL     1      -0.172  -2.391  -1.072  0.00  0.00    +0.203 C 
BRANCH  23  24
ATOM     24  N   UNL     1       1.037  -1.617  -0.779  0.00  0.00    -0.292 N 
ATOM     25  C   UNL     1       2.191  -2.253  -0.495  0.00  0.00    +0.223 C 
ATOM     26  O   UNL     1       3.209  -1.615  -0.326  0.00  0.00    -0.275 OA
BRANCH  24  27
ATOM     27  C   UNL     1       0.992  -0.153  -0.794  0.00  0.00    +0.108 C 
BRANCH  27  29
ATOM     28  C   UNL     1       0.813   1.893   0.629  0.00  0.00    +0.005 C 
ATOM     29  C   UNL     1       0.743   0.364   0.624  0.00  0.00    +0.016 C 
ENDBRANCH  27  29
ENDBRANCH  24  27
BRANCH  25  30
ATOM     30  C   UNL     1       2.217  -3.756  -0.388  0.00  0.00    +0.105 C 
BRANCH  30  31
ATOM     31  C   UNL     1       3.328  -4.174   0.540  0.00  0.00    -0.036 A 
ATOM     32  C   UNL     1       4.636  -3.833   0.252  0.00  0.00    +0.004 A 
ATOM     33  C   UNL     1       5.654  -4.216   1.104  0.00  0.00    +0.000 A 
ATOM     34  C   UNL     1       5.365  -4.942   2.245  0.00  0.00    +0.000 A 
ATOM     35  C   UNL     1       4.057  -5.283   2.534  0.00  0.00    +0.000 A 
ATOM     36  C   UNL     1       3.038  -4.895   1.684  0.00  0.00    +0.004 A 
ENDBRANCH  30  31
BRANCH  30  37
ATOM     37  C   UNL     1       2.456  -4.361  -1.773  0.00  0.00    +0.014 C 
ATOM     38  C   UNL     1       2.340  -5.885  -1.691  0.00  0.00    +0.005 C 
ENDBRANCH  30  37
ENDBRANCH  25  30
ENDBRANCH  23  24
ENDBRANCH   1  23
TORSDOF 10
