REMARK  Name = ZINC42269841
REMARK  8 active torsions:
REMARK  status: ('A' for Active; 'I' for Inactive)
REMARK    1  A    between atoms: C_1  and  C_2
REMARK    2  A    between atoms: C_4  and  S_10
REMARK    3  A    between atoms: C_6  and  N_9
REMARK    4  A    between atoms: C_7  and  C_8
REMARK    5  A    between atoms: S_10  and  N_13
REMARK    6  A    between atoms: N_13  and  C_14
REMARK    7  A    between atoms: N_13  and  C_15
REMARK    8  A    between atoms: C_21  and  C_23
REMARK                            x       y       z     vdW  Elec       q    Type
REMARK                         _______ _______ _______ _____ _____    ______ ____
ROOT
ATOM      1  S   UNL     1       0.650  -5.005  -3.140  0.00  0.00    +0.061 S 
ATOM      2  O   UNL     1       0.720  -6.407  -3.364  0.00  0.00    -0.153 OA
ATOM      3  O   UNL     1      -0.318  -4.181  -3.774  0.00  0.00    -0.153 OA
ENDROOT
BRANCH   1   7
ATOM      4  C   UNL     1      -0.933  -2.180   0.961  0.00  0.00    +0.044 C 
ATOM      5  C   UNL     1      -0.300  -3.444   0.440  0.00  0.00    -0.044 A 
ATOM      6  C   UNL     1      -0.136  -3.623  -0.922  0.00  0.00    +0.032 A 
ATOM      7  C   UNL     1       0.445  -4.782  -1.405  0.00  0.00    +0.107 A 
ATOM      8  C   UNL     1       0.863  -5.764  -0.528  0.00  0.00    +0.051 A 
ATOM      9  C   UNL     1       0.700  -5.587   0.840  0.00  0.00    +0.030 A 
ATOM     10  C   UNL     1       0.121  -4.419   1.322  0.00  0.00    -0.027 A 
ATOM     11  C   UNL     1      -0.052  -4.220   2.805  0.00  0.00    +0.046 C 
BRANCH   9  12
ATOM     12  N   UNL     1       1.121  -6.578   1.729  0.00  0.00    -0.358 N 
ATOM     13  H   UNL     1       1.529  -7.391   1.391  0.00  0.00    +0.142 HD
ATOM     14  H   UNL     1       1.007  -6.453   2.684  0.00  0.00    +0.142 HD
ENDBRANCH   9  12
ENDBRANCH   1   7
BRANCH   1  15
ATOM     15  N   UNL     1       2.133  -4.388  -3.542  0.00  0.00    -0.176 NA
ATOM     16  C   UNL     1       3.318  -5.248  -3.510  0.00  0.00    +0.132 C 
BRANCH  15  17
ATOM     17  C   UNL     1       2.260  -2.980  -3.928  0.00  0.00    +0.082 C 
ATOM     18  C   UNL     1       1.551  -2.752  -5.265  0.00  0.00    +0.021 C 
ATOM     19  C   UNL     1       2.190  -3.635  -6.338  0.00  0.00    +0.002 C 
ATOM     20  C   UNL     1       3.671  -3.277  -6.479  0.00  0.00    +0.000 C 
ATOM     21  C   UNL     1       4.380  -3.505  -5.142  0.00  0.00    +0.005 C 
ATOM     22  C   UNL     1       3.741  -2.621  -4.069  0.00  0.00    +0.005 C 
ATOM     23  C   UNL     1       4.450  -2.849  -2.732  0.00  0.00    +0.009 C 
ENDBRANCH  15  17
ENDBRANCH   1  15
TORSDOF 4
