REMARK  Name = ZINC10194814
REMARK  8 active torsions:
REMARK  status: ('A' for Active; 'I' for Inactive)
REMARK    1  A    between atoms: C_1  and  C_2
REMARK    2  A    between atoms: C_4  and  N_17
REMARK    3  A    between atoms: C_6  and  C_7
REMARK    4  A    between atoms: C_7  and  O_9
REMARK    5  A    between atoms: O_9  and  C_10
REMARK    6  A    between atoms: C_10  and  C_11
REMARK    7  A    between atoms: C_13  and  C_16
REMARK    8  A    between atoms: C_18  and  C_20
REMARK                            x       y       z     vdW  Elec       q    Type
REMARK                         _______ _______ _______ _____ _____    ______ ____
ROOT
ATOM      1  C   UNL     1       6.651  -1.755  -0.065  0.00  0.00    +0.045 C 
ATOM      2  C   UNL     1       5.317  -2.457  -0.056  0.00  0.00    -0.028 A 
ATOM      3  C   UNL     1       5.231  -3.822  -0.061  0.00  0.00    +0.035 A 
ATOM      4  C   UNL     1       3.983  -4.409  -0.053  0.00  0.00    +0.073 A 
ATOM      5  S   UNL     1       2.909  -3.049  -0.029  0.00  0.00    -0.067 S 
ATOM      6  C   UNL     1       4.125  -1.744  -0.042  0.00  0.00    +0.101 A 
ENDROOT
BRANCH   4   7
ATOM      7  N   UNL     1       3.665  -5.761  -0.056  0.00  0.00    -0.280 N 
ATOM      8  C   UNL     1       2.374  -6.149  -0.046  0.00  0.00    +0.221 C 
ATOM      9  O   UNL     1       1.491  -5.318  -0.035  0.00  0.00    -0.275 OA
ATOM     10  H   UNL     1       4.371  -6.426  -0.065  0.00  0.00    +0.155 HD
BRANCH   8  11
ATOM     11  C   UNL     1       2.028  -7.616  -0.050  0.00  0.00    +0.075 C 
ATOM     12  C   UNL     1       1.374  -8.185  -1.310  0.00  0.00    +0.013 C 
ATOM     13  C   UNL     1       0.545  -7.992  -0.038  0.00  0.00    +0.013 C 
ENDBRANCH   8  11
ENDBRANCH   4   7
BRANCH   6  14
ATOM     14  C   UNL     1       3.927  -0.341  -0.034  0.00  0.00    +0.347 C 
ATOM     15  O   UNL     1       4.885   0.409  -0.039  0.00  0.00    -0.244 OA
BRANCH  14  16
ATOM     16  O   UNL     1       2.675   0.163  -0.020  0.00  0.00    -0.454 OA
BRANCH  16  17
ATOM     17  C   UNL     1       2.549   1.586  -0.013  0.00  0.00    +0.291 C 
BRANCH  17  18
ATOM     18  C   UNL     1       1.089   1.961   0.002  0.00  0.00    +0.121 A 
ATOM     19  C   UNL     1      -0.013   1.076   0.008  0.00  0.00    +0.074 A 
ATOM     20  C   UNL     1      -1.091   1.895   0.017  0.00  0.00    +0.135 A 
ATOM     21  O   UNL     1      -0.615   3.148   0.024  0.00  0.00    -0.360 OA
ATOM     22  N   UNL     1       0.594   3.165   0.013  0.00  0.00    -0.080 NA
ATOM     23  C   UNL     1      -2.540   1.480   0.020  0.00  0.00    +0.089 C 
ENDBRANCH  17  18
ENDBRANCH  16  17
ENDBRANCH  14  16
ENDBRANCH   6  14
TORSDOF 6
