REMARK  Name = ZINC21721970
REMARK  5 active torsions:
REMARK  status: ('A' for Active; 'I' for Inactive)
REMARK    1  A    between atoms: C_1  and  C_2
REMARK    2  A    between atoms: C_7  and  N_8
REMARK    3  A    between atoms: C_9  and  C_11
REMARK    4  A    between atoms: C_11  and  N_12
REMARK    5  A    between atoms: C_22  and  C_24
REMARK                            x       y       z     vdW  Elec       q    Type
REMARK                         _______ _______ _______ _____ _____    ______ ____
ROOT
ATOM      1  N   UNL     1      -3.278   2.196   0.956  0.00  0.00    -0.305 N 
ATOM      2  C   UNL     1      -3.313   3.564   0.705  0.00  0.00    +0.052 A 
ATOM      3  C   UNL     1      -2.558   4.460   1.455  0.00  0.00    +0.025 A 
ATOM      4  C   UNL     1      -2.724   5.816   1.220  0.00  0.00    +0.002 A 
ATOM      5  C   UNL     1      -3.618   6.261   0.263  0.00  0.00    +0.002 A 
ATOM      6  C   UNL     1      -4.348   5.354  -0.491  0.00  0.00    +0.025 A 
ATOM      7  C   UNL     1      -4.158   4.000  -0.252  0.00  0.00    +0.052 A 
ATOM      8  N   UNL     1      -4.826   3.021  -0.999  0.00  0.00    -0.316 N 
ATOM      9  C   UNL     1      -4.121   2.219  -1.846  0.00  0.00    +0.017 C 
ATOM     10  C   UNL     1      -3.064   1.492  -1.401  0.00  0.00    +0.040 C 
ATOM     11  C   UNL     1      -2.512   1.404   0.019  0.00  0.00    +0.175 C 
ATOM     12  C   UNL     1      -2.343   0.701  -2.326  0.00  0.00    +0.163 C 
ATOM     13  O   UNL     1      -1.401   0.047  -1.924  0.00  0.00    -0.292 OA
ATOM     14  C   UNL     1      -2.695   0.635  -3.781  0.00  0.00    +0.080 C 
ATOM     15  C   UNL     1      -3.354   1.955  -4.197  0.00  0.00    +0.014 C 
ATOM     16  C   UNL     1      -4.563   2.179  -3.288  0.00  0.00    +0.051 C 
ATOM     17  H   UNL     1      -5.915   2.903  -0.901  0.00  0.00    +0.152 HD
ENDROOT
BRANCH  11  18
ATOM     18  C   UNL     1      -1.085   1.890   0.019  0.00  0.00    +0.130 A 
ATOM     19  C   UNL     1       0.011   1.111   0.011  0.00  0.00    +0.047 A 
ATOM     20  C   UNL     1       1.129   1.976   0.010  0.00  0.00    +0.041 A 
ATOM     21  C   UNL     1       0.649   3.233   0.023  0.00  0.00    +0.195 A 
ATOM     22  O   UNL     1      -0.693   3.174   0.031  0.00  0.00    -0.466 OA
ENDBRANCH  11  18
BRANCH   1  23
ATOM     23  C   UNL     1      -2.860   1.926   2.338  0.00  0.00    +0.202 C 
BRANCH  23  25
ATOM     24  N   UNL     1      -3.254   2.880   4.586  0.00  0.00    -0.284 N 
ATOM     25  C   UNL     1      -3.496   2.933   3.261  0.00  0.00    +0.235 C 
ATOM     26  O   UNL     1      -4.225   3.792   2.812  0.00  0.00    -0.274 OA
ATOM     27  H   UNL     1      -2.668   2.049   5.005  0.00  0.00    +0.155 HD
BRANCH  24  34
ATOM     28  C   UNL     1      -3.690   2.239   7.324  0.00  0.00    +0.046 C 
ATOM     29  C   UNL     1      -3.976   3.611   6.772  0.00  0.00    -0.028 A 
ATOM     30  C   UNL     1      -4.460   4.603   7.603  0.00  0.00    +0.025 A 
ATOM     31  C   UNL     1      -4.729   5.862   7.095  0.00  0.00    +0.041 A 
ATOM     32  C   UNL     1      -4.509   6.133   5.755  0.00  0.00    +0.022 A 
ATOM     33  C   UNL     1      -4.020   5.146   4.922  0.00  0.00    +0.025 A 
ATOM     34  C   UNL     1      -3.750   3.881   5.429  0.00  0.00    +0.036 A 
ATOM     35 CL   UNL     1      -5.343   7.105   8.140  0.00  0.00    -0.084 Cl
ENDBRANCH  24  34
ENDBRANCH  23  25
ENDBRANCH   1  23
TORSDOF 4
