REMARK  Name = ZINC56230196
REMARK  10 active torsions:
REMARK  status: ('A' for Active; 'I' for Inactive)
REMARK    1  A    between atoms: C_1  and  C_2
REMARK    2  A    between atoms: C_2  and  C_4
REMARK    3  A    between atoms: C_2  and  S_18
REMARK    4  A    between atoms: N_10  and  C_11
REMARK    5  A    between atoms: S_18  and  C_19
REMARK    6  A    between atoms: C_19  and  C_20
REMARK    7  A    between atoms: C_22  and  C_25
REMARK    8  A    between atoms: C_25  and  C_26
REMARK    9  A    between atoms: C_26  and  C_27
REMARK   10  A    between atoms: C_26  and  C_28
REMARK                            x       y       z     vdW  Elec       q    Type
REMARK                         _______ _______ _______ _____ _____    ______ ____
ROOT
ATOM      1  C   UNL     1       0.681  -0.624   1.217  0.00  0.00    +0.149 A 
ATOM      2  N   UNL     1       0.187  -0.351   2.412  0.00  0.00    -0.198 NA
ATOM      3  C   UNL     1       0.909  -0.593   3.503  0.00  0.00    +0.217 A 
ATOM      4  N   UNL     1       2.128  -1.111   3.390  0.00  0.00    -0.181 NA
ATOM      5  C   UNL     1       2.621  -1.384   2.187  0.00  0.00    +0.224 A 
ATOM      6  N   UNL     1       1.891  -1.143   1.100  0.00  0.00    -0.198 NA
ATOM      7  N   UNL     1       3.887  -1.921   2.064  0.00  0.00    -0.284 N 
ATOM      8  N   UNL     1       0.393  -0.307   4.751  0.00  0.00    -0.327 N 
ATOM      9  H   UNL     1       4.279  -2.045   1.185  0.00  0.00    +0.155 HD
ATOM     10  H   UNL     1      -0.496   0.071   4.832  0.00  0.00    +0.145 HD
ATOM     11  H   UNL     1       0.920  -0.484   5.546  0.00  0.00    +0.145 HD
ENDROOT
BRANCH   7  12
ATOM     12  C   UNL     1       4.605  -2.288   3.207  0.00  0.00    +0.034 A 
ATOM     13  C   UNL     1       3.946  -2.854   4.291  0.00  0.00    +0.023 A 
ATOM     14  C   UNL     1       4.659  -3.215   5.418  0.00  0.00    +0.002 A 
ATOM     15  C   UNL     1       6.026  -3.013   5.468  0.00  0.00    +0.000 A 
ATOM     16  C   UNL     1       6.684  -2.449   4.391  0.00  0.00    +0.002 A 
ATOM     17  C   UNL     1       5.979  -2.092   3.259  0.00  0.00    +0.023 A 
ENDBRANCH   7  12
BRANCH   1  19
ATOM     18  C   UNL     1      -0.152   1.156  -0.295  0.00  0.00    +0.027 C 
ATOM     19  C   UNL     1      -0.140  -0.348  -0.017  0.00  0.00    +0.112 C 
BRANCH  19  20
ATOM     20  S   UNL     1      -1.839  -0.929   0.246  0.00  0.00    -0.140 S 
BRANCH  20  21
ATOM     21  C   UNL     1      -2.644  -0.668  -1.359  0.00  0.00    +0.168 C 
BRANCH  21  22
ATOM     22  C   UNL     1      -4.081  -1.115  -1.278  0.00  0.00    +0.237 A 
ATOM     23  N   UNL     1      -5.096  -0.369  -0.941  0.00  0.00    -0.195 NA
ATOM     24  C   UNL     1      -6.224  -1.086  -0.974  0.00  0.00    +0.172 A 
ATOM     25  N   UNL     1      -5.939  -2.304  -1.334  0.00  0.00    -0.061 NA
ATOM     26  O   UNL     1      -4.536  -2.346  -1.545  0.00  0.00    -0.337 OA
BRANCH  24  27
ATOM     27  C   UNL     1      -7.601  -0.569  -0.646  0.00  0.00    +0.082 C 
BRANCH  27  28
ATOM     28  C   UNL     1      -8.259  -0.029  -1.918  0.00  0.00    -0.010 C 
ATOM     29  C   UNL     1      -9.701   0.382  -1.612  0.00  0.00    +0.007 C 
ATOM     30  C   UNL     1      -7.478   1.188  -2.419  0.00  0.00    +0.007 C 
ENDBRANCH  27  28
ENDBRANCH  24  27
ENDBRANCH  21  22
ENDBRANCH  20  21
ENDBRANCH  19  20
ENDBRANCH   1  19
TORSDOF 7
