REMARK  Name = ZINC63664055
REMARK  9 active torsions:
REMARK  status: ('A' for Active; 'I' for Inactive)
REMARK    1  A    between atoms: C_1  and  C_2
REMARK    2  A    between atoms: C_4  and  C_13
REMARK    3  A    between atoms: C_13  and  C_14
REMARK    4  A    between atoms: C_14  and  N_15
REMARK    5  A    between atoms: N_15  and  C_16
REMARK    6  A    between atoms: C_16  and  N_18
REMARK    7  A    between atoms: N_18  and  C_19
REMARK    8  A    between atoms: C_22  and  O_25
REMARK    9  A    between atoms: O_25  and  C_26
REMARK                            x       y       z     vdW  Elec       q    Type
REMARK                         _______ _______ _______ _____ _____    ______ ____
ROOT
ATOM      1  N   UNL     1      -4.742  -1.010  -1.739  0.00  0.00    -0.326 N 
ATOM      2  H   UNL     1      -4.628  -0.326  -2.418  0.00  0.00    +0.148 HD
ENDROOT
BRANCH   1   3
ATOM      3  C   UNL     1      -5.952  -1.567  -1.541  0.00  0.00    +0.135 C 
ATOM      4  S   UNL     1      -6.153  -2.774  -0.343  0.00  0.00    -0.019 S 
BRANCH   3   5
ATOM      5  N   UNL     1      -7.005  -1.174  -2.285  0.00  0.00    -0.297 N 
ATOM      6  H   UNL     1      -6.912  -0.436  -2.906  0.00  0.00    +0.154 HD
BRANCH   5   7
ATOM      7  C   UNL     1      -8.236  -1.833  -2.160  0.00  0.00    +0.033 A 
ATOM      8  C   UNL     1      -9.416  -1.102  -2.143  0.00  0.00    +0.027 A 
ATOM      9  C   UNL     1     -10.629  -1.752  -2.021  0.00  0.00    +0.048 A 
ATOM     10  C   UNL     1     -10.667  -3.134  -1.914  0.00  0.00    +0.130 A 
ATOM     11  C   UNL     1      -9.488  -3.865  -1.931  0.00  0.00    +0.048 A 
ATOM     12  C   UNL     1      -8.276  -3.217  -2.059  0.00  0.00    +0.027 A 
BRANCH  10  13
ATOM     13  O   UNL     1     -11.861  -3.773  -1.794  0.00  0.00    -0.406 OA
BRANCH  13  14
ATOM     14  C   UNL     1     -11.827  -5.198  -1.688  0.00  0.00    +0.575 C 
ATOM     15  F   UNL     1     -11.088  -5.565  -0.558  0.00  0.00    -0.133 F 
ATOM     16  F   UNL     1     -13.132  -5.689  -1.572  0.00  0.00    -0.133 F 
ATOM     17  F   UNL     1     -11.227  -5.736  -2.832  0.00  0.00    -0.133 F 
ENDBRANCH  13  14
ENDBRANCH  10  13
ENDBRANCH   5   7
ENDBRANCH   3   5
ENDBRANCH   1   3
BRANCH   1  18
ATOM     18  C   UNL     1      -3.597  -1.437  -0.930  0.00  0.00    +0.107 C 
BRANCH  18  19
ATOM     19  C   UNL     1      -2.353  -0.653  -1.354  0.00  0.00    +0.052 C 
BRANCH  19  22
ATOM     20  C   UNL     1       0.280   0.922  -0.309  0.00  0.00    +0.035 C 
ATOM     21  C   UNL     1       0.243  -0.577  -0.611  0.00  0.00    +0.103 C 
ATOM     22  C   UNL     1      -1.175  -1.093  -0.522  0.00  0.00    -0.037 C 
ATOM     23  C   UNL     1      -1.174  -2.027   0.455  0.00  0.00    +0.001 A 
ATOM     24  C   UNL     1      -2.228  -2.882   1.015  0.00  0.00    +0.030 A 
ATOM     25  C   UNL     1      -1.915  -3.742   2.012  0.00  0.00    +0.042 A 
ATOM     26  C   UNL     1      -0.612  -3.835   2.523  0.00  0.00    +0.022 A 
ATOM     27  C   UNL     1       0.408  -3.083   2.060  0.00  0.00    +0.027 A 
ATOM     28  C   UNL     1       0.193  -2.146   1.012  0.00  0.00    +0.043 A 
ATOM     29  N   UNL     1       1.006  -1.316   0.402  0.00  0.00    -0.378 N 
ATOM     30 CL   UNL     1      -3.159  -4.754   2.677  0.00  0.00    -0.084 Cl
ATOM     31  H   UNL     1       1.952  -1.208   0.588  0.00  0.00    +0.160 HD
ENDBRANCH  19  22
ENDBRANCH  18  19
ENDBRANCH   1  18
TORSDOF 8
