REMARK  Name = ZINC25776962
REMARK  11 active torsions:
REMARK  status: ('A' for Active; 'I' for Inactive)
REMARK    1  A    between atoms: C_1  and  N_2
REMARK    2  A    between atoms: N_2  and  C_3
REMARK    3  A    between atoms: N_2  and  C_4
REMARK    4  A    between atoms: C_4  and  C_6
REMARK    5  A    between atoms: C_4  and  C_29
REMARK    6  A    between atoms: C_6  and  N_7
REMARK    7  A    between atoms: N_7  and  C_8
REMARK    8  A    between atoms: C_8  and  C_10
REMARK    9  A    between atoms: C_8  and  C_16
REMARK   10  A    between atoms: N_18  and  C_19
REMARK   11  A    between atoms: C_22  and  N_26
REMARK                            x       y       z     vdW  Elec       q    Type
REMARK                         _______ _______ _______ _____ _____    ______ ____
ROOT
ATOM      1  C   UNL     1       1.234   3.632  -0.242  0.00  0.00    +0.171 C 
ENDROOT
BRANCH   1   2
ATOM      2  C   UNL     1       1.380   2.143  -0.431  0.00  0.00    -0.022 A 
ATOM      3  C   UNL     1       0.263   1.364  -0.666  0.00  0.00    +0.005 A 
ATOM      4  C   UNL     1       0.397  -0.001  -0.839  0.00  0.00    +0.000 A 
ATOM      5  C   UNL     1       1.647  -0.586  -0.777  0.00  0.00    +0.000 A 
ATOM      6  C   UNL     1       2.764   0.193  -0.542  0.00  0.00    +0.000 A 
ATOM      7  C   UNL     1       2.631   1.558  -0.369  0.00  0.00    +0.005 A 
ENDBRANCH   1   2
BRANCH   1   8
ATOM      8  C   UNL     1       1.271   3.958   1.228  0.00  0.00    +0.239 C 
ATOM      9  O   UNL     1       2.131   4.693   1.665  0.00  0.00    -0.273 OA
ATOM     10  N   UNL     1       0.349   3.433   2.059  0.00  0.00    -0.283 N 
ATOM     11  H   UNL     1      -0.468   2.817   1.655  0.00  0.00    +0.155 HD
BRANCH  10  12
ATOM     12  C   UNL     1       0.430   3.671   3.436  0.00  0.00    +0.052 A 
ATOM     13  C   UNL     1       1.002   4.845   3.906  0.00  0.00    +0.027 A 
ATOM     14  C   UNL     1       1.081   5.078   5.265  0.00  0.00    +0.034 A 
ATOM     15  C   UNL     1       0.590   4.143   6.158  0.00  0.00    +0.128 A 
ATOM     16  C   UNL     1       0.019   2.972   5.694  0.00  0.00    +0.054 A 
ATOM     17  C   UNL     1      -0.068   2.736   4.335  0.00  0.00    +0.064 A 
ATOM     18 CL   UNL     1      -0.791   1.269   3.752  0.00  0.00    -0.082 Cl
BRANCH  15  19
ATOM     19  N   UNL     1       0.676   4.396   7.614  0.00  0.00    +0.056 N 
ATOM     20  O   UNL     1       1.179   5.427   8.024  0.00  0.00    -0.126 OA
ATOM     21  O   UNL     1       0.244   3.573   8.402  0.00  0.00    -0.126 OA
ENDBRANCH  15  19
ENDBRANCH  10  12
ENDBRANCH   1   8
BRANCH   1  22
ATOM     22  N   UNL     1       2.336   4.322  -0.925  0.00  0.00    -0.303 NA
ATOM     23  H   UNL     1       3.245   3.708  -0.837  0.00  0.00    +0.123 HD
BRANCH  22  24
ATOM     24  C   UNL     1       2.025   4.535  -2.345  0.00  0.00    +0.071 C 
BRANCH  24  25
ATOM     25  C   UNL     1       3.033   5.516  -2.946  0.00  0.00    -0.024 C 
BRANCH  25  26
ATOM     26  C   UNL     1       2.697   5.756  -4.396  0.00  0.00    -0.060 A 
ATOM     27  C   UNL     1       2.617   4.691  -5.272  0.00  0.00    +0.002 A 
ATOM     28  C   UNL     1       2.304   4.910  -6.601  0.00  0.00    +0.000 A 
ATOM     29  C   UNL     1       2.080   6.197  -7.054  0.00  0.00    +0.000 A 
ATOM     30  C   UNL     1       2.165   7.263  -6.179  0.00  0.00    +0.000 A 
ATOM     31  C   UNL     1       2.473   7.043  -4.849  0.00  0.00    +0.002 A 
ENDBRANCH  25  26
BRANCH  25  33
ATOM     32  C   UNL     1       5.005   5.299  -1.558  0.00  0.00    -0.096 C 
ATOM     33  N   UNL     1       4.386   4.953  -2.844  0.00  0.00    +0.381 N 
ATOM     34  C   UNL     1       4.367   3.498  -3.045  0.00  0.00    -0.096 C 
ATOM     35  H   UNL     1       4.998   5.396  -3.644  0.00  0.00    -0.082 HD
ENDBRANCH  25  33
ENDBRANCH  24  25
ENDBRANCH  22  24
ENDBRANCH   1  22
TORSDOF 9
