REMARK  Name = ZINC66396321
REMARK  11 active torsions:
REMARK  status: ('A' for Active; 'I' for Inactive)
REMARK    1  A    between atoms: C_1  and  C_2
REMARK    2  A    between atoms: C_2  and  C_3
REMARK    3  A    between atoms: C_3  and  C_4
REMARK    4  A    between atoms: C_4  and  C_5
REMARK    5  A    between atoms: C_5  and  C_7
REMARK    6  A    between atoms: C_5  and  N_25
REMARK    7  A    between atoms: C_12  and  C_15
REMARK    8  A    between atoms: C_18  and  O_21
REMARK    9  A    between atoms: O_21  and  C_22
REMARK   10  A    between atoms: C_22  and  C_23
REMARK   11  A    between atoms: C_22  and  C_24
REMARK                            x       y       z     vdW  Elec       q    Type
REMARK                         _______ _______ _______ _____ _____    ______ ____
ROOT
ATOM      1  C   UNL     1       0.846  -4.161  -1.329  0.00  0.00    +0.239 C 
ATOM      2  O   UNL     1       1.705  -4.859  -0.834  0.00  0.00    -0.273 OA
ATOM      3  N   UNL     1      -0.186  -4.728  -1.986  0.00  0.00    -0.263 N 
ATOM      4  C   UNL     1      -0.265  -6.110  -2.096  0.00  0.00    +0.165 A 
ATOM      5  N   UNL     1      -1.179  -6.850  -2.696  0.00  0.00    -0.225 NA
ATOM      6  C   UNL     1      -1.097  -8.172  -2.705  0.00  0.00    +0.080 A 
ATOM      7  C   UNL     1      -0.045  -8.783  -2.081  0.00  0.00    +0.076 A 
ATOM      8  S   UNL     1       0.850  -7.360  -1.471  0.00  0.00    -0.060 S 
ATOM      9  H   UNL     1      -0.874  -4.170  -2.382  0.00  0.00    +0.157 HD
ENDROOT
BRANCH   6  10
ATOM     10  C   UNL     1      -2.137  -8.982  -3.385  0.00  0.00    +0.001 A 
ATOM     11  C   UNL     1      -2.049 -10.373  -3.385  0.00  0.00    +0.013 A 
ATOM     12  C   UNL     1      -3.018 -11.124  -4.018  0.00  0.00    +0.046 A 
ATOM     13  C   UNL     1      -4.080 -10.495  -4.654  0.00  0.00    +0.121 A 
ATOM     14  C   UNL     1      -4.170  -9.110  -4.655  0.00  0.00    +0.046 A 
ATOM     15  C   UNL     1      -3.207  -8.354  -4.019  0.00  0.00    +0.013 A 
BRANCH  13  16
ATOM     16  O   UNL     1      -5.033 -11.238  -5.276  0.00  0.00    -0.489 OA
BRANCH  16  17
ATOM     17  C   UNL     1      -4.817 -12.649  -5.340  0.00  0.00    +0.167 C 
ATOM     18  C   UNL     1      -5.317 -13.300  -4.049  0.00  0.00    +0.051 C 
ATOM     19  C   UNL     1      -5.581 -13.228  -6.532  0.00  0.00    +0.051 C 
ENDBRANCH  16  17
ENDBRANCH  13  16
ENDBRANCH   6  10
BRANCH   1  20
ATOM     20  C   UNL     1       0.931  -2.662  -1.210  0.00  0.00    +0.161 C 
BRANCH  20  21
ATOM     21  N   UNL     1       2.310  -2.274  -0.902  0.00  0.00    -0.288 N 
ATOM     22  C   UNL     1       2.902  -2.724   0.222  0.00  0.00    +0.298 C 
ATOM     23  O   UNL     1       2.291  -3.452   0.980  0.00  0.00    -0.253 OA
ATOM     24  N   UNL     1       4.170  -2.367   0.504  0.00  0.00    -0.313 N 
ATOM     25  H   UNL     1       2.796  -1.693  -1.508  0.00  0.00    +0.151 HD
ATOM     26  H   UNL     1       4.657  -1.786  -0.101  0.00  0.00    +0.146 HD
ATOM     27  H   UNL     1       4.596  -2.691   1.313  0.00  0.00    +0.146 HD
ENDBRANCH  20  21
BRANCH  20  28
ATOM     28  C   UNL     1       0.005  -2.186  -0.088  0.00  0.00    +0.032 C 
BRANCH  28  29
ATOM     29  C   UNL     1      -0.004  -0.656  -0.049  0.00  0.00    +0.002 C 
BRANCH  29  31
ATOM     30  C   UNL     1      -0.939   1.349   1.112  0.00  0.00    +0.004 C 
ATOM     31  C   UNL     1      -0.930  -0.181   1.073  0.00  0.00    -0.003 C 
ENDBRANCH  29  31
ENDBRANCH  28  29
ENDBRANCH  20  28
ENDBRANCH   1  20
TORSDOF 8
