REMARK  Name = ZINC16464498
REMARK  11 active torsions:
REMARK  status: ('A' for Active; 'I' for Inactive)
REMARK    1  A    between atoms: C_1  and  C_2
REMARK    2  A    between atoms: C_2  and  C_4
REMARK    3  A    between atoms: C_2  and  N_7
REMARK    4  A    between atoms: C_4  and  C_5
REMARK    5  A    between atoms: C_4  and  C_6
REMARK    6  A    between atoms: C_8  and  C_10
REMARK    7  A    between atoms: C_13  and  C_15
REMARK    8  A    between atoms: C_15  and  S_16
REMARK    9  A    between atoms: S_16  and  C_17
REMARK   10  A    between atoms: C_20  and  C_29
REMARK   11  A    between atoms: N_21  and  C_22
REMARK                            x       y       z     vdW  Elec       q    Type
REMARK                         _______ _______ _______ _____ _____    ______ ____
ROOT
ATOM      1  C   UNL     1       5.845  -4.322  -4.940  0.00  0.00    +0.197 A 
ATOM      2  N   UNL     1       6.747  -3.440  -5.313  0.00  0.00    -0.122 NA
ATOM      3  N   UNL     1       7.888  -4.012  -5.462  0.00  0.00    -0.128 NA
ATOM      4  C   UNL     1       7.787  -5.293  -5.194  0.00  0.00    +0.170 A 
ATOM      5  N   UNL     1       6.475  -5.531  -4.845  0.00  0.00    -0.269 N 
ENDROOT
BRANCH   5   6
ATOM      6  C   UNL     1       5.906  -6.757  -4.474  0.00  0.00    +0.069 A 
ATOM      7  C   UNL     1       5.367  -7.595  -5.441  0.00  0.00    +0.028 A 
ATOM      8  C   UNL     1       4.806  -8.802  -5.072  0.00  0.00    +0.002 A 
ATOM      9  C   UNL     1       4.781  -9.178  -3.741  0.00  0.00    +0.002 A 
ATOM     10  C   UNL     1       5.317  -8.346  -2.775  0.00  0.00    +0.022 A 
ATOM     11  C   UNL     1       5.884  -7.139  -3.138  0.00  0.00    +0.065 A 
ATOM     12 CL   UNL     1       6.563  -6.098  -1.926  0.00  0.00    -0.081 Cl
ENDBRANCH   5   6
BRANCH   4  13
ATOM     13  C   UNL     1       8.876  -6.291  -5.250  0.00  0.00    +0.022 A 
ATOM     14  C   UNL     1       8.595  -7.663  -5.255  0.00  0.00    +0.031 A 
ATOM     15  C   UNL     1       9.642  -8.559  -5.309  0.00  0.00    +0.111 A 
ATOM     16  N   UNL     1      10.892  -8.139  -5.355  0.00  0.00    -0.263 NA
ATOM     17  C   UNL     1      11.200  -6.856  -5.353  0.00  0.00    +0.111 A 
ATOM     18  C   UNL     1      10.217  -5.891  -5.306  0.00  0.00    +0.031 A 
ENDBRANCH   4  13
BRANCH   1  19
ATOM     19  S   UNL     1       4.143  -4.002  -4.616  0.00  0.00    -0.079 S 
BRANCH  19  20
ATOM     20  C   UNL     1       3.963  -2.224  -4.926  0.00  0.00    +0.140 C 
BRANCH  20  24
ATOM     21  C   UNL     1       0.696  -1.083  -3.570  0.00  0.00    +0.133 A 
ATOM     22  C   UNL     1       0.044  -1.227  -4.766  0.00  0.00    +0.080 A 
ATOM     23  S   UNL     1       1.264  -1.781  -5.779  0.00  0.00    -0.079 S 
ATOM     24  C   UNL     1       2.534  -1.813  -4.681  0.00  0.00    +0.089 A 
ATOM     25  N   UNL     1       1.996  -1.394  -3.569  0.00  0.00    -0.239 NA
BRANCH  21  27
ATOM     26  N   UNL     1       0.688  -0.476  -1.203  0.00  0.00    -0.307 N 
ATOM     27  C   UNL     1       0.006  -0.608  -2.358  0.00  0.00    +0.263 C 
ATOM     28  O   UNL     1      -1.178  -0.335  -2.400  0.00  0.00    -0.269 OA
ATOM     29  H   UNL     1       1.632  -0.695  -1.170  0.00  0.00    +0.149 HD
BRANCH  26  31
ATOM     30  C   UNL     1      -0.019   1.526   0.010  0.00  0.00    +0.028 C 
ATOM     31  C   UNL     1       0.002  -0.004   0.002  0.00  0.00    +0.073 C 
BRANCH  31  32
ATOM     32  C   UNL     1       0.742  -0.511   1.242  0.00  0.00    +0.003 C 
ATOM     33  C   UNL     1       0.026  -0.018   2.500  0.00  0.00    +0.009 C 
ATOM     34  C   UNL     1       0.763  -2.041   1.233  0.00  0.00    +0.009 C 
ENDBRANCH  31  32
ENDBRANCH  26  31
ENDBRANCH  21  27
ENDBRANCH  20  24
ENDBRANCH  19  20
ENDBRANCH   1  19
TORSDOF 8
