REMARK  Name = ZINC65182500
REMARK  10 active torsions:
REMARK  status: ('A' for Active; 'I' for Inactive)
REMARK    1  A    between atoms: C_1  and  C_2
REMARK    2  A    between atoms: C_2  and  C_3
REMARK    3  A    between atoms: C_6  and  C_34
REMARK    4  A    between atoms: C_11  and  C_13
REMARK    5  A    between atoms: C_16  and  C_19
REMARK    6  A    between atoms: C_19  and  C_20
REMARK    7  A    between atoms: C_20  and  N_21
REMARK    8  A    between atoms: N_21  and  C_22
REMARK    9  A    between atoms: C_23  and  C_25
REMARK   10  A    between atoms: C_25  and  C_28
REMARK                            x       y       z     vdW  Elec       q    Type
REMARK                         _______ _______ _______ _____ _____    ______ ____
ROOT
ATOM      1  C   UNL     1       0.309  -3.982   2.859  0.00  0.00    +0.318 C 
ATOM      2  N   UNL     1      -0.328  -5.308   2.804  0.00  0.00    -0.291 N 
ATOM      3  C   UNL     1      -1.401  -5.269   3.663  0.00  0.00    +0.139 C 
ATOM      4  N   UNL     1      -1.511  -4.122   4.228  0.00  0.00    -0.072 NA
ATOM      5  O   UNL     1      -0.487  -3.241   3.796  0.00  0.00    -0.367 OA
ATOM      6  H   UNL     1      -0.045  -6.064   2.266  0.00  0.00    +0.151 HD
ENDROOT
BRANCH   1  15
ATOM      7  C   UNL     1       1.000  -1.989   1.527  0.00  0.00    -0.033 C 
ATOM      8  C   UNL     1       0.085  -1.050   1.197  0.00  0.00    -0.000 A 
ATOM      9  C   UNL     1       0.163   0.409   1.060  0.00  0.00    +0.013 A 
ATOM     10  C   UNL     1      -0.949   1.095   0.708  0.00  0.00    -0.050 A 
ATOM     11  C   UNL     1      -2.170   0.449   0.473  0.00  0.00    +0.005 A 
ATOM     12  C   UNL     1      -2.320  -0.888   0.579  0.00  0.00    +0.026 A 
ATOM     13  C   UNL     1      -1.216  -1.708   0.942  0.00  0.00    +0.043 A 
ATOM     14  N   UNL     1      -1.109  -3.004   1.108  0.00  0.00    -0.373 N 
ATOM     15  C   UNL     1       0.275  -3.315   1.482  0.00  0.00    +0.169 C 
ATOM     16  C   UNL     1      -0.872   2.594   0.567  0.00  0.00    +0.044 C 
ATOM     17  H   UNL     1      -1.825  -3.650   0.999  0.00  0.00    +0.160 HD
BRANCH   7  19
ATOM     18  C   UNL     1       2.763  -0.265   1.790  0.00  0.00    +0.008 C 
ATOM     19  C   UNL     1       2.451  -1.761   1.865  0.00  0.00    +0.030 C 
ENDBRANCH   7  19
ENDBRANCH   1  15
BRANCH   3  20
ATOM     20  C   UNL     1      -2.333  -6.428   3.909  0.00  0.00    +0.094 C 
BRANCH  20  21
ATOM     21  C   UNL     1      -3.404  -6.016   4.921  0.00  0.00    +0.115 C 
BRANCH  21  22
ATOM     22  N   UNL     1      -4.309  -7.142   5.160  0.00  0.00    -0.303 N 
ATOM     23  C   UNL     1      -4.018  -8.102   6.228  0.00  0.00    +0.132 C 
ATOM     24  C   UNL     1      -5.410  -7.295   4.398  0.00  0.00    +0.226 C 
ATOM     25  O   UNL     1      -5.604  -6.554   3.457  0.00  0.00    -0.275 OA
BRANCH  24  26
ATOM     26  C   UNL     1      -6.400  -8.386   4.714  0.00  0.00    +0.072 C 
ATOM     27  C   UNL     1      -7.866  -7.982   4.887  0.00  0.00    +0.022 C 
ATOM     28  C   UNL     1      -7.034  -8.383   6.107  0.00  0.00    +0.022 C 
BRANCH  26  29
ATOM     29  C   UNL     1      -6.117  -9.724   4.082  0.00  0.00    -0.032 A 
ATOM     30  C   UNL     1      -5.908 -10.835   4.878  0.00  0.00    +0.004 A 
ATOM     31  C   UNL     1      -5.648 -12.062   4.298  0.00  0.00    +0.000 A 
ATOM     32  C   UNL     1      -5.597 -12.180   2.922  0.00  0.00    +0.000 A 
ATOM     33  C   UNL     1      -5.807 -11.069   2.125  0.00  0.00    +0.000 A 
ATOM     34  C   UNL     1      -6.071  -9.843   2.705  0.00  0.00    +0.004 A 
ENDBRANCH  26  29
ENDBRANCH  24  26
ENDBRANCH  21  22
ENDBRANCH  20  21
ENDBRANCH   3  20
TORSDOF 7
