REMARK  Name = ZINC66634157
REMARK  10 active torsions:
REMARK  status: ('A' for Active; 'I' for Inactive)
REMARK    1  A    between atoms: C_1  and  C_2
REMARK    2  A    between atoms: C_2  and  C_3
REMARK    3  A    between atoms: C_6  and  N_13
REMARK    4  A    between atoms: C_8  and  S_9
REMARK    5  A    between atoms: S_9  and  N_12
REMARK    6  A    between atoms: C_14  and  C_16
REMARK    7  A    between atoms: C_16  and  C_17
REMARK    8  A    between atoms: C_17  and  C_19
REMARK    9  A    between atoms: C_17  and  N_20
REMARK   10  A    between atoms: C_21  and  C_23
REMARK                            x       y       z     vdW  Elec       q    Type
REMARK                         _______ _______ _______ _____ _____    ______ ____
ROOT
ATOM      1  N   UNL     1       2.746  -1.883   4.598  0.00  0.00    -0.285 N 
ATOM      2  C   UNL     1       4.031  -2.277   4.502  0.00  0.00    +0.219 C 
ATOM      3  O   UNL     1       4.629  -2.144   3.455  0.00  0.00    -0.275 OA
ATOM      4  H   UNL     1       2.291  -1.918   5.454  0.00  0.00    +0.155 HD
ENDROOT
BRANCH   1   8
ATOM      5  C   UNL     1       0.725  -0.519   1.220  0.00  0.00    -0.021 A 
ATOM      6  C   UNL     1       1.686  -1.506   1.098  0.00  0.00    +0.007 A 
ATOM      7  C   UNL     1       2.357  -1.961   2.215  0.00  0.00    +0.024 A 
ATOM      8  C   UNL     1       2.067  -1.425   3.463  0.00  0.00    +0.035 A 
ATOM      9  C   UNL     1       1.103  -0.433   3.583  0.00  0.00    +0.052 A 
ATOM     10  C   UNL     1       0.438   0.020   2.460  0.00  0.00    +0.110 A 
BRANCH  10  11
ATOM     11  S   UNL     1      -0.781   1.283   2.610  0.00  0.00    +0.056 S 
ATOM     12  O   UNL     1      -1.927   0.827   1.904  0.00  0.00    -0.153 OA
ATOM     13  O   UNL     1      -0.826   1.644   3.984  0.00  0.00    -0.153 OA
BRANCH  11  14
ATOM     14  N   UNL     1      -0.217   2.608   1.791  0.00  0.00    -0.204 NA
ATOM     15  H   UNL     1      -0.842   3.224   1.377  0.00  0.00    +0.144 HD
ATOM     16  H   UNL     1       0.737   2.768   1.726  0.00  0.00    +0.144 HD
ENDBRANCH  11  14
ENDBRANCH  10  11
BRANCH   5  18
ATOM     17  C   UNL     1       0.693   1.222  -0.545  0.00  0.00    +0.009 C 
ATOM     18  C   UNL     1      -0.006  -0.026  -0.002  0.00  0.00    +0.034 C 
ENDBRANCH   5  18
ENDBRANCH   1   8
BRANCH   2  19
ATOM     19  C   UNL     1       4.726  -2.881   5.694  0.00  0.00    +0.118 C 
BRANCH  19  20
ATOM     20  C   UNL     1       6.166  -3.238   5.320  0.00  0.00    +0.079 C 
ATOM     21  C   UNL     1       6.832  -3.965   6.490  0.00  0.00    +0.028 C 
BRANCH  20  22
ATOM     22  N   UNL     1       6.910  -2.013   5.018  0.00  0.00    -0.312 N 
ATOM     23  C   UNL     1       7.986  -2.060   4.208  0.00  0.00    +0.216 C 
ATOM     24  O   UNL     1       8.338  -3.116   3.728  0.00  0.00    -0.276 OA
ATOM     25  H   UNL     1       6.628  -1.167   5.402  0.00  0.00    +0.149 HD
BRANCH  23  26
ATOM     26  C   UNL     1       8.751  -0.799   3.897  0.00  0.00    +0.075 C 
ATOM     27  C   UNL     1       7.821   0.208   3.219  0.00  0.00    +0.013 C 
ATOM     28  C   UNL     1       8.598   1.488   2.904  0.00  0.00    +0.001 C 
ATOM     29  C   UNL     1       9.763   1.160   1.969  0.00  0.00    +0.000 C 
ATOM     30  C   UNL     1      10.694   0.153   2.647  0.00  0.00    +0.001 C 
ATOM     31  C   UNL     1       9.917  -1.127   2.962  0.00  0.00    +0.013 C 
ENDBRANCH  23  26
ENDBRANCH  20  22
ENDBRANCH  19  20
ENDBRANCH   2  19
TORSDOF 8
