REMARK  Name = ZINC12754482
REMARK  12 active torsions:
REMARK  status: ('A' for Active; 'I' for Inactive)
REMARK    1  A    between atoms: C_1  and  C_2
REMARK    2  A    between atoms: C_2  and  C_3
REMARK    3  A    between atoms: C_3  and  C_4
REMARK    4  A    between atoms: C_4  and  N_5
REMARK    5  A    between atoms: N_10  and  C_13
REMARK    6  A    between atoms: C_14  and  C_19
REMARK    7  A    between atoms: C_19  and  C_20
REMARK    8  A    between atoms: N_22  and  C_23
REMARK    9  A    between atoms: C_23  and  C_24
REMARK   10  A    between atoms: C_24  and  C_25
REMARK   11  A    between atoms: C_24  and  C_26
REMARK   12  A    between atoms: C_24  and  C_32
REMARK                            x       y       z     vdW  Elec       q    Type
REMARK                         _______ _______ _______ _____ _____    ______ ____
ROOT
ATOM      1  C   UNL     1       5.681  -2.002   4.100  0.00  0.00    +0.113 C 
ENDROOT
BRANCH   1  11
ATOM      2  N   UNL     1       1.350  -1.780   2.585  0.00  0.00    -0.281 N 
ATOM      3  C   UNL     1       2.691  -2.092   2.503  0.00  0.00    +0.118 A 
ATOM      4  C   UNL     1       3.305  -2.602   3.608  0.00  0.00    +0.068 A 
ATOM      5  C   UNL     1       2.579  -2.800   4.790  0.00  0.00    +0.262 A 
ATOM      6  O   UNL     1       3.126  -3.256   5.779  0.00  0.00    -0.267 OA
ATOM      7  N   UNL     1       1.268  -2.481   4.822  0.00  0.00    -0.264 N 
ATOM      8  C   UNL     1       0.671  -1.972   3.729  0.00  0.00    +0.333 A 
ATOM      9  O   UNL     1      -0.509  -1.684   3.776  0.00  0.00    -0.246 OA
ATOM     10  C   UNL     1       0.496  -2.683   6.050  0.00  0.00    +0.157 C 
ATOM     11  C   UNL     1       4.747  -2.843   3.228  0.00  0.00    +0.122 C 
ATOM     12  C   UNL     1       4.812  -2.394   1.782  0.00  0.00    +0.226 C 
ATOM     13  O   UNL     1       5.786  -2.408   1.060  0.00  0.00    -0.275 OA
ATOM     14  N   UNL     1       3.575  -1.978   1.458  0.00  0.00    -0.271 N 
ATOM     15  H   UNL     1       3.333  -1.636   0.583  0.00  0.00    +0.156 HD
BRANCH   2  16
ATOM     16  C   UNL     1       0.660  -1.229   1.415  0.00  0.00    +0.128 C 
BRANCH  16  17
ATOM     17  C   UNL     1       0.763   0.297   1.435  0.00  0.00    +0.021 C 
BRANCH  17  19
ATOM     18  C   UNL     1       0.145   2.399   0.233  0.00  0.00    +0.004 C 
ATOM     19  C   UNL     1       0.043   0.873   0.214  0.00  0.00    -0.002 C 
ENDBRANCH  17  19
ENDBRANCH  16  17
ENDBRANCH   2  16
ENDBRANCH   1  11
BRANCH   1  20
ATOM     20  C   UNL     1       7.113  -2.352   3.785  0.00  0.00    +0.214 C 
ATOM     21  O   UNL     1       7.361  -3.192   2.946  0.00  0.00    -0.276 OA
ATOM     22  N   UNL     1       8.117  -1.732   4.435  0.00  0.00    -0.314 N 
ATOM     23  H   UNL     1       7.919  -1.060   5.106  0.00  0.00    +0.149 HD
BRANCH  22  24
ATOM     24  C   UNL     1       9.509  -2.072   4.129  0.00  0.00    +0.120 C 
BRANCH  24  25
ATOM     25  C   UNL     1      10.444  -1.231   5.000  0.00  0.00    +0.033 C 
ATOM     26  C   UNL     1      10.207   0.254   4.716  0.00  0.00    +0.023 C 
BRANCH  25  27
ATOM     27  C   UNL     1      10.165  -1.514   6.454  0.00  0.00    -0.036 A 
ATOM     28  C   UNL     1       9.760  -0.493   7.292  0.00  0.00    +0.004 A 
ATOM     29  C   UNL     1       9.505  -0.753   8.626  0.00  0.00    +0.000 A 
ATOM     30  C   UNL     1       9.655  -2.035   9.121  0.00  0.00    +0.000 A 
ATOM     31  C   UNL     1      10.059  -3.057   8.282  0.00  0.00    +0.000 A 
ATOM     32  C   UNL     1      10.310  -2.797   6.948  0.00  0.00    +0.004 A 
ENDBRANCH  25  27
BRANCH  25  33
ATOM     33  C   UNL     1      11.875  -1.581   4.685  0.00  0.00    -0.036 A 
ATOM     34  C   UNL     1      12.162  -2.449   3.648  0.00  0.00    +0.004 A 
ATOM     35  C   UNL     1      13.475  -2.770   3.359  0.00  0.00    +0.000 A 
ATOM     36  C   UNL     1      14.501  -2.223   4.106  0.00  0.00    +0.000 A 
ATOM     37  C   UNL     1      14.214  -1.355   5.143  0.00  0.00    +0.000 A 
ATOM     38  C   UNL     1      12.901  -1.030   5.429  0.00  0.00    +0.004 A 
ENDBRANCH  25  33
ENDBRANCH  24  25
ENDBRANCH  22  24
ENDBRANCH   1  20
TORSDOF 9
