REMARK  Name = ZINC24350253
REMARK  9 active torsions:
REMARK  status: ('A' for Active; 'I' for Inactive)
REMARK    1  A    between atoms: C_1  and  C_2
REMARK    2  A    between atoms: C_6  and  C_17
REMARK    3  A    between atoms: N_10  and  C_11
REMARK    4  A    between atoms: N_19  and  N_20
REMARK    5  A    between atoms: C_21  and  C_23
REMARK    6  A    between atoms: C_26  and  C_29
REMARK    7  A    between atoms: C_29  and  S_30
REMARK    8  A    between atoms: S_30  and  C_31
REMARK    9  A    between atoms: N_35  and  C_36
REMARK                            x       y       z     vdW  Elec       q    Type
REMARK                         _______ _______ _______ _____ _____    ______ ____
ROOT
ATOM      1  C   UNL     1       3.021  10.514  -2.305  0.00  0.00    +0.260 C 
ATOM      2  O   UNL     1       2.920   9.919  -3.360  0.00  0.00    -0.269 OA
ATOM      3  N   UNL     1       2.930   9.842  -1.140  0.00  0.00    -0.230 N 
ATOM      4  H   UNL     1       3.022  10.380  -0.186  0.00  0.00    +0.173 HD
ENDROOT
BRANCH   1  10
ATOM      5  C   UNL     1       4.054  17.433  -4.691  0.00  0.00    +0.086 C 
ATOM      6  C   UNL     1       3.866  16.150  -3.924  0.00  0.00    +0.112 A 
ATOM      7  N   UNL     1       3.682  14.980  -4.463  0.00  0.00    -0.232 NA
ATOM      8  C   UNL     1       3.549  14.044  -3.488  0.00  0.00    +0.090 A 
ATOM      9  C   UNL     1       3.344  12.665  -3.502  0.00  0.00    +0.043 A 
ATOM     10  C   UNL     1       3.244  11.974  -2.299  0.00  0.00    +0.040 A 
ATOM     11  C   UNL     1       3.361  12.658  -1.082  0.00  0.00    +0.015 A 
ATOM     12  C   UNL     1       3.567  14.007  -1.063  0.00  0.00    +0.029 A 
ATOM     13  C   UNL     1       3.663  14.715  -2.256  0.00  0.00    +0.074 A 
ATOM     14  N   UNL     1       3.863  16.045  -2.565  0.00  0.00    -0.296 N 
BRANCH  14  15
ATOM     15  C   UNL     1       4.032  17.093  -1.651  0.00  0.00    +0.048 A 
ATOM     16  C   UNL     1       2.992  17.454  -0.806  0.00  0.00    +0.026 A 
ATOM     17  C   UNL     1       3.163  18.485   0.098  0.00  0.00    +0.002 A 
ATOM     18  C   UNL     1       4.366  19.164   0.153  0.00  0.00    +0.000 A 
ATOM     19  C   UNL     1       5.403  18.811  -0.692  0.00  0.00    +0.002 A 
ATOM     20  C   UNL     1       5.239  17.777  -1.593  0.00  0.00    +0.026 A 
ENDBRANCH  14  15
ENDBRANCH   1  10
BRANCH   3  21
ATOM     21  N   UNL     1       2.718   8.457  -1.146  0.00  0.00    -0.230 N 
ATOM     22  C   UNL     1       2.627   7.785   0.019  0.00  0.00    +0.260 C 
ATOM     23  O   UNL     1       2.728   8.380   1.074  0.00  0.00    -0.269 OA
ATOM     24  H   UNL     1       2.626   7.918  -2.100  0.00  0.00    +0.173 HD
BRANCH  22  25
ATOM     25  C   UNL     1       2.404   6.323   0.013  0.00  0.00    +0.038 A 
ATOM     26  C   UNL     1       2.309   5.624   1.217  0.00  0.00    +0.013 A 
ATOM     27  C   UNL     1       2.099   4.260   1.205  0.00  0.00    +0.005 A 
ATOM     28  C   UNL     1       1.984   3.586   0.002  0.00  0.00    -0.037 A 
ATOM     29  C   UNL     1       2.082   4.272  -1.195  0.00  0.00    +0.005 A 
ATOM     30  C   UNL     1       2.286   5.637  -1.197  0.00  0.00    +0.013 A 
BRANCH  28  31
ATOM     31  C   UNL     1       1.756   2.096  -0.004  0.00  0.00    +0.112 C 
BRANCH  31  32
ATOM     32  S   UNL     1      -0.022   1.758   0.012  0.00  0.00    -0.081 S 
BRANCH  32  33
ATOM     33  C   UNL     1       0.002  -0.004   0.002  0.00  0.00    +0.191 A 
ATOM     34  N   UNL     1       1.068  -0.770  -0.012  0.00  0.00    -0.123 NA
ATOM     35  N   UNL     1       0.717  -2.007  -0.015  0.00  0.00    -0.137 NA
ATOM     36  C   UNL     1      -0.582  -2.103  -0.004  0.00  0.00    +0.225 A 
ATOM     37  N   UNL     1      -1.085  -0.831   0.013  0.00  0.00    -0.312 N 
ATOM     38  C   UNL     1      -2.495  -0.437   0.036  0.00  0.00    +0.152 C 
ENDBRANCH  32  33
ENDBRANCH  31  32
ENDBRANCH  28  31
ENDBRANCH  22  25
ENDBRANCH   3  21
TORSDOF 7
