REMARK  Name = ZINC39668395
REMARK  7 active torsions:
REMARK  status: ('A' for Active; 'I' for Inactive)
REMARK    1  A    between atoms: C_1  and  C_2
REMARK    2  A    between atoms: C_2  and  C_4
REMARK    3  A    between atoms: C_2  and  O_29
REMARK    4  A    between atoms: C_4  and  N_5
REMARK    5  A    between atoms: C_6  and  C_8
REMARK    6  A    between atoms: C_19  and  C_21
REMARK    7  A    between atoms: O_29  and  C_30
REMARK                            x       y       z     vdW  Elec       q    Type
REMARK                         _______ _______ _______ _____ _____    ______ ____
ROOT
ATOM      1  C   UNL     1       1.634  -4.732   0.324  0.00  0.00    +0.100 C 
ATOM      2  C   UNL     1       2.497  -4.907  -0.945  0.00  0.00    +0.121 C 
ATOM      3  N   UNL     1       3.780  -5.460  -0.452  0.00  0.00    -0.296 N 
ATOM      4  C   UNL     1       3.385  -6.420   0.606  0.00  0.00    +0.115 C 
ATOM      5  C   UNL     1       2.217  -5.729   1.339  0.00  0.00    -0.004 C 
ATOM      6  C   UNL     1       1.162  -6.757   1.737  0.00  0.00    -0.010 C 
ATOM      7  C   UNL     1       1.748  -7.702   2.790  0.00  0.00    -0.082 C 
ATOM      8  N   UNL     1       2.172  -6.928   3.962  0.00  0.00    +0.379 N 
ATOM      9  C   UNL     1       3.253  -6.007   3.590  0.00  0.00    -0.082 C 
ATOM     10  C   UNL     1       2.731  -4.990   2.571  0.00  0.00    -0.010 C 
ATOM     11  C   UNL     1       5.025  -5.160  -0.872  0.00  0.00    +0.247 C 
ATOM     12  O   UNL     1       5.195  -4.267  -1.679  0.00  0.00    -0.270 OA
ATOM     13  H   UNL     1       1.389  -6.400   4.317  0.00  0.00    -0.086 HD
ATOM     14  H   UNL     1       2.501  -7.558   4.678  0.00  0.00    -0.086 HD
ENDROOT
BRANCH  11  15
ATOM     15  C   UNL     1       6.183  -5.915  -0.351  0.00  0.00    +0.038 A 
ATOM     16  C   UNL     1       6.001  -7.186   0.198  0.00  0.00    +0.014 A 
ATOM     17  C   UNL     1       7.085  -7.887   0.683  0.00  0.00    +0.022 A 
ATOM     18  C   UNL     1       8.353  -7.332   0.628  0.00  0.00    +0.059 A 
ATOM     19  C   UNL     1       8.541  -6.072   0.084  0.00  0.00    +0.060 A 
ATOM     20  C   UNL     1       7.464  -5.363  -0.410  0.00  0.00    +0.034 A 
ATOM     21 CL   UNL     1      10.134  -5.384   0.018  0.00  0.00    -0.082 Cl
ATOM     22 CL   UNL     1       9.713  -8.220   1.242  0.00  0.00    -0.082 Cl
ENDBRANCH  11  15
BRANCH   1  24
ATOM     23  N   UNL     1       0.729  -2.775   1.537  0.00  0.00    -0.312 N 
ATOM     24  C   UNL     1       1.749  -3.323   0.847  0.00  0.00    +0.218 C 
ATOM     25  O   UNL     1       2.759  -2.683   0.648  0.00  0.00    -0.275 OA
ATOM     26  H   UNL     1      -0.079  -3.288   1.697  0.00  0.00    +0.149 HD
BRANCH  23  27
ATOM     27  C   UNL     1       0.841  -1.406   2.046  0.00  0.00    +0.148 C 
BRANCH  27  29
ATOM     28  C   UNL     1      -0.328   0.400   3.317  0.00  0.00    +0.053 C 
ATOM     29  C   UNL     1      -0.445  -1.030   2.786  0.00  0.00    +0.187 C 
BRANCH  29  30
ATOM     30  O   UNL     1      -1.554  -1.116   1.889  0.00  0.00    -0.486 OA
BRANCH  30  31
ATOM     31  C   UNL     1      -2.776  -1.342   2.438  0.00  0.00    +0.139 A 
ATOM     32  C   UNL     1      -2.936  -1.360   3.820  0.00  0.00    +0.049 A 
ATOM     33  C   UNL     1      -4.201  -1.594   4.334  0.00  0.00    +0.023 A 
ATOM     34  C   UNL     1      -5.255  -1.800   3.463  0.00  0.00    +0.111 A 
ATOM     35  N   UNL     1      -5.070  -1.776   2.158  0.00  0.00    -0.260 NA
ATOM     36  C   UNL     1      -3.883  -1.551   1.629  0.00  0.00    +0.156 A 
ENDBRANCH  30  31
ENDBRANCH  29  30
ENDBRANCH  27  29
ENDBRANCH  23  27
ENDBRANCH   1  24
TORSDOF 6
