REMARK  Name = ZINC14733283
REMARK  6 active torsions:
REMARK  status: ('A' for Active; 'I' for Inactive)
REMARK    1  A    between atoms: C_1  and  N_2
REMARK    2  A    between atoms: C_5  and  C_7
REMARK    3  A    between atoms: C_17  and  N_63
REMARK    4  A    between atoms: C_21  and  C_22
REMARK    5  A    between atoms: C_21  and  N_63
REMARK    6  A    between atoms: C_22  and  C_23
REMARK                            x       y       z     vdW  Elec       q    Type
REMARK                         _______ _______ _______ _____ _____    ______ ____
ROOT
ATOM      1  C   UNL     1       3.828   7.313   7.537  0.00  0.00    +0.172 C 
ATOM      2  N   UNL     1       3.373   7.763   6.220  0.00  0.00    -0.270 N 
ATOM      3  C   UNL     1       3.481   7.053   5.084  0.00  0.00    +0.043 A 
ATOM      4  C   UNL     1       2.946   7.803   4.090  0.00  0.00    +0.004 A 
ATOM      5  C   UNL     1       2.518   8.997   4.694  0.00  0.00    +0.151 A 
ATOM      6  N   UNL     1       2.810   8.897   5.980  0.00  0.00    -0.166 NA
ATOM      7  C   UNL     1       2.861   7.378   2.650  0.00  0.00    +0.023 C 
ATOM      8  C   UNL     1       3.085   5.861   2.582  0.00  0.00    -0.067 C 
ATOM      9  C   UNL     1       4.340   5.493   3.379  0.00  0.00    -0.009 C 
ATOM     10  C   UNL     1       4.072   5.682   4.878  0.00  0.00    +0.054 C 
ENDROOT
BRANCH   5  11
ATOM     11  C   UNL     1       1.868  10.142   4.024  0.00  0.00    +0.267 C 
ATOM     12  O   UNL     1       1.562  10.065   2.850  0.00  0.00    -0.268 OA
ATOM     13  N   UNL     1       1.616  11.272   4.714  0.00  0.00    -0.296 N 
ATOM     14  C   UNL     1       2.097  11.377   6.073  0.00  0.00    +0.108 C 
ATOM     15  C   UNL     1       1.039  10.822   7.049  0.00  0.00    +0.019 C 
ATOM     16  C   UNL     1      -0.112  11.735   7.128  0.00  0.00    +0.002 C 
ATOM     17  C   UNL     1      -0.864  11.912   5.812  0.00  0.00    +0.002 C 
ATOM     18  C   UNL     1      -0.190  12.982   4.990  0.00  0.00    +0.019 C 
ATOM     19  C   UNL     1       0.854  12.350   4.052  0.00  0.00    +0.108 C 
ENDBRANCH   5  11
BRANCH   8  20
ATOM     20  N   UNL     1       3.262   5.461   1.173  0.00  0.00    +0.381 N 
ATOM     21  H   UNL     1       4.245   5.589   0.905  0.00  0.00    -0.086 HD
ATOM     22  H   UNL     1       2.666   6.046   0.577  0.00  0.00    -0.086 HD
BRANCH  20  23
ATOM     23  C   UNL     1       2.889   4.045   0.993  0.00  0.00    -0.077 C 
BRANCH  23  24
ATOM     24  C   UNL     1       3.082   3.659  -0.475  0.00  0.00    +0.018 C 
BRANCH  24  25
ATOM     25  C   UNL     1       2.704   2.213  -0.668  0.00  0.00    -0.024 A 
ATOM     26  C   UNL     1       3.536   1.160  -0.652  0.00  0.00    +0.087 A 
ATOM     27  N   UNL     1       2.833   0.006  -0.864  0.00  0.00    -0.360 N 
ATOM     28  H   UNL     1       3.219  -0.884  -0.895  0.00  0.00    +0.165 HD
ATOM     29  C   UNL     1       1.497   0.295  -1.025  0.00  0.00    +0.047 A 
ATOM     30  C   UNL     1       1.357   1.690  -0.910  0.00  0.00    +0.003 A 
ATOM     31  C   UNL     1       0.095   2.275  -1.027  0.00  0.00    +0.010 A 
ATOM     32  C   UNL     1      -0.998   1.490  -1.262  0.00  0.00    +0.001 A 
ATOM     33  C   UNL     1      -0.866   0.113  -1.377  0.00  0.00    +0.002 A 
ATOM     34  C   UNL     1       0.370  -0.486  -1.260  0.00  0.00    +0.026 A 
ENDBRANCH  24  25
ENDBRANCH  23  24
ENDBRANCH  20  23
ENDBRANCH   8  20
TORSDOF 5
