REMARK  Name = ZINC01381958
REMARK  11 active torsions:
REMARK  status: ('A' for Active; 'I' for Inactive)
REMARK    1  A    between atoms: C_1  and  C_2
REMARK    2  A    between atoms: C_6  and  C_15
REMARK    3  A    between atoms: C_13  and  C_14
REMARK    4  A    between atoms: C_15  and  C_17
REMARK    5  A    between atoms: C_15  and  N_28
REMARK    6  A    between atoms: N_21  and  C_22
REMARK    7  A    between atoms: C_22  and  C_23
REMARK    8  A    between atoms: N_28  and  C_29
REMARK    9  A    between atoms: N_28  and  C_36
REMARK   10  A    between atoms: C_29  and  C_30
REMARK   11  A    between atoms: C_36  and  C_37
REMARK                            x       y       z     vdW  Elec       q    Type
REMARK                         _______ _______ _______ _____ _____    ______ ____
ROOT
ATOM      1  C   UNL     1      -0.186  -4.875  -3.192  0.00  0.00    +0.163 C 
ENDROOT
BRANCH   1   7
ATOM      2  C   UNL     1      -1.605   1.211   0.878  0.00  0.00    +0.044 C 
ATOM      3  C   UNL     1      -1.430  -0.281   0.762  0.00  0.00    -0.047 A 
ATOM      4  C   UNL     1      -1.136  -0.836  -0.451  0.00  0.00    +0.013 A 
ATOM      5  C   UNL     1      -0.973  -2.221  -0.558  0.00  0.00    -0.001 A 
ATOM      6  C   UNL     1      -0.658  -2.849  -1.843  0.00  0.00    +0.021 A 
ATOM      7  C   UNL     1      -0.511  -4.197  -1.886  0.00  0.00    +0.042 A 
ATOM      8  C   UNL     1      -0.661  -4.966  -0.713  0.00  0.00    +0.254 A 
ATOM      9  O   UNL     1      -0.525  -6.176  -0.774  0.00  0.00    -0.268 OA
ATOM     10  N   UNL     1      -0.951  -4.399   0.471  0.00  0.00    -0.322 N 
ATOM     11  H   UNL     1      -1.046  -4.957   1.259  0.00  0.00    +0.169 HD
ATOM     12  C   UNL     1      -1.113  -3.034   0.583  0.00  0.00    +0.049 A 
ATOM     13  C   UNL     1      -1.413  -2.446   1.807  0.00  0.00    +0.030 A 
ATOM     14  C   UNL     1      -1.562  -1.079   1.891  0.00  0.00    -0.046 A 
ATOM     15  C   UNL     1      -1.881  -0.443   3.220  0.00  0.00    +0.044 C 
ENDBRANCH   1   7
BRANCH   1  16
ATOM     16  C   UNL     1       1.180  -5.505  -3.105  0.00  0.00    +0.174 A 
ATOM     17  N   UNL     1       1.495  -6.605  -2.467  0.00  0.00    -0.111 NA
ATOM     18  N   UNL     1       2.756  -6.812  -2.630  0.00  0.00    -0.023 NA
ATOM     19  N   UNL     1       3.254  -5.872  -3.356  0.00  0.00    -0.043 NA
ATOM     20  N   UNL     1       2.312  -5.050  -3.673  0.00  0.00    -0.220 N 
BRANCH  20  21
ATOM     21  C   UNL     1       2.450  -3.845  -4.495  0.00  0.00    +0.221 C 
BRANCH  21  22
ATOM     22  C   UNL     1       2.775  -2.668  -3.611  0.00  0.00    +0.126 A 
ATOM     23  C   UNL     1       4.010  -2.255  -3.275  0.00  0.00    +0.046 A 
ATOM     24  C   UNL     1       3.851  -1.127  -2.438  0.00  0.00    +0.041 A 
ATOM     25  C   UNL     1       2.528  -0.918  -2.313  0.00  0.00    +0.195 A 
ATOM     26  O   UNL     1       1.882  -1.851  -3.031  0.00  0.00    -0.466 OA
ENDBRANCH  21  22
ENDBRANCH  20  21
ENDBRANCH   1  16
BRANCH   1  27
ATOM     27  N   UNL     1      -1.188  -5.914  -3.466  0.00  0.00    -0.280 NA
BRANCH  27  28
ATOM     28  C   UNL     1      -2.545  -5.351  -3.465  0.00  0.00    +0.122 C 
BRANCH  28  29
ATOM     29  C   UNL     1      -3.552  -6.466  -3.349  0.00  0.00    -0.015 A 
ATOM     30  C   UNL     1      -4.138  -7.004  -4.484  0.00  0.00    +0.008 A 
ATOM     31  C   UNL     1      -5.059  -8.028  -4.329  0.00  0.00    +0.020 A 
ATOM     32  C   UNL     1      -5.360  -8.476  -3.057  0.00  0.00    +0.111 A 
ATOM     33  N   UNL     1      -4.783  -7.941  -1.999  0.00  0.00    -0.263 NA
ATOM     34  C   UNL     1      -3.898  -6.969  -2.109  0.00  0.00    +0.115 A 
ENDBRANCH  28  29
ENDBRANCH  27  28
BRANCH  27  35
ATOM     35  C   UNL     1      -0.903  -6.598  -4.735  0.00  0.00    +0.122 C 
BRANCH  35  36
ATOM     36  C   UNL     1       0.205  -7.597  -4.529  0.00  0.00    -0.015 A 
ATOM     37  C   UNL     1       1.440  -7.391  -5.115  0.00  0.00    +0.006 A 
ATOM     38  C   UNL     1       2.457  -8.308  -4.926  0.00  0.00    +0.000 A 
ATOM     39  C   UNL     1       2.240  -9.432  -4.150  0.00  0.00    +0.001 A 
ATOM     40  C   UNL     1       1.006  -9.639  -3.563  0.00  0.00    +0.020 A 
ATOM     41  C   UNL     1      -0.011  -8.719  -3.748  0.00  0.00    +0.045 A 
ATOM     42 CL   UNL     1      -1.559  -8.975  -3.005  0.00  0.00    -0.083 Cl
ENDBRANCH  35  36
ENDBRANCH  27  35
ENDBRANCH   1  27
TORSDOF 9
