REMARK  Name = ZINC17877667
REMARK  6 active torsions:
REMARK  status: ('A' for Active; 'I' for Inactive)
REMARK    1  A    between atoms: C_1  and  C_2
REMARK    2  A    between atoms: C_7  and  O_8
REMARK    3  A    between atoms: O_8  and  C_9
REMARK    4  A    between atoms: C_9  and  C_11
REMARK    5  A    between atoms: C_9  and  C_12
REMARK    6  A    between atoms: N_14  and  N_15
REMARK                            x       y       z     vdW  Elec       q    Type
REMARK                         _______ _______ _______ _____ _____    ______ ____
ROOT
ATOM      1  C   UNL     1      -1.003  -0.155   4.557  0.00  0.00    +0.273 C 
ATOM      2  O   UNL     1      -1.648   0.818   4.230  0.00  0.00    -0.270 OA
ATOM      3  N   UNL     1      -1.045  -0.593   5.831  0.00  0.00    -0.203 N 
ATOM      4  H   UNL     1      -0.529  -1.372   6.093  0.00  0.00    +0.177 HD
ENDROOT
BRANCH   3   5
ATOM      5  N   UNL     1      -1.833   0.075   6.777  0.00  0.00    -0.174 NA
ATOM      6  C   UNL     1      -1.962  -0.413   7.986  0.00  0.00    +0.153 C 
ATOM      7  C   UNL     1      -1.474  -1.719   8.488  0.00  0.00    +0.029 A 
ATOM      8  C   UNL     1      -0.778  -2.767   7.896  0.00  0.00    +0.027 A 
ATOM      9  C   UNL     1      -0.457  -3.884   8.642  0.00  0.00    +0.019 A 
ATOM     10  C   UNL     1      -0.827  -3.958   9.975  0.00  0.00    +0.017 A 
ATOM     11  C   UNL     1      -1.517  -2.922  10.571  0.00  0.00    +0.025 A 
ATOM     12  C   UNL     1      -1.849  -1.790   9.836  0.00  0.00    +0.043 A 
ATOM     13  N   UNL     1      -2.527  -0.627  10.186  0.00  0.00    -0.280 N 
ATOM     14  C   UNL     1      -2.619   0.221   9.147  0.00  0.00    +0.269 C 
ATOM     15  O   UNL     1      -3.152   1.314   9.160  0.00  0.00    -0.268 OA
ATOM     16 BR   UNL     1       0.488  -5.314   7.843  0.00  0.00    -0.050 Br
ATOM     17  H   UNL     1      -2.884  -0.448  11.070  0.00  0.00    +0.155 HD
ENDBRANCH   3   5
BRANCH   1  18
ATOM     18  C   UNL     1      -0.155  -0.874   3.540  0.00  0.00    +0.257 C 
ATOM     19  C   UNL     1       1.308  -0.851   3.987  0.00  0.00    +0.062 C 
BRANCH  18  20
ATOM     20  O   UNL     1      -0.277  -0.224   2.273  0.00  0.00    -0.480 OA
BRANCH  20  27
ATOM     21  C   UNL     1      -0.750   0.960  -0.246  0.00  0.00    +0.047 C 
ATOM     22  C   UNL     1      -0.206  -0.437  -0.095  0.00  0.00    -0.007 A 
ATOM     23  C   UNL     1       0.087  -1.190  -1.216  0.00  0.00    +0.027 A 
ATOM     24  C   UNL     1       0.586  -2.473  -1.077  0.00  0.00    +0.041 A 
ATOM     25  C   UNL     1       0.793  -3.004   0.184  0.00  0.00    +0.023 A 
ATOM     26  C   UNL     1       0.501  -2.255   1.307  0.00  0.00    +0.047 A 
ATOM     27  C   UNL     1       0.006  -0.966   1.170  0.00  0.00    +0.125 A 
ATOM     28 CL   UNL     1       0.954  -3.417  -2.486  0.00  0.00    -0.084 Cl
ENDBRANCH  20  27
ENDBRANCH  18  20
ENDBRANCH   1  18
TORSDOF 4
