REMARK  Name = ZINC08462756
REMARK  15 active torsions:
REMARK  status: ('A' for Active; 'I' for Inactive)
REMARK    1  A    between atoms: C_1  and  C_2
REMARK    2  A    between atoms: C_2  and  N_64
REMARK    3  A    between atoms: C_3  and  C_4
REMARK    4  A    between atoms: C_3  and  N_64
REMARK    5  A    between atoms: C_5  and  C_6
REMARK    6  A    between atoms: C_5  and  N_64
REMARK    7  A    between atoms: C_6  and  C_7
REMARK    8  A    between atoms: C_7  and  N_8
REMARK    9  A    between atoms: C_9  and  C_23
REMARK   10  A    between atoms: C_12  and  C_13
REMARK   11  A    between atoms: C_12  and  O_18
REMARK   12  A    between atoms: C_26  and  O_29
REMARK   13  A    between atoms: O_29  and  C_30
REMARK   14  A    between atoms: C_30  and  C_31
REMARK   15  A    between atoms: C_30  and  C_32
REMARK                            x       y       z     vdW  Elec       q    Type
REMARK                         _______ _______ _______ _____ _____    ______ ____
ROOT
ATOM      1  N   UNL     1      -3.663   1.076   0.701  0.00  0.00    -0.284 N 
ATOM      2  C   UNL     1      -2.480   0.457   1.306  0.00  0.00    +0.145 C 
ATOM      3  C   UNL     1      -1.299   1.320   0.925  0.00  0.00    +0.074 C 
ATOM      4  C   UNL     1       0.028   1.119   1.276  0.00  0.00    +0.168 C 
ATOM      5  C   UNL     1      -1.814   2.366   0.152  0.00  0.00    +0.249 C 
ATOM      6  O   UNL     1      -1.168   3.276  -0.339  0.00  0.00    -0.282 OA
ATOM      7  C   UNL     1      -3.283   2.177   0.031  0.00  0.00    +0.288 C 
ATOM      8  O   UNL     1      -4.031   2.912  -0.581  0.00  0.00    -0.266 OA
ENDROOT
BRANCH   2   9
ATOM      9  C   UNL     1      -2.627   0.417   2.805  0.00  0.00    -0.022 A 
ATOM     10  C   UNL     1      -2.888   1.581   3.504  0.00  0.00    +0.009 A 
ATOM     11  C   UNL     1      -3.029   1.546   4.878  0.00  0.00    +0.046 A 
ATOM     12  C   UNL     1      -2.899   0.344   5.557  0.00  0.00    +0.121 A 
ATOM     13  C   UNL     1      -2.632  -0.822   4.854  0.00  0.00    +0.046 A 
ATOM     14  C   UNL     1      -2.497  -0.783   3.480  0.00  0.00    +0.009 A 
BRANCH  12  15
ATOM     15  O   UNL     1      -3.032   0.308   6.909  0.00  0.00    -0.489 OA
BRANCH  15  16
ATOM     16  C   UNL     1      -3.024  -0.980   7.528  0.00  0.00    +0.167 C 
ATOM     17  C   UNL     1      -1.578  -1.437   7.735  0.00  0.00    +0.051 C 
ATOM     18  C   UNL     1      -3.733  -0.901   8.881  0.00  0.00    +0.051 C 
ENDBRANCH  15  16
ENDBRANCH  12  15
ENDBRANCH   2   9
BRANCH   4  19
ATOM     19  C   UNL     1       0.421  -0.094   1.893  0.00  0.00    +0.169 A 
ATOM     20  C   UNL     1       1.620  -0.328   2.539  0.00  0.00    +0.053 A 
ATOM     21  C   UNL     1       1.577  -1.653   2.992  0.00  0.00    +0.042 A 
ATOM     22  C   UNL     1       0.382  -2.166   2.616  0.00  0.00    +0.196 A 
ATOM     23  O   UNL     1      -0.307  -1.229   1.952  0.00  0.00    -0.460 OA
ENDBRANCH   4  19
BRANCH   4  24
ATOM     24  O   UNL     1       0.946   2.079   1.029  0.00  0.00    -0.503 OA
ATOM     25  H   UNL     1       1.844   1.771   1.343  0.00  0.00    +0.292 HD
ENDBRANCH   4  24
BRANCH   1  26
ATOM     26  C   UNL     1      -5.035   0.575   0.809  0.00  0.00    +0.107 C 
BRANCH  26  27
ATOM     27  C   UNL     1      -5.708   1.191   2.037  0.00  0.00    +0.000 C 
BRANCH  27  28
ATOM     28  C   UNL     1      -7.142   0.668   2.149  0.00  0.00    -0.077 C 
BRANCH  28  29
ATOM     29  N   UNL     1      -7.771   1.256   3.351  0.00  0.00    +0.379 N 
ATOM     30  H   UNL     1      -7.157   1.100   4.159  0.00  0.00    -0.082 HD
BRANCH  29  32
ATOM     31  C   UNL     1      -8.899   2.984   1.989  0.00  0.00    -0.017 C 
ATOM     32  C   UNL     1      -7.957   2.710   3.163  0.00  0.00    -0.082 C 
ENDBRANCH  29  32
BRANCH  29  33
ATOM     33  C   UNL     1      -9.075   0.609   3.606  0.00  0.00    -0.082 C 
ATOM     34  C   UNL     1      -9.518   0.943   5.032  0.00  0.00    -0.017 C 
ENDBRANCH  29  33
ENDBRANCH  28  29
ENDBRANCH  27  28
ENDBRANCH  26  27
ENDBRANCH   1  26
TORSDOF 11
