REMARK  Name = ZINC63437140
REMARK  6 active torsions:
REMARK  status: ('A' for Active; 'I' for Inactive)
REMARK    1  A    between atoms: C_4  and  C_7
REMARK    2  A    between atoms: C_7  and  C_9
REMARK    3  A    between atoms: C_7  and  N_21
REMARK    4  A    between atoms: N_11  and  C_12
REMARK    5  A    between atoms: C_22  and  C_24
REMARK    6  A    between atoms: C_24  and  C_25
REMARK                            x       y       z     vdW  Elec       q    Type
REMARK                         _______ _______ _______ _____ _____    ______ ____
ROOT
ATOM      1  C   UNL     1       3.717  -0.706  -0.039  0.00  0.00    +0.190 C 
ENDROOT
BRANCH   1   5
ATOM      2  C   UNL     1       0.003   1.402  -0.008  0.00  0.00    +0.000 A 
ATOM      3  C   UNL     1       1.195   2.102  -0.011  0.00  0.00    +0.000 A 
ATOM      4  C   UNL     1       2.397   1.420  -0.021  0.00  0.00    +0.006 A 
ATOM      5  C   UNL     1       2.407   0.038  -0.027  0.00  0.00    -0.018 A 
ATOM      6  C   UNL     1       1.215  -0.662  -0.023  0.00  0.00    +0.006 A 
ATOM      7  C   UNL     1       0.013   0.020  -0.014  0.00  0.00    +0.000 A 
ENDBRANCH   1   5
BRANCH   1   8
ATOM      8  C   UNL     1       4.042  -1.175   1.356  0.00  0.00    +0.242 C 
ATOM      9  O   UNL     1       4.174  -2.359   1.583  0.00  0.00    -0.273 OA
ATOM     10  N   UNL     1       4.186  -0.278   2.352  0.00  0.00    -0.284 N 
ATOM     11  H   UNL     1       4.147   0.672   2.158  0.00  0.00    +0.155 HD
BRANCH  10  12
ATOM     12  C   UNL     1       4.391  -0.717   3.666  0.00  0.00    +0.037 A 
ATOM     13  C   UNL     1       3.842  -0.010   4.728  0.00  0.00    +0.027 A 
ATOM     14  C   UNL     1       4.043  -0.442   6.025  0.00  0.00    +0.051 A 
ATOM     15  C   UNL     1       4.793  -1.582   6.270  0.00  0.00    +0.166 A 
ATOM     16  C   UNL     1       5.345  -2.293   5.207  0.00  0.00    +0.168 A 
ATOM     17  C   UNL     1       5.138  -1.862   3.907  0.00  0.00    +0.072 A 
ATOM     18  O   UNL     1       6.030  -3.362   5.706  0.00  0.00    -0.453 OA
ATOM     19  C   UNL     1       6.236  -3.070   7.101  0.00  0.00    +0.466 C 
ATOM     20  O   UNL     1       5.134  -2.206   7.436  0.00  0.00    -0.453 OA
ENDBRANCH  10  12
ENDBRANCH   1   8
BRANCH   1  21
ATOM     21  N   UNL     1       3.614  -1.864  -0.931  0.00  0.00    -0.300 N 
ATOM     22  C   UNL     1       3.833  -1.718  -2.253  0.00  0.00    +0.216 C 
ATOM     23  O   UNL     1       4.116  -0.628  -2.704  0.00  0.00    -0.276 OA
ATOM     24  H   UNL     1       3.388  -2.736  -0.570  0.00  0.00    +0.150 HD
BRANCH  22  25
ATOM     25  C   UNL     1       3.727  -2.909  -3.170  0.00  0.00    +0.124 C 
BRANCH  25  26
ATOM     26  C   UNL     1       4.020  -2.473  -4.607  0.00  0.00    +0.112 C 
ATOM     27  C   UNL     1       3.979  -3.668  -5.533  0.00  0.00    +0.007 C 
ATOM     28  C   UNL     1       2.996  -3.417  -6.427  0.00  0.00    -0.004 A 
ATOM     29  C   UNL     1       2.470  -4.178  -7.566  0.00  0.00    +0.010 A 
ATOM     30  C   UNL     1       1.457  -3.654  -8.293  0.00  0.00    +0.001 A 
ATOM     31  C   UNL     1       0.898  -2.406  -7.986  0.00  0.00    +0.002 A 
ATOM     32  C   UNL     1       1.328  -1.648  -6.955  0.00  0.00    +0.026 A 
ATOM     33  C   UNL     1       2.389  -2.101  -6.124  0.00  0.00    +0.043 A 
ATOM     34  N   UNL     1       2.975  -1.559  -5.082  0.00  0.00    -0.377 N 
ATOM     35  H   UNL     1       2.755  -0.699  -4.691  0.00  0.00    +0.160 HD
ENDBRANCH  25  26
ENDBRANCH  22  25
ENDBRANCH   1  21
TORSDOF 6
