REMARK  Name = ZINC44737480
REMARK  8 active torsions:
REMARK  status: ('A' for Active; 'I' for Inactive)
REMARK    1  A    between atoms: C_1  and  C_2
REMARK    2  A    between atoms: C_9  and  C_11
REMARK    3  A    between atoms: C_11  and  C_13
REMARK    4  A    between atoms: C_11  and  N_14
REMARK    5  A    between atoms: C_15  and  C_17
REMARK    6  A    between atoms: C_28  and  C_30
REMARK    7  A    between atoms: C_32  and  C_39
REMARK    8  A    between atoms: C_34  and  C_35
REMARK                            x       y       z     vdW  Elec       q    Type
REMARK                         _______ _______ _______ _____ _____    ______ ____
ROOT
ATOM      1  C   UNL     1      -1.582  -8.733   1.041  0.00  0.00    +0.100 C 
ATOM      2  C   UNL     1      -0.560  -9.296   0.029  0.00  0.00    +0.121 C 
ATOM      3  N   UNL     1      -0.002 -10.499   0.689  0.00  0.00    -0.296 N 
ATOM      4  C   UNL     1      -1.167 -11.125   1.360  0.00  0.00    +0.115 C 
ATOM      5  C   UNL     1      -1.981  -9.938   1.911  0.00  0.00    -0.004 C 
ATOM      6  C   UNL     1      -3.475 -10.214   1.777  0.00  0.00    -0.010 C 
ATOM      7  C   UNL     1      -3.858 -11.378   2.695  0.00  0.00    -0.082 C 
ATOM      8  N   UNL     1      -3.526 -11.039   4.084  0.00  0.00    +0.379 N 
ATOM      9  C   UNL     1      -2.075 -10.866   4.223  0.00  0.00    -0.082 C 
ATOM     10  C   UNL     1      -1.616  -9.680   3.369  0.00  0.00    -0.010 C 
ATOM     11  C   UNL     1       1.276 -10.928   0.682  0.00  0.00    +0.250 C 
ATOM     12  O   UNL     1       2.144 -10.242   0.179  0.00  0.00    -0.270 OA
ATOM     13  H   UNL     1      -3.991 -10.181   4.340  0.00  0.00    -0.086 HD
ATOM     14  H   UNL     1      -3.834 -11.781   4.693  0.00  0.00    -0.086 HD
ENDROOT
BRANCH  11  15
ATOM     15  C   UNL     1       1.619 -12.229   1.283  0.00  0.00    +0.087 A 
ATOM     16  C   UNL     1       0.689 -13.244   1.797  0.00  0.00    +0.058 A 
ATOM     17  C   UNL     1       1.453 -14.253   2.244  0.00  0.00    +0.103 A 
ATOM     18  O   UNL     1       2.745 -13.945   2.048  0.00  0.00    -0.455 OA
ATOM     19  C   UNL     1       2.868 -12.746   1.472  0.00  0.00    +0.220 A 
ATOM     20  C   UNL     1       0.942 -15.528   2.865  0.00  0.00    +0.086 C 
BRANCH  19  21
ATOM     21  C   UNL     1       4.165 -12.076   1.098  0.00  0.00    +0.451 C 
ATOM     22  F   UNL     1       4.619 -11.305   2.173  0.00  0.00    -0.163 F 
ATOM     23  F   UNL     1       5.120 -13.050   0.787  0.00  0.00    -0.163 F 
ATOM     24  F   UNL     1       3.961 -11.252  -0.014  0.00  0.00    -0.163 F 
ENDBRANCH  19  21
ENDBRANCH  11  15
BRANCH   1  26
ATOM     25  N   UNL     1      -1.694  -6.649   2.369  0.00  0.00    -0.305 N 
ATOM     26  C   UNL     1      -0.946  -7.662   1.889  0.00  0.00    +0.219 C 
ATOM     27  O   UNL     1       0.240  -7.711   2.139  0.00  0.00    -0.275 OA
ATOM     28  H   UNL     1      -2.643  -6.609   2.168  0.00  0.00    +0.149 HD
BRANCH  25  29
ATOM     29  C   UNL     1      -1.076  -5.607   3.193  0.00  0.00    +0.136 C 
ATOM     30  C   UNL     1      -0.467  -4.535   2.287  0.00  0.00    +0.036 C 
BRANCH  29  39
ATOM     31  C   UNL     1      -5.207  -2.217   8.371  0.00  0.00    +0.044 C 
ATOM     32  C   UNL     1      -4.791  -2.956   7.125  0.00  0.00    -0.048 A 
ATOM     33  C   UNL     1      -5.750  -3.338   6.198  0.00  0.00    +0.005 A 
ATOM     34  C   UNL     1      -5.393  -4.009   5.063  0.00  0.00    +0.030 A 
ATOM     35  C   UNL     1      -4.050  -4.316   4.829  0.00  0.00    +0.089 A 
ATOM     36  C   UNL     1      -3.078  -3.928   5.767  0.00  0.00    +0.067 A 
ATOM     37  C   UNL     1      -3.459  -3.243   6.913  0.00  0.00    +0.031 A 
ATOM     38  N   UNL     1      -1.868  -4.364   5.266  0.00  0.00    -0.340 N 
ATOM     39  C   UNL     1      -2.121  -4.982   4.080  0.00  0.00    +0.128 A 
ATOM     40  N   UNL     1      -3.396  -4.954   3.824  0.00  0.00    -0.231 NA
ATOM     41  H   UNL     1      -0.999  -4.251   5.681  0.00  0.00    +0.167 HD
ENDBRANCH  29  39
ENDBRANCH  25  29
ENDBRANCH   1  26
TORSDOF 5
