REMARK  Name = ZINC61536904
REMARK  2 active torsions:
REMARK  status: ('A' for Active; 'I' for Inactive)
REMARK    1  A    between atoms: C_1  and  C_2
REMARK    2  A    between atoms: C_5  and  N_8
REMARK                            x       y       z     vdW  Elec       q    Type
REMARK                         _______ _______ _______ _____ _____    ______ ____
ROOT
ATOM      1  N   UNL     1      -1.358  -2.098   2.449  0.00  0.00    -0.310 N 
ATOM      2  C   UNL     1      -1.232  -2.796   3.633  0.00  0.00    +0.221 A 
ATOM      3  N   UNL     1      -1.858  -2.371   4.726  0.00  0.00    -0.181 NA
ATOM      4  C   UNL     1      -1.735  -3.046   5.863  0.00  0.00    +0.223 A 
ATOM      5  N   UNL     1      -0.985  -4.144   5.906  0.00  0.00    -0.184 NA
ATOM      6  C   UNL     1      -0.363  -4.565   4.816  0.00  0.00    +0.229 A 
ATOM      7  N   UNL     1      -0.488  -3.898   3.681  0.00  0.00    -0.184 NA
ATOM      8 CL   UNL     1       0.614  -5.998   4.876  0.00  0.00    -0.041 Cl
ATOM      9  N   UNL     1      -2.383  -2.608   7.000  0.00  0.00    -0.299 N 
ATOM     10  C   UNL     1      -3.219  -1.399   6.967  0.00  0.00    +0.108 C 
ATOM     11  C   UNL     1      -4.608  -1.745   7.512  0.00  0.00    +0.019 C 
ATOM     12  C   UNL     1      -4.465  -2.373   8.900  0.00  0.00    +0.003 C 
ATOM     13  C   UNL     1      -3.651  -3.664   8.797  0.00  0.00    +0.019 C 
ATOM     14  C   UNL     1      -2.256  -3.344   8.265  0.00  0.00    +0.108 C 
ATOM     15  H   UNL     1      -1.901  -1.294   2.415  0.00  0.00    +0.149 HD
ENDROOT
BRANCH   1  20
ATOM     16  C   UNL     1      -0.019   1.526   0.010  0.00  0.00    +0.007 C 
ATOM     17  C   UNL     1       0.002  -0.004   0.002  0.00  0.00    -0.014 C 
ATOM     18  C   UNL     1      -1.433  -0.534   0.013  0.00  0.00    +0.005 C 
ATOM     19  C   UNL     1      -1.413  -2.063   0.004  0.00  0.00    +0.022 C 
ATOM     20  C   UNL     1      -0.673  -2.570   1.244  0.00  0.00    +0.073 C 
ATOM     21  C   UNL     1       0.763  -2.041   1.233  0.00  0.00    +0.022 C 
ATOM     22  C   UNL     1       0.742  -0.511   1.242  0.00  0.00    +0.005 C 
ENDBRANCH   1  20
TORSDOF 1
