REMARK  Name = ZINC39672164
REMARK  7 active torsions:
REMARK  status: ('A' for Active; 'I' for Inactive)
REMARK    1  A    between atoms: C_1  and  C_2
REMARK    2  A    between atoms: C_2  and  C_3
REMARK    3  A    between atoms: C_6  and  C_9
REMARK    4  A    between atoms: C_13  and  C_22
REMARK    5  A    between atoms: N_24  and  C_25
REMARK    6  A    between atoms: C_25  and  C_26
REMARK    7  A    between atoms: N_35  and  C_36
REMARK                            x       y       z     vdW  Elec       q    Type
REMARK                         _______ _______ _______ _____ _____    ______ ____
ROOT
ATOM      1  C   UNL     1      -5.395  -1.990   0.039  0.00  0.00    +0.247 C 
ATOM      2  O   UNL     1      -5.919  -2.303   1.091  0.00  0.00    -0.270 OA
ATOM      3  N   UNL     1      -6.073  -2.127  -1.118  0.00  0.00    -0.296 N 
ATOM      4  C   UNL     1      -5.567  -1.924  -2.496  0.00  0.00    +0.121 C 
ATOM      5  C   UNL     1      -6.221  -3.054  -3.322  0.00  0.00    +0.100 C 
ATOM      6  C   UNL     1      -7.484  -3.437  -2.533  0.00  0.00    -0.004 C 
ATOM      7  C   UNL     1      -7.490  -2.522  -1.300  0.00  0.00    +0.115 C 
ATOM      8  C   UNL     1      -7.414  -4.897  -2.098  0.00  0.00    -0.010 C 
ATOM      9  C   UNL     1      -8.706  -5.270  -1.365  0.00  0.00    -0.082 C 
ATOM     10  N   UNL     1      -9.854  -5.058  -2.255  0.00  0.00    +0.379 N 
ATOM     11  C   UNL     1      -9.969  -3.634  -2.594  0.00  0.00    -0.082 C 
ATOM     12  C   UNL     1      -8.730  -3.192  -3.379  0.00  0.00    -0.010 C 
ATOM     13  H   UNL     1      -9.726  -5.594  -3.100  0.00  0.00    -0.086 HD
ATOM     14  H   UNL     1     -10.697  -5.361  -1.792  0.00  0.00    -0.086 HD
ENDROOT
BRANCH   1  18
ATOM     15  C   UNL     1      -1.431  -0.465   0.011  0.00  0.00    -0.048 A 
ATOM     16  C   UNL     1      -1.851  -1.274   1.053  0.00  0.00    +0.004 A 
ATOM     17  C   UNL     1      -3.137  -1.772   1.068  0.00  0.00    +0.013 A 
ATOM     18  C   UNL     1      -4.016  -1.459   0.030  0.00  0.00    +0.037 A 
ATOM     19  C   UNL     1      -3.586  -0.643  -1.018  0.00  0.00    +0.013 A 
ATOM     20  C   UNL     1      -2.299  -0.147  -1.018  0.00  0.00    +0.004 A 
BRANCH  15  22
ATOM     21  C   UNL     1       0.010   1.420   0.730  0.00  0.00    +0.009 C 
ATOM     22  C   UNL     1      -0.024   0.075   0.002  0.00  0.00    +0.032 C 
ENDBRANCH  15  22
ENDBRANCH   1  18
BRANCH   5  23
ATOM     23  C   UNL     1      -6.589  -2.554  -4.696  0.00  0.00    +0.218 C 
ATOM     24  O   UNL     1      -6.794  -1.373  -4.876  0.00  0.00    -0.275 OA
ATOM     25  N   UNL     1      -6.690  -3.421  -5.723  0.00  0.00    -0.311 N 
ATOM     26  H   UNL     1      -6.526  -4.366  -5.579  0.00  0.00    +0.149 HD
BRANCH  25  27
ATOM     27  C   UNL     1      -7.047  -2.935  -7.058  0.00  0.00    +0.139 C 
BRANCH  27  28
ATOM     28  C   UNL     1      -7.092  -4.095  -8.019  0.00  0.00    -0.030 A 
ATOM     29  C   UNL     1      -5.951  -4.466  -8.706  0.00  0.00    +0.007 A 
ATOM     30  C   UNL     1      -5.993  -5.528  -9.588  0.00  0.00    +0.024 A 
ATOM     31  C   UNL     1      -7.182  -6.223  -9.784  0.00  0.00    +0.033 A 
ATOM     32  C   UNL     1      -8.324  -5.852  -9.092  0.00  0.00    -0.026 A 
ATOM     33  C   UNL     1      -8.272  -4.788  -8.208  0.00  0.00    +0.010 A 
ATOM     34  C   UNL     1      -9.626  -6.588  -9.271  0.00  0.00    +0.038 C 
ATOM     35  C   UNL     1      -9.629  -7.358 -10.592  0.00  0.00    +0.024 C 
ATOM     36  C   UNL     1      -8.354  -8.208 -10.673  0.00  0.00    +0.105 C 
ATOM     37  N   UNL     1      -7.204  -7.293 -10.685  0.00  0.00    -0.333 N 
ATOM     38  C   UNL     1      -6.100  -7.497 -11.626  0.00  0.00    +0.129 C 
ENDBRANCH  27  28
ENDBRANCH  25  27
ENDBRANCH   5  23
TORSDOF 5
