REMARK  Name = ZINC36525774
REMARK  11 active torsions:
REMARK  status: ('A' for Active; 'I' for Inactive)
REMARK    1  A    between atoms: C_1  and  C_2
REMARK    2  A    between atoms: C_5  and  S_8
REMARK    3  A    between atoms: S_8  and  C_11
REMARK    4  A    between atoms: C_11  and  N_12
REMARK    5  A    between atoms: C_13  and  C_15
REMARK    6  A    between atoms: C_15  and  C_17
REMARK    7  A    between atoms: C_15  and  N_23
REMARK    8  A    between atoms: N_23  and  C_24
REMARK    9  A    between atoms: C_25  and  C_27
REMARK   10  A    between atoms: C_27  and  C_28
REMARK   11  A    between atoms: C_28  and  C_29
REMARK                            x       y       z     vdW  Elec       q    Type
REMARK                         _______ _______ _______ _____ _____    ______ ____
ROOT
ATOM      1  C   UNL     1       3.307  -4.940   3.478  0.00  0.00    +0.165 C 
ENDROOT
BRANCH   1   2
ATOM      2  C   UNL     1       4.706  -4.463   3.085  0.00  0.00    +0.018 C 
ATOM      3  C   UNL     1       5.501  -4.120   4.347  0.00  0.00    +0.006 C 
ATOM      4  C   UNL     1       6.901  -3.643   3.953  0.00  0.00    +0.000 C 
ATOM      5  C   UNL     1       6.786  -2.400   3.069  0.00  0.00    +0.000 C 
ATOM      6  C   UNL     1       5.991  -2.742   1.808  0.00  0.00    +0.000 C 
ATOM      7  C   UNL     1       4.591  -3.219   2.201  0.00  0.00    +0.006 C 
ENDBRANCH   1   2
BRANCH   1   9
ATOM      8  N   UNL     1       2.047  -4.481   1.399  0.00  0.00    -0.295 N 
ATOM      9  C   UNL     1       2.565  -5.392   2.247  0.00  0.00    +0.235 C 
ATOM     10  O   UNL     1       2.435  -6.576   2.018  0.00  0.00    -0.274 OA
ATOM     11  H   UNL     1       2.081  -3.537   1.622  0.00  0.00    +0.150 HD
BRANCH   8  12
ATOM     12  C   UNL     1       1.433  -4.915   0.142  0.00  0.00    +0.278 C 
BRANCH  12  13
ATOM     13  S   UNL     1      -0.359  -5.082   0.371  0.00  0.00    +0.013 S 
ATOM     14  O   UNL     1      -0.634  -5.808   1.561  0.00  0.00    -0.168 OA
ATOM     15  O   UNL     1      -0.977  -5.442  -0.857  0.00  0.00    -0.168 OA
BRANCH  13  20
ATOM     16  C   UNL     1      -2.312   0.514   1.495  0.00  0.00    +0.044 C 
ATOM     17  C   UNL     1      -1.824  -0.883   1.214  0.00  0.00    -0.050 A 
ATOM     18  C   UNL     1      -1.765  -1.347  -0.087  0.00  0.00    +0.005 A 
ATOM     19  C   UNL     1      -1.318  -2.629  -0.344  0.00  0.00    +0.027 A 
ATOM     20  C   UNL     1      -0.928  -3.448   0.699  0.00  0.00    +0.090 A 
ATOM     21  C   UNL     1      -0.986  -2.984   2.000  0.00  0.00    +0.027 A 
ATOM     22  C   UNL     1      -1.429  -1.700   2.257  0.00  0.00    +0.005 A 
ENDBRANCH  13  20
ENDBRANCH  12  13
ENDBRANCH   8  12
ENDBRANCH   1   9
BRANCH   1  23
ATOM     23  N   UNL     1       3.418  -6.058   4.419  0.00  0.00    -0.293 N 
ATOM     24  C   UNL     1       4.111  -7.285   4.019  0.00  0.00    +0.133 C 
ATOM     25  C   UNL     1       2.883  -5.957   5.652  0.00  0.00    +0.216 C 
ATOM     26  O   UNL     1       2.309  -4.941   5.983  0.00  0.00    -0.276 OA
BRANCH  25  27
ATOM     27  C   UNL     1       2.998  -7.106   6.619  0.00  0.00    +0.096 C 
BRANCH  27  28
ATOM     28  C   UNL     1       2.312  -6.736   7.936  0.00  0.00    +0.013 C 
BRANCH  28  29
ATOM     29  C   UNL     1       2.428  -7.903   8.918  0.00  0.00    -0.011 C 
ATOM     30  C   UNL     1       1.647  -9.103   8.379  0.00  0.00    +0.003 C 
ATOM     31  C   UNL     1       1.764 -10.270   9.361  0.00  0.00    +0.000 C 
ATOM     32  C   UNL     1       1.189  -9.855  10.717  0.00  0.00    +0.000 C 
ATOM     33  C   UNL     1       1.970  -8.655  11.256  0.00  0.00    +0.000 C 
ATOM     34  C   UNL     1       1.854  -7.488  10.274  0.00  0.00    +0.003 C 
ENDBRANCH  28  29
ENDBRANCH  27  28
ENDBRANCH  25  27
ENDBRANCH   1  23
TORSDOF 9
