REMARK  Name = ZINC39575892
REMARK  5 active torsions:
REMARK  status: ('A' for Active; 'I' for Inactive)
REMARK    1  A    between atoms: C_6  and  C_10
REMARK    2  A    between atoms: C_10  and  S_11
REMARK    3  A    between atoms: S_11  and  C_12
REMARK    4  A    between atoms: C_15  and  C_25
REMARK    5  A    between atoms: N_17  and  C_18
REMARK                            x       y       z     vdW  Elec       q    Type
REMARK                         _______ _______ _______ _____ _____    ______ ____
ROOT
ATOM      1  C   UNL     1      -4.853  -5.494  -1.409  0.00  0.00    +0.180 C 
ATOM      2  N   UNL     1      -5.233  -6.077  -0.323  0.00  0.00    -0.162 NA
ATOM      3  N   UNL     1      -6.006  -7.213  -0.594  0.00  0.00    -0.242 N 
ATOM      4  C   UNL     1      -6.092  -7.311  -2.061  0.00  0.00    +0.214 C 
ATOM      5  N   UNL     1      -5.320  -6.151  -2.539  0.00  0.00    -0.254 N 
ATOM      6  H   UNL     1      -6.404  -7.814   0.055  0.00  0.00    +0.170 HD
ENDROOT
BRANCH   5   7
ATOM      7  C   UNL     1      -5.099  -5.786  -3.870  0.00  0.00    +0.038 A 
ATOM      8  C   UNL     1      -6.169  -5.427  -4.680  0.00  0.00    +0.024 A 
ATOM      9  C   UNL     1      -5.947  -5.067  -5.995  0.00  0.00    +0.017 A 
ATOM     10  C   UNL     1      -4.661  -5.063  -6.505  0.00  0.00    +0.018 A 
ATOM     11  C   UNL     1      -3.593  -5.420  -5.700  0.00  0.00    +0.017 A 
ATOM     12  C   UNL     1      -3.808  -5.775  -4.383  0.00  0.00    +0.024 A 
ATOM     13 BR   UNL     1      -4.361  -4.569  -8.306  0.00  0.00    -0.050 Br
ENDBRANCH   5   7
BRANCH   4  14
ATOM     14  C   UNL     1      -5.478  -8.600  -2.542  0.00  0.00    +0.010 A 
ATOM     15  C   UNL     1      -5.372  -9.688  -1.689  0.00  0.00    +0.010 A 
ATOM     16  C   UNL     1      -4.799 -10.854  -2.175  0.00  0.00    +0.020 A 
ATOM     17  C   UNL     1      -4.356 -10.892  -3.483  0.00  0.00    +0.111 A 
ATOM     18  N   UNL     1      -4.473  -9.837  -4.266  0.00  0.00    -0.263 NA
ATOM     19  C   UNL     1      -5.018  -8.714  -3.840  0.00  0.00    +0.117 A 
ENDBRANCH   4  14
BRANCH   1  20
ATOM     20  S   UNL     1      -3.865  -4.036  -1.454  0.00  0.00    -0.081 S 
BRANCH  20  21
ATOM     21  C   UNL     1      -3.571  -3.652   0.295  0.00  0.00    +0.151 C 
BRANCH  21  27
ATOM     22  C   UNL     1       0.302   0.945   0.709  0.00  0.00    +0.002 A 
ATOM     23  C   UNL     1      -0.868   1.690   0.728  0.00  0.00    +0.002 A 
ATOM     24  C   UNL     1      -2.086   1.076   0.654  0.00  0.00    +0.030 A 
ATOM     25  C   UNL     1      -2.160  -0.316   0.557  0.00  0.00    +0.089 A 
ATOM     26  N   UNL     1      -3.191  -1.196   0.471  0.00  0.00    -0.232 NA
ATOM     27  C   UNL     1      -2.726  -2.409   0.401  0.00  0.00    +0.118 A 
ATOM     28  N   UNL     1      -1.366  -2.391   0.437  0.00  0.00    -0.341 N 
ATOM     29  C   UNL     1      -0.975  -1.071   0.537  0.00  0.00    +0.066 A 
ATOM     30  C   UNL     1       0.254  -0.430   0.614  0.00  0.00    +0.028 A 
ATOM     31  H   UNL     1      -0.780  -3.163   0.400  0.00  0.00    +0.167 HD
ENDBRANCH  21  27
ENDBRANCH  20  21
ENDBRANCH   1  20
TORSDOF 5
