REMARK  Name = ZINC38596806
REMARK  11 active torsions:
REMARK  status: ('A' for Active; 'I' for Inactive)
REMARK    1  A    between atoms: C_1  and  C_2
REMARK    2  A    between atoms: C_2  and  C_4
REMARK    3  A    between atoms: C_2  and  N_24
REMARK    4  A    between atoms: C_4  and  C_6
REMARK    5  A    between atoms: C_4  and  N_11
REMARK    6  A    between atoms: N_14  and  C_17
REMARK    7  A    between atoms: C_17  and  C_18
REMARK    8  A    between atoms: C_25  and  C_27
REMARK    9  A    between atoms: N_29  and  C_30
REMARK   10  A    between atoms: C_30  and  C_31
REMARK   11  A    between atoms: C_31  and  C_32
REMARK                            x       y       z     vdW  Elec       q    Type
REMARK                         _______ _______ _______ _____ _____    ______ ____
ROOT
ATOM      1  C   UNL     1       0.742  -0.511   1.242  0.00  0.00    +0.113 C 
ENDROOT
BRANCH   1   2
ATOM      2  N   UNL     1       0.341   0.090   2.521  0.00  0.00    -0.297 NA
ATOM      3  C   UNL     1      -0.873  -0.550   3.046  0.00  0.00    +0.066 C 
ATOM      4  C   UNL     1      -1.290   0.142   4.345  0.00  0.00    -0.063 C 
ATOM      5  N   UNL     1      -0.200   0.043   5.325  0.00  0.00    +0.384 N 
ATOM      6  C   UNL     1       0.998   0.709   4.796  0.00  0.00    -0.063 C 
ATOM      7  C   UNL     1       1.434   0.021   3.501  0.00  0.00    +0.066 C 
ATOM      8  H   UNL     1       0.006  -0.929   5.502  0.00  0.00    -0.081 HD
BRANCH   5   9
ATOM      9  C   UNL     1      -0.608   0.692   6.578  0.00  0.00    -0.043 C 
BRANCH   9  10
ATOM     10  C   UNL     1       0.459   0.484   7.622  0.00  0.00    -0.064 A 
ATOM     11  C   UNL     1       0.414  -0.625   8.445  0.00  0.00    +0.002 A 
ATOM     12  C   UNL     1       1.392  -0.815   9.403  0.00  0.00    +0.000 A 
ATOM     13  C   UNL     1       2.417   0.103   9.536  0.00  0.00    +0.000 A 
ATOM     14  C   UNL     1       2.463   1.212   8.712  0.00  0.00    +0.000 A 
ATOM     15  C   UNL     1       1.487   1.400   7.752  0.00  0.00    +0.002 A 
ENDBRANCH   9  10
ENDBRANCH   5   9
ENDBRANCH   1   2
BRANCH   1  16
ATOM     16  C   UNL     1       1.216  -1.922   1.476  0.00  0.00    +0.009 A 
ATOM     17  C   UNL     1       2.353  -2.523   1.046  0.00  0.00    +0.013 A 
ATOM     18  C   UNL     1       2.583  -3.843   1.388  0.00  0.00    +0.008 A 
ATOM     19  C   UNL     1       1.666  -4.496   2.142  0.00  0.00    +0.045 A 
ATOM     20  S   UNL     1       0.431  -3.233   2.400  0.00  0.00    -0.100 S 
ENDBRANCH   1  16
BRANCH   1  22
ATOM     21  C   UNL     1      -0.936   0.905   0.050  0.00  0.00    +0.030 C 
ATOM     22  C   UNL     1      -0.455  -0.527   0.288  0.00  0.00    +0.092 C 
BRANCH  22  23
ATOM     23  N   UNL     1      -0.055  -1.127  -0.987  0.00  0.00    -0.303 N 
ATOM     24  C   UNL     1      -0.979  -1.706  -1.778  0.00  0.00    +0.299 C 
ATOM     25  O   UNL     1      -2.142  -1.732  -1.434  0.00  0.00    -0.265 OA
ATOM     26  H   UNL     1       0.875  -1.106  -1.262  0.00  0.00    +0.149 HD
BRANCH  24  27
ATOM     27  C   UNL     1      -0.571  -2.318  -3.080  0.00  0.00    +0.299 C 
ATOM     28  O   UNL     1       0.592  -2.292  -3.424  0.00  0.00    -0.265 OA
ATOM     29  N   UNL     1      -1.496  -2.898  -3.871  0.00  0.00    -0.307 N 
ATOM     30  H   UNL     1      -2.425  -2.918  -3.596  0.00  0.00    +0.149 HD
BRANCH  29  31
ATOM     31  C   UNL     1      -1.096  -3.497  -5.146  0.00  0.00    +0.109 C 
BRANCH  31  32
ATOM     32  C   UNL     1      -2.326  -4.082  -5.843  0.00  0.00    +0.049 C 
BRANCH  32  33
ATOM     33  C   UNL     1      -1.915  -4.698  -7.155  0.00  0.00    -0.072 C 
ATOM     34  C   UNL     1      -1.672  -5.969  -7.179  0.00  0.00    -0.028 C 
ATOM     35  C   UNL     1      -1.244  -6.721  -8.405  0.00  0.00    +0.027 C 
ATOM     36  C   UNL     1      -1.545  -5.898  -9.660  0.00  0.00    +0.004 C 
ATOM     37  C   UNL     1      -0.996  -4.481  -9.454  0.00  0.00    +0.005 C 
ATOM     38  C   UNL     1      -1.818  -3.801  -8.355  0.00  0.00    +0.030 C 
ENDBRANCH  32  33
ENDBRANCH  31  32
ENDBRANCH  29  31
ENDBRANCH  24  27
ENDBRANCH  22  23
ENDBRANCH   1  22
TORSDOF 10
