REMARK  Name = ZINC21356154
REMARK  4 active torsions:
REMARK  status: ('A' for Active; 'I' for Inactive)
REMARK    1  A    between atoms: C_9  and  S_11
REMARK    2  A    between atoms: S_11  and  C_12
REMARK    3  A    between atoms: C_12  and  C_13
REMARK    4  A    between atoms: C_25  and  C_27
REMARK                            x       y       z     vdW  Elec       q    Type
REMARK                         _______ _______ _______ _____ _____    ______ ____
ROOT
ATOM      1  C   UNL     1      -0.742   1.585  -1.213  0.00  0.00    +0.231 C 
ATOM      2  O   UNL     1      -1.736   2.268  -1.088  0.00  0.00    -0.274 OA
ATOM      3  N   UNL     1      -0.288   1.272  -2.443  0.00  0.00    -0.254 N 
ATOM      4  C   UNL     1       0.858   0.491  -2.574  0.00  0.00    +0.058 A 
ATOM      5  C   UNL     1       0.868  -0.841  -2.172  0.00  0.00    +0.025 A 
ATOM      6  C   UNL     1       2.004  -1.604  -2.374  0.00  0.00    +0.002 A 
ATOM      7  C   UNL     1       3.121  -1.052  -2.976  0.00  0.00    +0.002 A 
ATOM      8  C   UNL     1       3.121   0.278  -3.358  0.00  0.00    +0.025 A 
ATOM      9  C   UNL     1       1.993   1.048  -3.133  0.00  0.00    +0.053 A 
ATOM     10  N   UNL     1       1.944   2.404  -3.437  0.00  0.00    -0.316 N 
ATOM     11  C   UNL     1       1.114   2.961  -4.356  0.00  0.00    +0.017 C 
ATOM     12  C   UNL     1      -0.201   2.717  -4.463  0.00  0.00    +0.040 C 
ATOM     13  C   UNL     1      -0.997   1.758  -3.608  0.00  0.00    +0.182 C 
ATOM     14  C   UNL     1      -0.976   3.385  -5.441  0.00  0.00    +0.163 C 
ATOM     15  O   UNL     1      -2.162   3.132  -5.522  0.00  0.00    -0.292 OA
ATOM     16  C   UNL     1      -0.386   4.395  -6.380  0.00  0.00    +0.080 C 
ATOM     17  C   UNL     1       0.824   5.045  -5.699  0.00  0.00    +0.014 C 
ATOM     18  C   UNL     1       1.794   3.930  -5.311  0.00  0.00    +0.051 C 
ATOM     19  H   UNL     1       2.609   3.109  -2.917  0.00  0.00    +0.152 HD
ENDROOT
BRANCH  13  20
ATOM     20  C   UNL     1      -1.392   0.576  -4.455  0.00  0.00    +0.130 A 
ATOM     21  C   UNL     1      -2.563   0.427  -5.101  0.00  0.00    +0.047 A 
ATOM     22  C   UNL     1      -2.508  -0.819  -5.767  0.00  0.00    +0.041 A 
ATOM     23  C   UNL     1      -1.307  -1.357  -5.489  0.00  0.00    +0.195 A 
ATOM     24  O   UNL     1      -0.633  -0.505  -4.699  0.00  0.00    -0.466 OA
ENDBRANCH  13  20
BRANCH   1  25
ATOM     25  C   UNL     1      -0.013   1.086   0.008  0.00  0.00    +0.173 C 
BRANCH  25  26
ATOM     26  S   UNL     1      -0.860   1.669   1.497  0.00  0.00    -0.079 S 
BRANCH  26  35
ATOM     27  C   UNL     1       2.453  -0.601   6.337  0.00  0.00    +0.002 A 
ATOM     28  C   UNL     1       3.235  -1.140   5.326  0.00  0.00    +0.002 A 
ATOM     29  C   UNL     1       2.916  -0.922   4.005  0.00  0.00    +0.030 A 
ATOM     30  C   UNL     1       1.796  -0.152   3.679  0.00  0.00    +0.090 A 
ATOM     31  C   UNL     1       1.008   0.391   4.707  0.00  0.00    +0.067 A 
ATOM     32  C   UNL     1       1.344   0.161   6.032  0.00  0.00    +0.028 A 
ATOM     33  N   UNL     1      -0.012   1.090   4.083  0.00  0.00    -0.333 N 
ATOM     34  H   UNL     1      -0.770   1.612   4.685  0.00  0.00    +0.168 HD
ATOM     35  C   UNL     1       0.174   0.961   2.735  0.00  0.00    +0.168 A 
ATOM     36  N   UNL     1       1.234   0.226   2.501  0.00  0.00    -0.222 NA
ENDBRANCH  26  35
ENDBRANCH  25  26
ENDBRANCH   1  25
TORSDOF 4
