REMARK  Name = ZINC10000747
REMARK  10 active torsions:
REMARK  status: ('A' for Active; 'I' for Inactive)
REMARK    1  A    between atoms: C_1  and  C_2
REMARK    2  A    between atoms: C_2  and  C_3
REMARK    3  A    between atoms: C_2  and  C_4
REMARK    4  A    between atoms: C_4  and  C_6
REMARK    5  A    between atoms: C_4  and  N_26
REMARK    6  A    between atoms: N_8  and  N_9
REMARK    7  A    between atoms: C_10  and  C_11
REMARK    8  A    between atoms: C_13  and  N_23
REMARK    9  A    between atoms: C_16  and  N_17
REMARK   10  A    between atoms: C_27  and  C_29
REMARK                            x       y       z     vdW  Elec       q    Type
REMARK                         _______ _______ _______ _____ _____    ______ ____
ROOT
ATOM      1  C   UNL     1       0.260   2.008   0.655  0.00  0.00    +0.253 C 
ATOM      2  O   UNL     1      -0.107   3.125   0.357  0.00  0.00    -0.272 OA
ATOM      3  N   UNL     1       1.154   1.835   1.649  0.00  0.00    -0.205 N 
ATOM      4  H   UNL     1       1.502   0.950   1.839  0.00  0.00    +0.177 HD
ENDROOT
BRANCH   3   5
ATOM      5  N   UNL     1       1.579   2.933   2.407  0.00  0.00    -0.188 NA
ATOM      6  C   UNL     1       2.532   2.792   3.277  0.00  0.00    +0.140 C 
BRANCH   6   7
ATOM      7  C   UNL     1       3.352   1.567   3.279  0.00  0.00    +0.018 A 
ATOM      8  C   UNL     1       3.493   0.815   2.111  0.00  0.00    +0.044 A 
ATOM      9  C   UNL     1       4.262  -0.330   2.119  0.00  0.00    +0.127 A 
ATOM     10  C   UNL     1       4.896  -0.738   3.281  0.00  0.00    +0.034 A 
ATOM     11  C   UNL     1       4.770  -0.000   4.442  0.00  0.00    +0.026 A 
ATOM     12  C   UNL     1       3.996   1.151   4.454  0.00  0.00    +0.039 A 
BRANCH  12  13
ATOM     13  N   UNL     1       3.864   1.893   5.626  0.00  0.00    -0.325 N 
ATOM     14  C   UNL     1       2.488   1.823   6.141  0.00  0.00    +0.133 C 
ATOM     15  C   UNL     1       2.373   2.699   7.392  0.00  0.00    +0.178 C 
ATOM     16  O   UNL     1       3.335   2.269   8.358  0.00  0.00    -0.377 OA
ATOM     17  C   UNL     1       4.686   2.325   7.890  0.00  0.00    +0.178 C 
ATOM     18  C   UNL     1       4.825   1.446   6.644  0.00  0.00    +0.133 C 
ENDBRANCH  12  13
BRANCH   9  19
ATOM     19  N   UNL     1       4.410  -1.127   0.881  0.00  0.00    +0.056 N 
ATOM     20  O   UNL     1       3.854  -0.770  -0.143  0.00  0.00    -0.126 OA
ATOM     21  O   UNL     1       5.089  -2.138   0.885  0.00  0.00    -0.126 OA
ENDBRANCH   9  19
ENDBRANCH   6   7
ENDBRANCH   3   5
BRANCH   1  22
ATOM     22  C   UNL     1      -0.283   0.813  -0.086  0.00  0.00    +0.163 C 
BRANCH  22  23
ATOM     23  N   UNL     1      -1.076   1.268  -1.230  0.00  0.00    -0.300 N 
ATOM     24  C   UNL     1      -1.239   0.463  -2.300  0.00  0.00    +0.245 C 
ATOM     25  O   UNL     1      -0.728  -0.640  -2.314  0.00  0.00    -0.270 OA
ATOM     26  H   UNL     1      -1.484   2.148  -1.219  0.00  0.00    +0.150 HD
BRANCH  24  27
ATOM     27  C   UNL     1      -2.040   0.922  -3.455  0.00  0.00    +0.038 A 
ATOM     28  C   UNL     1      -2.210   0.091  -4.564  0.00  0.00    +0.013 A 
ATOM     29  C   UNL     1      -2.958   0.524  -5.638  0.00  0.00    +0.002 A 
ATOM     30  C   UNL     1      -3.540   1.780  -5.620  0.00  0.00    +0.020 A 
ATOM     31  C   UNL     1      -3.376   2.609  -4.523  0.00  0.00    +0.042 A 
ATOM     32  C   UNL     1      -2.632   2.185  -3.439  0.00  0.00    +0.033 A 
ATOM     33 CL   UNL     1      -4.111   4.182  -4.508  0.00  0.00    -0.084 Cl
ENDBRANCH  24  27
ENDBRANCH  22  23
BRANCH  22  35
ATOM     34  C   UNL     1      -2.286   0.875   1.406  0.00  0.00    +0.009 C 
ATOM     35  C   UNL     1      -1.168  -0.010   0.853  0.00  0.00    +0.012 C 
ATOM     36  C   UNL     1      -1.778  -1.182   0.081  0.00  0.00    +0.009 C 
ENDBRANCH  22  35
ENDBRANCH   1  22
TORSDOF 8
