REMARK  Name = ZINC57642179
REMARK  11 active torsions:
REMARK  status: ('A' for Active; 'I' for Inactive)
REMARK    1  A    between atoms: C_1  and  C_2
REMARK    2  A    between atoms: C_2  and  C_3
REMARK    3  A    between atoms: C_3  and  C_5
REMARK    4  A    between atoms: C_3  and  N_15
REMARK    5  A    between atoms: N_9  and  C_10
REMARK    6  A    between atoms: N_15  and  C_16
REMARK    7  A    between atoms: N_15  and  C_23
REMARK    8  A    between atoms: C_16  and  C_17
REMARK    9  A    between atoms: C_23  and  C_24
REMARK   10  A    between atoms: C_27  and  C_37
REMARK   11  A    between atoms: C_30  and  C_36
REMARK                            x       y       z     vdW  Elec       q    Type
REMARK                         _______ _______ _______ _____ _____    ______ ____
ROOT
ATOM      1  N   UNL     1      -0.032  -0.042   2.095  0.00  0.00    -0.284 NA
ENDROOT
BRANCH   1   2
ATOM      2  C   UNL     1       0.979  -0.723   1.275  0.00  0.00    +0.127 C 
BRANCH   2   3
ATOM      3  C   UNL     1       0.759  -0.384  -0.177  0.00  0.00    +0.169 A 
ATOM      4  N   UNL     1       0.553   0.809  -0.680  0.00  0.00    -0.112 NA
ATOM      5  N   UNL     1       0.411   0.685  -1.954  0.00  0.00    -0.023 NA
ATOM      6  N   UNL     1       0.521  -0.557  -2.277  0.00  0.00    -0.044 NA
ATOM      7  N   UNL     1       0.741  -1.247  -1.210  0.00  0.00    -0.225 N 
BRANCH   7   8
ATOM      8  C   UNL     1       0.932  -2.697  -1.135  0.00  0.00    +0.111 C 
ATOM      9  C   UNL     1       2.113  -3.122  -2.034  0.00  0.00    +0.027 C 
ATOM     10  C   UNL     1       1.666  -4.479  -2.631  0.00  0.00    +0.002 C 
ATOM     11  C   UNL     1       0.153  -4.261  -2.882  0.00  0.00    +0.002 C 
ATOM     12  C   UNL     1      -0.313  -3.422  -1.674  0.00  0.00    +0.027 C 
ENDBRANCH   7   8
ENDBRANCH   2   3
BRANCH   2  14
ATOM     13  C   UNL     1       2.627  -0.674   3.152  0.00  0.00    +0.006 C 
ATOM     14  C   UNL     1       2.375  -0.262   1.700  0.00  0.00    +0.023 C 
ENDBRANCH   2  14
ENDBRANCH   1   2
BRANCH   1  15
ATOM     15  C   UNL     1      -1.366  -0.616   1.871  0.00  0.00    +0.120 C 
BRANCH  15  16
ATOM     16  C   UNL     1      -1.470  -1.938   2.585  0.00  0.00    -0.033 A 
ATOM     17  C   UNL     1      -1.056  -3.098   1.957  0.00  0.00    +0.005 A 
ATOM     18  C   UNL     1      -1.153  -4.311   2.613  0.00  0.00    +0.000 A 
ATOM     19  C   UNL     1      -1.662  -4.365   3.897  0.00  0.00    +0.000 A 
ATOM     20  C   UNL     1      -2.075  -3.205   4.525  0.00  0.00    +0.000 A 
ATOM     21  C   UNL     1      -1.975  -1.991   3.871  0.00  0.00    +0.005 A 
ENDBRANCH  15  16
ENDBRANCH   1  15
BRANCH   1  22
ATOM     22  C   UNL     1      -0.032   1.404   1.839  0.00  0.00    +0.126 C 
BRANCH  22  23
ATOM     23  C   UNL     1      -0.749   2.113   2.959  0.00  0.00    +0.032 A 
ATOM     24  C   UNL     1      -0.046   2.595   4.013  0.00  0.00    +0.020 A 
ATOM     25  C   UNL     1      -0.773   3.280   5.084  0.00  0.00    +0.002 A 
ATOM     26  C   UNL     1      -0.103   3.798   6.197  0.00  0.00    -0.041 A 
ATOM     27  C   UNL     1      -0.810   4.432   7.179  0.00  0.00    +0.004 A 
ATOM     28  C   UNL     1      -2.189   4.565   7.083  0.00  0.00    +0.005 A 
ATOM     29  C   UNL     1      -2.870   4.061   5.996  0.00  0.00    -0.026 A 
ATOM     30  C   UNL     1      -2.171   3.413   4.983  0.00  0.00    +0.052 A 
ATOM     31  N   UNL     1      -2.827   2.900   3.884  0.00  0.00    -0.322 N 
ATOM     32  H   UNL     1      -3.790   2.993   3.816  0.00  0.00    +0.169 HD
ATOM     33  C   UNL     1      -2.150   2.278   2.903  0.00  0.00    +0.254 A 
ATOM     34  O   UNL     1      -2.762   1.841   1.943  0.00  0.00    -0.268 OA
ATOM     35  C   UNL     1      -4.367   4.211   5.905  0.00  0.00    +0.046 C 
ATOM     36  C   UNL     1       1.393   3.659   6.312  0.00  0.00    +0.044 C 
ENDBRANCH  22  23
ENDBRANCH   1  22
TORSDOF 8
