REMARK  Name = ZINC32947969
REMARK  6 active torsions:
REMARK  status: ('A' for Active; 'I' for Inactive)
REMARK    1  A    between atoms: C_1  and  C_2
REMARK    2  A    between atoms: C_5  and  C_8
REMARK    3  A    between atoms: C_8  and  C_10
REMARK    4  A    between atoms: C_11  and  N_24
REMARK    5  A    between atoms: N_15  and  C_16
REMARK    6  A    between atoms: C_21  and  C_22
REMARK                            x       y       z     vdW  Elec       q    Type
REMARK                         _______ _______ _______ _____ _____    ______ ____
ROOT
ATOM      1  C   UNL     1       1.680   2.847  -0.145  0.00  0.00    +0.102 A 
ATOM      2  C   UNL     1       3.012   2.415  -0.062  0.00  0.00    +0.136 A 
ATOM      3  N   UNL     1       3.941   3.338  -0.000  0.00  0.00    -0.210 NA
ATOM      4  C   UNL     1       3.640   4.628  -0.015  0.00  0.00    +0.165 A 
ATOM      5  S   UNL     1       1.908   4.619  -0.132  0.00  0.00    -0.047 S 
ATOM      6  N   UNL     1       4.492   5.709   0.043  0.00  0.00    -0.293 N 
ATOM      7  H   UNL     1       4.083   6.728   0.108  0.00  0.00    +0.154 HD
ENDROOT
BRANCH   6   8
ATOM      8  C   UNL     1       5.876   5.511   0.020  0.00  0.00    +0.036 A 
ATOM      9  C   UNL     1       6.396   4.225   0.088  0.00  0.00    +0.025 A 
ATOM     10  C   UNL     1       7.763   4.032   0.060  0.00  0.00    +0.022 A 
ATOM     11  C   UNL     1       8.615   5.119  -0.026  0.00  0.00    +0.041 A 
ATOM     12  C   UNL     1       8.100   6.402  -0.088  0.00  0.00    +0.025 A 
ATOM     13  C   UNL     1       6.733   6.600  -0.066  0.00  0.00    -0.028 A 
ATOM     14  C   UNL     1       6.173   7.998  -0.135  0.00  0.00    +0.046 C 
ATOM     15 CL   UNL     1      10.333   4.873  -0.054  0.00  0.00    -0.084 Cl
ENDBRANCH   6   8
BRANCH   2  16
ATOM     16  N   UNL     1       3.333   1.067  -0.046  0.00  0.00    -0.342 N 
ATOM     17  H   UNL     1       4.386   0.753   0.019  0.00  0.00    +0.144 HD
ATOM     18  H   UNL     1       2.536   0.311  -0.099  0.00  0.00    +0.144 HD
ENDBRANCH   2  16
BRANCH   1  19
ATOM     19  C   UNL     1       0.494   2.094  -0.223  0.00  0.00    +0.203 C 
ATOM     20  O   UNL     1       0.548   0.882  -0.343  0.00  0.00    -0.286 OA
BRANCH  19  25
ATOM     21  C   UNL     1      -4.614   4.739   0.002  0.00  0.00    +0.044 C 
ATOM     22  C   UNL     1      -3.277   4.046  -0.057  0.00  0.00    -0.050 A 
ATOM     23  C   UNL     1      -2.160   4.656   0.487  0.00  0.00    +0.004 A 
ATOM     24  C   UNL     1      -0.933   4.028   0.437  0.00  0.00    +0.012 A 
ATOM     25  C   UNL     1      -0.820   2.774  -0.165  0.00  0.00    +0.023 A 
ATOM     26  C   UNL     1      -1.948   2.167  -0.717  0.00  0.00    +0.012 A 
ATOM     27  C   UNL     1      -3.170   2.803  -0.655  0.00  0.00    +0.004 A 
ENDBRANCH  19  25
ENDBRANCH   1  19
TORSDOF 4
