REMARK  Name = ZINC42667355
REMARK  7 active torsions:
REMARK  status: ('A' for Active; 'I' for Inactive)
REMARK    1  A    between atoms: C_1  and  C_2
REMARK    2  A    between atoms: C_2  and  C_4
REMARK    3  A    between atoms: C_2  and  N_15
REMARK    4  A    between atoms: N_6  and  C_7
REMARK    5  A    between atoms: N_15  and  C_16
REMARK    6  A    between atoms: C_19  and  N_22
REMARK    7  A    between atoms: N_25  and  C_26
REMARK                            x       y       z     vdW  Elec       q    Type
REMARK                         _______ _______ _______ _____ _____    ______ ____
ROOT
ATOM      1  N   UNL     1       1.218   0.396  -1.062  0.00  0.00    -0.333 N 
ATOM      2  H   UNL     1       2.167   0.477  -0.878  0.00  0.00    +0.147 HD
ENDROOT
BRANCH   1   3
ATOM      3  C   UNL     1       0.764   0.340  -2.384  0.00  0.00    +0.028 A 
ATOM      4  C   UNL     1      -0.595   0.229  -2.647  0.00  0.00    +0.025 A 
ATOM      5  C   UNL     1      -1.043   0.173  -3.952  0.00  0.00    +0.025 A 
ATOM      6  C   UNL     1      -0.135   0.228  -5.001  0.00  0.00    +0.035 A 
ATOM      7  C   UNL     1       1.224   0.339  -4.738  0.00  0.00    +0.025 A 
ATOM      8  C   UNL     1       1.672   0.400  -3.433  0.00  0.00    +0.025 A 
BRANCH   6   9
ATOM      9  N   UNL     1      -0.590   0.171  -6.325  0.00  0.00    -0.269 N 
ATOM     10  C   UNL     1      -1.749   0.769  -6.666  0.00  0.00    +0.304 C 
ATOM     11  O   UNL     1      -2.437   1.293  -5.812  0.00  0.00    -0.253 OA
ATOM     12  N   UNL     1      -2.144   0.788  -7.955  0.00  0.00    -0.296 N 
ATOM     13  H   UNL     1      -0.071  -0.299  -6.997  0.00  0.00    +0.156 HD
ATOM     14  H   UNL     1      -1.595   0.370  -8.637  0.00  0.00    +0.151 HD
BRANCH  12  15
ATOM     15  C   UNL     1      -3.403   1.438  -8.325  0.00  0.00    +0.075 C 
ATOM     16  C   UNL     1      -4.311   0.708  -9.317  0.00  0.00    +0.024 C 
ATOM     17  C   UNL     1      -3.538   1.951  -9.761  0.00  0.00    +0.024 C 
ENDBRANCH  12  15
ENDBRANCH   6   9
ENDBRANCH   1   3
BRANCH   1  19
ATOM     18  C   UNL     1      -0.286   1.734   0.328  0.00  0.00    +0.038 C 
ATOM     19  C   UNL     1       0.261   0.333   0.045  0.00  0.00    +0.154 C 
BRANCH  19  20
ATOM     20  C   UNL     1       0.951  -0.195   1.277  0.00  0.00    +0.237 C 
ATOM     21  O   UNL     1       2.126  -0.489   1.234  0.00  0.00    -0.273 OA
ATOM     22  N   UNL     1       0.261  -0.341   2.426  0.00  0.00    -0.279 N 
ATOM     23  H   UNL     1      -0.667  -0.062   2.473  0.00  0.00    +0.155 HD
BRANCH  22  24
ATOM     24  C   UNL     1       0.884  -0.894   3.552  0.00  0.00    +0.105 A 
ATOM     25  C   UNL     1       0.539  -0.456   4.825  0.00  0.00    +0.147 A 
ATOM     26  C   UNL     1       1.157  -1.005   5.935  0.00  0.00    +0.040 A 
ATOM     27  C   UNL     1       2.117  -1.988   5.778  0.00  0.00    +0.006 A 
ATOM     28  C   UNL     1       2.463  -2.426   4.514  0.00  0.00    +0.040 A 
ATOM     29  C   UNL     1       1.846  -1.886   3.400  0.00  0.00    +0.147 A 
ATOM     30  F   UNL     1       2.181  -2.319   2.164  0.00  0.00    -0.203 F 
ATOM     31  F   UNL     1      -0.398   0.504   4.979  0.00  0.00    -0.203 F 
ENDBRANCH  22  24
ENDBRANCH  19  20
ENDBRANCH   1  19
TORSDOF 6
