REMARK  Name = ZINC32853919
REMARK  11 active torsions:
REMARK  status: ('A' for Active; 'I' for Inactive)
REMARK    1  A    between atoms: C_1  and  C_2
REMARK    2  A    between atoms: C_2  and  O_3
REMARK    3  A    between atoms: O_3  and  C_4
REMARK    4  A    between atoms: C_4  and  C_6
REMARK    5  A    between atoms: C_10  and  N_11
REMARK    6  A    between atoms: C_12  and  C_14
REMARK    7  A    between atoms: C_14  and  N_15
REMARK    8  A    between atoms: C_24  and  C_30
REMARK    9  A    between atoms: C_24  and  C_31
REMARK   10  A    between atoms: C_26  and  C_28
REMARK   11  A    between atoms: C_26  and  C_29
REMARK                            x       y       z     vdW  Elec       q    Type
REMARK                         _______ _______ _______ _____ _____    ______ ____
ROOT
ATOM      1  C   UNL     1      -5.569   6.323   3.508  0.00  0.00    +0.091 A 
ATOM      2  C   UNL     1      -5.740   6.422   4.942  0.00  0.00    -0.024 A 
ATOM      3  C   UNL     1      -4.762   5.858   5.687  0.00  0.00    -0.016 A 
ATOM      4  S   UNL     1      -3.625   5.195   4.504  0.00  0.00    -0.079 S 
ATOM      5  C   UNL     1      -4.434   5.663   3.045  0.00  0.00    +0.086 A 
ATOM      6  C   UNL     1      -4.686   5.828   7.179  0.00  0.00    -0.041 C 
ATOM      7  N   UNL     1      -5.920   6.305   7.793  0.00  0.00    +0.389 N 
ATOM      8  C   UNL     1      -7.123   6.338   6.980  0.00  0.00    -0.069 C 
ATOM      9  C   UNL     1      -6.907   7.087   5.660  0.00  0.00    +0.024 C 
ATOM     10  C   UNL     1      -7.622   4.921   6.680  0.00  0.00    -0.010 C 
ATOM     11  C   UNL     1      -8.227   7.072   7.763  0.00  0.00    -0.010 C 
ATOM     12  C   UNL     1      -4.379   4.397   7.643  0.00  0.00    -0.005 C 
ATOM     13  C   UNL     1      -3.521   6.732   7.624  0.00  0.00    -0.005 C 
ATOM     14  H   UNL     1      -6.174   5.664   8.650  0.00  0.00    -0.084 HD
ATOM     15  H   UNL     1      -5.781   7.340   8.137  0.00  0.00    -0.084 HD
ENDROOT
BRANCH   5  16
ATOM     16  N   UNL     1      -4.047   5.438   1.734  0.00  0.00    -0.278 N 
ATOM     17  C   UNL     1      -2.903   4.773   1.474  0.00  0.00    +0.239 C 
ATOM     18  O   UNL     1      -2.214   4.372   2.388  0.00  0.00    -0.273 OA
ATOM     19  H   UNL     1      -4.672   5.801   0.905  0.00  0.00    +0.155 HD
BRANCH  17  20
ATOM     20  C   UNL     1      -2.482   4.527   0.048  0.00  0.00    +0.243 C 
BRANCH  20  21
ATOM     21  N   UNL     1      -1.216   3.791   0.033  0.00  0.00    -0.219 N 
ATOM     22  C   UNL     1      -1.240   2.445   0.021  0.00  0.00    +0.288 A 
ATOM     23  O   UNL     1      -2.304   1.847   0.023  0.00  0.00    -0.265 OA
ATOM     24  C   UNL     1      -0.021   1.732   0.012  0.00  0.00    +0.126 A 
ATOM     25  C   UNL     1       1.141   2.455   0.004  0.00  0.00    +0.084 A 
ATOM     26  C   UNL     1       1.052   3.858   0.012  0.00  0.00    +0.154 A 
ATOM     27  N   UNL     1      -0.112   4.446   0.026  0.00  0.00    -0.175 NA
ATOM     28 CL   UNL     1       2.684   1.660  -0.015  0.00  0.00    -0.080 Cl
ATOM     29 CL   UNL     1       0.002  -0.004   0.002  0.00  0.00    -0.076 Cl
ENDBRANCH  20  21
ENDBRANCH  17  20
ENDBRANCH   5  16
BRANCH   1  30
ATOM     30  C   UNL     1      -6.540   6.892   2.571  0.00  0.00    +0.342 C 
ATOM     31  O   UNL     1      -7.475   6.218   2.180  0.00  0.00    -0.245 OA
BRANCH  30  32
ATOM     32  O   UNL     1      -6.400   8.163   2.143  0.00  0.00    -0.461 OA
BRANCH  32  34
ATOM     33  C   UNL     1      -7.076  10.109   0.844  0.00  0.00    +0.048 C 
ATOM     34  C   UNL     1      -7.400   8.660   1.215  0.00  0.00    +0.229 C 
ENDBRANCH  32  34
ENDBRANCH  30  32
ENDBRANCH   1  30
TORSDOF 6
