REMARK  Name = ZINC12794424
REMARK  7 active torsions:
REMARK  status: ('A' for Active; 'I' for Inactive)
REMARK    1  A    between atoms: C_1  and  C_2
REMARK    2  A    between atoms: C_3  and  C_12
REMARK    3  A    between atoms: N_13  and  N_14
REMARK    4  A    between atoms: C_15  and  C_21
REMARK    5  A    between atoms: N_19  and  C_20
REMARK    6  A    between atoms: C_24  and  O_28
REMARK    7  A    between atoms: C_26  and  O_27
REMARK                            x       y       z     vdW  Elec       q    Type
REMARK                         _______ _______ _______ _____ _____    ______ ____
ROOT
ATOM      1  N   UNL     1      -3.678   2.615  -0.442  0.00  0.00    -0.208 N 
ATOM      2  C   UNL     1      -4.830   2.037  -0.904  0.00  0.00    +0.085 A 
ATOM      3  C   UNL     1      -5.843   2.817  -1.333  0.00  0.00    +0.077 A 
ATOM      4  S   UNL     1      -5.184   4.458  -1.091  0.00  0.00    -0.056 S 
ATOM      5  C   UNL     1      -3.594   3.992  -0.425  0.00  0.00    +0.189 A 
ATOM      6  N   UNL     1      -2.606   4.756  -0.028  0.00  0.00    -0.263 NA
ATOM      7  C   UNL     1      -2.733   6.213  -0.100  0.00  0.00    +0.173 C 
ENDROOT
BRANCH   2   8
ATOM      8  C   UNL     1      -4.963   0.564  -0.932  0.00  0.00    +0.043 A 
ATOM      9  C   UNL     1      -3.860  -0.232  -1.242  0.00  0.00    +0.017 A 
ATOM     10  C   UNL     1      -3.987  -1.605  -1.268  0.00  0.00    +0.046 A 
ATOM     11  C   UNL     1      -5.210  -2.199  -0.986  0.00  0.00    +0.120 A 
ATOM     12  C   UNL     1      -6.312  -1.415  -0.677  0.00  0.00    +0.091 A 
ATOM     13  C   UNL     1      -6.194  -0.036  -0.643  0.00  0.00    +0.129 A 
BRANCH  13  14
ATOM     14  O   UNL     1      -7.271   0.733  -0.335  0.00  0.00    -0.506 OA
ATOM     15  H   UNL     1      -7.801   0.991  -1.101  0.00  0.00    +0.292 HD
ENDBRANCH  13  14
BRANCH  11  16
ATOM     16  O   UNL     1      -5.329  -3.553  -1.013  0.00  0.00    -0.507 OA
ATOM     17  H   UNL     1      -5.148  -3.981  -0.165  0.00  0.00    +0.292 HD
ENDBRANCH  11  16
ENDBRANCH   2   8
BRANCH   1  19
ATOM     18  C   UNL     1      -1.405   2.308   0.019  0.00  0.00    +0.143 C 
ATOM     19  N   UNL     1      -2.612   1.826   0.009  0.00  0.00    -0.172 NA
BRANCH  18  22
ATOM     20  C   UNL     1      -1.703  -0.397   1.520  0.00  0.00    +0.064 C 
ATOM     21  C   UNL     1      -0.416   0.350   1.282  0.00  0.00    +0.023 A 
ATOM     22  C   UNL     1      -0.309   1.536   0.623  0.00  0.00    +0.023 A 
ATOM     23  C   UNL     1       1.121   1.891   0.628  0.00  0.00    +0.009 A 
ATOM     24  C   UNL     1       1.852   2.965   0.123  0.00  0.00    +0.010 A 
ATOM     25  C   UNL     1       3.218   3.003   0.298  0.00  0.00    +0.001 A 
ATOM     26  C   UNL     1       3.866   1.979   0.975  0.00  0.00    +0.002 A 
ATOM     27  C   UNL     1       3.157   0.912   1.480  0.00  0.00    +0.026 A 
ATOM     28  C   UNL     1       1.776   0.855   1.313  0.00  0.00    +0.047 A 
ATOM     29  N   UNL     1       0.817  -0.060   1.694  0.00  0.00    -0.358 N 
ATOM     30  H   UNL     1       0.995  -0.877   2.184  0.00  0.00    +0.166 HD
ENDBRANCH  18  22
ENDBRANCH   1  19
TORSDOF 5
