REMARK  Name = ZINC43771941
REMARK  15 active torsions:
REMARK  status: ('A' for Active; 'I' for Inactive)
REMARK    1  A    between atoms: C_1  and  C_2
REMARK    2  A    between atoms: C_2  and  C_39
REMARK    3  A    between atoms: C_3  and  C_4
REMARK    4  A    between atoms: C_4  and  C_5
REMARK    5  A    between atoms: C_5  and  C_6
REMARK    6  A    between atoms: C_6  and  C_7
REMARK    7  A    between atoms: C_6  and  C_8
REMARK    8  A    between atoms: C_6  and  O_38
REMARK    9  A    between atoms: C_12  and  C_37
REMARK   10  A    between atoms: C_15  and  O_36
REMARK   11  A    between atoms: C_20  and  C_35
REMARK   12  A    between atoms: C_25  and  C_34
REMARK   13  A    between atoms: C_28  and  O_33
REMARK   14  A    between atoms: C_30  and  C_31
REMARK   15  A    between atoms: C_30  and  C_32
REMARK                            x       y       z     vdW  Elec       q    Type
REMARK                         _______ _______ _______ _____ _____    ______ ____
ROOT
ATOM      1  C   UNL     1      -2.065  -1.931   6.214  0.00  0.00    +0.027 C 
ATOM      2  C   UNL     1      -2.236  -3.011   7.316  0.00  0.00    +0.007 C 
ATOM      3  C   UNL     1      -3.107  -2.332   8.418  0.00  0.00    +0.008 C 
ATOM      4  C   UNL     1      -2.594  -0.878   8.341  0.00  0.00    -0.021 C 
ATOM      5  C   UNL     1      -2.640  -0.657   6.813  0.00  0.00    +0.030 C 
ATOM      6  C   UNL     1      -2.115   0.689   6.410  0.00  0.00    +0.119 C 
ATOM      7  C   UNL     1      -2.972   1.760   7.124  0.00  0.00    +0.036 C 
ATOM      8  C   UNL     1      -2.931   1.539   8.631  0.00  0.00    +0.004 C 
ATOM      9  C   UNL     1      -3.468   0.165   9.024  0.00  0.00    -0.023 C 
ATOM     10  C   UNL     1      -3.429  -0.018  10.543  0.00  0.00    +0.008 C 
ATOM     11  C   UNL     1      -4.185   1.133  11.225  0.00  0.00    +0.005 C 
ATOM     12  C   UNL     1      -3.450   2.429  10.888  0.00  0.00    +0.003 C 
ATOM     13  C   UNL     1      -3.543   2.713   9.395  0.00  0.00    -0.025 C 
ATOM     14  C   UNL     1      -2.690   3.964   9.104  0.00  0.00    +0.010 C 
ATOM     15  C   UNL     1      -3.241   5.148   9.890  0.00  0.00    +0.032 C 
ATOM     16  C   UNL     1      -3.170   4.893  11.387  0.00  0.00    +0.120 C 
ATOM     17  C   UNL     1      -3.818   3.574  11.802  0.00  0.00    -0.006 C 
ATOM     18  C   UNL     1      -5.329   3.757  11.945  0.00  0.00    +0.014 C 
ATOM     19  C   UNL     1      -3.271   3.252  13.217  0.00  0.00    +0.014 C 
ATOM     20  C   UNL     1      -4.964   2.997   8.925  0.00  0.00    +0.012 C 
ATOM     21  C   UNL     1      -4.918  -0.040   8.562  0.00  0.00    +0.012 C 
ATOM     22  C   UNL     1      -1.169  -0.850   8.897  0.00  0.00    +0.012 C 
ENDROOT
BRANCH   1  23
ATOM     23  C   UNL     1      -0.610  -1.807   5.786  0.00  0.00    +0.067 C 
ATOM     24  C   UNL     1      -0.507  -0.837   4.607  0.00  0.00    +0.041 C 
BRANCH  23  25
ATOM     25  O   UNL     1       0.168  -1.314   6.878  0.00  0.00    -0.389 OA
ATOM     26  H   UNL     1       0.498  -2.004   7.469  0.00  0.00    +0.210 HD
ENDBRANCH  23  25
BRANCH  23  27
ATOM     27  C   UNL     1      -0.084  -3.181   5.364  0.00  0.00    +0.039 C 
BRANCH  27  28
ATOM     28  C   UNL     1       1.379  -3.056   4.933  0.00  0.00    +0.030 C 
BRANCH  28  31
ATOM     29  C   UNL     1       2.610  -3.386   2.418  0.00  0.00    +0.038 C 
ATOM     30  C   UNL     1       2.420  -4.572   3.328  0.00  0.00    -0.080 C 
ATOM     31  C   UNL     1       1.897  -4.409   4.518  0.00  0.00    -0.028 C 
ATOM     32  C   UNL     1       2.831  -5.947   2.868  0.00  0.00    +0.038 C 
ENDBRANCH  28  31
ENDBRANCH  27  28
ENDBRANCH  23  27
ENDBRANCH   1  23
BRANCH  16  33
ATOM     33  O   UNL     1      -1.801   4.901  11.811  0.00  0.00    -0.391 OA
ATOM     34  H   UNL     1      -1.343   5.735  11.643  0.00  0.00    +0.210 HD
ENDBRANCH  16  33
BRANCH   6  35
ATOM     35  O   UNL     1      -0.743   0.899   6.726  0.00  0.00    -0.391 OA
ATOM     36  H   UNL     1      -0.407   1.768   6.466  0.00  0.00    +0.210 HD
ENDBRANCH   6  35
TORSDOF 7
