REMARK  Name = ZINC04814208
REMARK  3 active torsions:
REMARK  status: ('A' for Active; 'I' for Inactive)
REMARK    1  A    between atoms: C_1  and  C_2
REMARK    2  A    between atoms: C_2  and  C_30
REMARK    3  A    between atoms: C_6  and  C_20
REMARK                            x       y       z     vdW  Elec       q    Type
REMARK                         _______ _______ _______ _____ _____    ______ ____
ROOT
ATOM      1  C   UNL     1      -4.085  -2.349   2.969  0.00  0.00    +0.011 C 
ATOM      2  C   UNL     1      -2.820  -2.113   3.796  0.00  0.00    -0.023 C 
ATOM      3  C   UNL     1      -1.666  -2.934   3.215  0.00  0.00    +0.058 C 
ATOM      4  C   UNL     1      -1.386  -2.485   1.805  0.00  0.00    +0.020 C 
ATOM      5  C   UNL     1      -1.600  -1.207   1.422  0.00  0.00    +0.039 C 
ATOM      6  C   UNL     1      -1.293  -0.775   0.011  0.00  0.00    +0.147 C 
ATOM      7  C   UNL     1      -0.988  -3.126  -0.449  0.00  0.00    +0.166 C 
ATOM      8  N   UNL     1      -0.903  -3.393   0.899  0.00  0.00    -0.292 N 
ATOM      9  N   UNL     1      -0.875  -4.160  -1.353  0.00  0.00    -0.243 N 
ATOM     10  C   UNL     1      -0.959  -3.905  -2.707  0.00  0.00    +0.295 A 
ATOM     11  N   UNL     1      -0.866  -4.810  -3.647  0.00  0.00    -0.195 NA
ATOM     12  C   UNL     1      -0.995  -4.199  -4.856  0.00  0.00    +0.111 A 
ATOM     13  C   UNL     1      -0.978  -4.657  -6.175  0.00  0.00    +0.031 A 
ATOM     14  C   UNL     1      -1.140  -3.763  -7.210  0.00  0.00    +0.002 A 
ATOM     15  C   UNL     1      -1.320  -2.413  -6.950  0.00  0.00    +0.004 A 
ATOM     16  C   UNL     1      -1.339  -1.947  -5.651  0.00  0.00    +0.048 A 
ATOM     17  C   UNL     1      -1.177  -2.832  -4.598  0.00  0.00    +0.157 A 
ATOM     18  O   UNL     1      -1.153  -2.692  -3.252  0.00  0.00    -0.424 OA
ATOM     19  C   UNL     1      -2.111  -0.258   2.321  0.00  0.00    +0.163 C 
ATOM     20  O   UNL     1      -2.291   0.884   1.946  0.00  0.00    -0.292 OA
ATOM     21  C   UNL     1      -2.439  -0.630   3.742  0.00  0.00    +0.086 C 
ATOM     22  C   UNL     1      -3.069  -2.531   5.246  0.00  0.00    +0.011 C 
ATOM     23  H   UNL     1      -0.503  -4.221   1.207  0.00  0.00    +0.154 HD
ATOM     24  H   UNL     1      -0.737  -5.067  -1.038  0.00  0.00    +0.159 HD
ATOM     25  N   UNL     1      -1.177  -1.909  -0.969  0.00  0.00    -0.350 N 
ATOM     26  H   UNL     1      -1.239  -1.757  -1.983  0.00  0.00    +0.163 HD
ENDROOT
BRANCH   6  27
ATOM     27  C   UNL     1       0.002  -0.004   0.002  0.00  0.00    -0.019 A 
ATOM     28  C   UNL     1       1.208  -0.679  -0.013  0.00  0.00    +0.006 A 
ATOM     29  C   UNL     1       2.397   0.027  -0.021  0.00  0.00    +0.002 A 
ATOM     30  C   UNL     1       2.379   1.409  -0.014  0.00  0.00    +0.020 A 
ATOM     31  C   UNL     1       1.172   2.086   0.002  0.00  0.00    +0.041 A 
ATOM     32  C   UNL     1      -0.017   1.378   0.010  0.00  0.00    +0.026 A 
ATOM     33 CL   UNL     1       1.150   3.821   0.011  0.00  0.00    -0.084 Cl
ENDBRANCH   6  27
TORSDOF 1
