REMARK  Name = ZINC62518602
REMARK  13 active torsions:
REMARK  status: ('A' for Active; 'I' for Inactive)
REMARK    1  A    between atoms: C_1  and  C_2
REMARK    2  A    between atoms: C_2  and  C_3
REMARK    3  A    between atoms: C_3  and  C_5
REMARK    4  A    between atoms: C_3  and  C_6
REMARK    5  A    between atoms: C_6  and  C_8
REMARK    6  A    between atoms: C_6  and  N_20
REMARK    7  A    between atoms: N_10  and  C_11
REMARK    8  A    between atoms: C_11  and  C_12
REMARK    9  A    between atoms: C_21  and  O_23
REMARK   10  A    between atoms: O_23  and  C_24
REMARK   11  A    between atoms: C_24  and  C_25
REMARK   12  A    between atoms: C_24  and  C_26
REMARK   13  A    between atoms: C_24  and  C_27
REMARK                            x       y       z     vdW  Elec       q    Type
REMARK                         _______ _______ _______ _____ _____    ______ ____
ROOT
ATOM      1  C   UNL     1       2.353  -0.205   1.151  0.00  0.00    +0.165 C 
ENDROOT
BRANCH   1   2
ATOM      2  C   UNL     1       2.559   1.283   1.271  0.00  0.00    +0.234 C 
ATOM      3  O   UNL     1       3.182   1.735   2.208  0.00  0.00    -0.274 OA
ATOM      4  N   UNL     1       2.050   2.111   0.338  0.00  0.00    -0.305 N 
ATOM      5  H   UNL     1       1.488   1.758  -0.369  0.00  0.00    +0.149 HD
BRANCH   4   6
ATOM      6  C   UNL     1       2.347   3.545   0.390  0.00  0.00    +0.200 C 
BRANCH   6   7
ATOM      7  C   UNL     1       1.663   4.242  -0.758  0.00  0.00    +0.233 C 
ATOM      8  O   UNL     1       0.994   3.604  -1.543  0.00  0.00    -0.274 OA
ATOM      9  N   UNL     1       1.796   5.574  -0.912  0.00  0.00    -0.300 N 
ATOM     10  C   UNL     1       2.608   6.359   0.027  0.00  0.00    +0.108 C 
ATOM     11  C   UNL     1       3.638   7.168  -0.768  0.00  0.00    +0.019 C 
ATOM     12  C   UNL     1       2.916   8.005  -1.827  0.00  0.00    +0.003 C 
ATOM     13  C   UNL     1       2.177   7.078  -2.796  0.00  0.00    +0.019 C 
ATOM     14  C   UNL     1       1.136   6.268  -2.027  0.00  0.00    +0.108 C 
ENDBRANCH   6   7
ENDBRANCH   4   6
ENDBRANCH   1   2
BRANCH   1  15
ATOM     15  N   UNL     1       3.333  -0.903   1.988  0.00  0.00    -0.270 N 
ATOM     16  C   UNL     1       3.694  -2.167   1.690  0.00  0.00    +0.401 C 
ATOM     17  O   UNL     1       3.208  -2.727   0.728  0.00  0.00    -0.226 OA
ATOM     18  H   UNL     1       3.721  -0.455   2.756  0.00  0.00    +0.153 HD
BRANCH  16  19
ATOM     19  O   UNL     1       4.595  -2.808   2.458  0.00  0.00    -0.445 OA
BRANCH  19  20
ATOM     20  C   UNL     1       4.932  -4.145   2.084  0.00  0.00    +0.107 C 
ATOM     21  C   UNL     1       5.521  -4.147   0.672  0.00  0.00    +0.055 C 
ATOM     22  C   UNL     1       5.962  -4.706   3.067  0.00  0.00    +0.055 C 
ATOM     23  C   UNL     1       3.674  -5.015   2.113  0.00  0.00    +0.055 C 
ENDBRANCH  19  20
ENDBRANCH  16  19
ENDBRANCH   1  15
BRANCH   1  24
ATOM     24  C   UNL     1       0.939  -0.563   1.615  0.00  0.00    +0.015 C 
ATOM     25  C   UNL     1       0.813  -0.299   3.117  0.00  0.00    +0.010 C 
BRANCH  24  27
ATOM     26  C   UNL     1       0.651  -2.279  -0.178  0.00  0.00    +0.004 C 
ATOM     27  C   UNL     1       0.670  -2.043   1.333  0.00  0.00    +0.002 C 
ENDBRANCH  24  27
ENDBRANCH   1  24
TORSDOF 8
