REMARK  Name = ZINC64870181
REMARK  6 active torsions:
REMARK  status: ('A' for Active; 'I' for Inactive)
REMARK    1  A    between atoms: C_1  and  O_2
REMARK    2  A    between atoms: O_2  and  C_3
REMARK    3  A    between atoms: C_6  and  N_9
REMARK    4  A    between atoms: C_15  and  C_22
REMARK    5  A    between atoms: C_25  and  C_29
REMARK    6  A    between atoms: C_33  and  C_35
REMARK                            x       y       z     vdW  Elec       q    Type
REMARK                         _______ _______ _______ _____ _____    ______ ____
ROOT
ATOM      1  N   UNL     1       2.541  -2.504   4.232  0.00  0.00    -0.229 N 
ATOM      2  C   UNL     1       2.509  -3.852   4.321  0.00  0.00    +0.269 A 
ATOM      3  O   UNL     1       1.931  -4.518   3.485  0.00  0.00    -0.266 OA
ATOM      4  C   UNL     1       3.194  -4.493   5.457  0.00  0.00    +0.063 A 
ATOM      5  C   UNL     1       3.207  -5.876   5.619  0.00  0.00    +0.016 A 
ATOM      6  C   UNL     1       3.863  -6.428   6.699  0.00  0.00    +0.008 A 
ATOM      7  C   UNL     1       4.505  -5.614   7.620  0.00  0.00    -0.000 A 
ATOM      8  C   UNL     1       4.500  -4.242   7.472  0.00  0.00    +0.034 A 
ATOM      9  C   UNL     1       3.846  -3.669   6.392  0.00  0.00    +0.056 A 
ATOM     10  N   UNL     1       3.817  -2.295   6.205  0.00  0.00    -0.307 N 
ATOM     11  H   UNL     1       4.262  -1.714   6.841  0.00  0.00    +0.170 HD
ATOM     12  C   UNL     1       3.181  -1.760   5.148  0.00  0.00    +0.334 A 
ATOM     13  O   UNL     1       3.183  -0.552   5.018  0.00  0.00    -0.246 OA
ENDROOT
BRANCH   7  14
ATOM     14  C   UNL     1       5.216  -6.235   8.796  0.00  0.00    +0.242 C 
ATOM     15  N   UNL     1       5.712  -7.577   8.431  0.00  0.00    -0.265 NA
ATOM     16  C   UNL     1       5.063  -8.528   9.364  0.00  0.00    +0.180 C 
ATOM     17  N   UNL     1       4.694  -7.678  10.528  0.00  0.00    -0.177 NA
ATOM     18  O   UNL     1       4.299  -6.399   9.892  0.00  0.00    -0.274 OA
ATOM     19  H   UNL     1       5.486  -7.799   7.473  0.00  0.00    +0.127 HD
ATOM     20  H   UNL     1       5.483  -7.546  11.143  0.00  0.00    +0.156 HD
BRANCH  16  21
ATOM     21  C   UNL     1       6.029  -9.609   9.777  0.00  0.00    -0.014 A 
ATOM     22  C   UNL     1       7.034 -10.004   8.915  0.00  0.00    +0.006 A 
ATOM     23  C   UNL     1       7.920 -10.995   9.294  0.00  0.00    +0.001 A 
ATOM     24  C   UNL     1       7.800 -11.591  10.536  0.00  0.00    +0.012 A 
ATOM     25  C   UNL     1       6.796 -11.195  11.399  0.00  0.00    +0.055 A 
ATOM     26  C   UNL     1       5.913 -10.200  11.021  0.00  0.00    +0.019 A 
BRANCH  25  27
ATOM     27  C   UNL     1       6.666 -11.844  12.752  0.00  0.00    +0.417 C 
ATOM     28  F   UNL     1       7.667 -12.810  12.904  0.00  0.00    -0.166 F 
ATOM     29  F   UNL     1       6.799 -10.873  13.750  0.00  0.00    -0.166 F 
ATOM     30  F   UNL     1       5.411 -12.453  12.859  0.00  0.00    -0.166 F 
ENDBRANCH  25  27
ENDBRANCH  16  21
ENDBRANCH   7  14
BRANCH   1  34
ATOM     31  C   UNL     1       0.625  -0.620   1.042  0.00  0.00    +0.120 A 
ATOM     32  C   UNL     1       1.953  -1.002   0.925  0.00  0.00    +0.047 A 
ATOM     33  C   UNL     1       2.588  -1.625   1.981  0.00  0.00    +0.030 A 
ATOM     34  C   UNL     1       1.896  -1.870   3.160  0.00  0.00    +0.055 A 
ATOM     35  C   UNL     1       0.567  -1.487   3.276  0.00  0.00    +0.030 A 
ATOM     36  C   UNL     1      -0.066  -0.859   2.222  0.00  0.00    +0.047 A 
BRANCH  31  38
ATOM     37  C   UNL     1       0.770   0.209  -1.182  0.00  0.00    +0.277 C 
ATOM     38  O   UNL     1       0.000  -0.006   0.002  0.00  0.00    -0.495 OA
ENDBRANCH  31  38
ENDBRANCH   1  34
TORSDOF 5
