REMARK  Name = ZINC43510519
REMARK  8 active torsions:
REMARK  status: ('A' for Active; 'I' for Inactive)
REMARK    1  A    between atoms: C_1  and  C_2
REMARK    2  A    between atoms: C_3  and  C_4
REMARK    3  A    between atoms: C_3  and  C_5
REMARK    4  A    between atoms: C_5  and  O_7
REMARK    5  A    between atoms: O_7  and  C_8
REMARK    6  A    between atoms: C_11  and  C_31
REMARK    7  A    between atoms: C_17  and  C_30
REMARK    8  A    between atoms: C_18  and  O_29
REMARK                            x       y       z     vdW  Elec       q    Type
REMARK                         _______ _______ _______ _____ _____    ______ ____
ROOT
ATOM      1  C   UNL     1      -4.780  -0.322  -0.422  0.00  0.00    +0.191 C 
ATOM      2  C   UNL     1      -4.984  -0.040  -1.884  0.00  0.00    +0.082 C 
ATOM      3  C   UNL     1      -4.644  -1.161  -2.849  0.00  0.00    +0.097 C 
ATOM      4  C   UNL     1      -3.399  -2.002  -2.622  0.00  0.00    +0.154 C 
ATOM      5  O   UNL     1      -3.491  -1.111  -3.716  0.00  0.00    -0.365 OA
ATOM      6  C   UNL     1      -3.655  -3.523  -2.605  0.00  0.00    +0.061 C 
ATOM      7  C   UNL     1      -4.768  -3.601  -1.588  0.00  0.00    -0.023 C 
ATOM      8  C   UNL     1      -4.610  -3.629  -0.307  0.00  0.00    -0.045 C 
ATOM      9  C   UNL     1      -5.858  -3.455   0.542  0.00  0.00    +0.181 C 
ATOM     10  C   UNL     1      -6.545  -2.219  -0.074  0.00  0.00    +0.220 C 
ATOM     11  C   UNL     1      -5.888  -0.918   0.401  0.00  0.00    +0.110 C 
ATOM     12  C   UNL     1      -7.080   0.022   0.579  0.00  0.00    +0.040 C 
ATOM     13  C   UNL     1      -7.062   1.337   0.782  0.00  0.00    +0.020 C 
ATOM     14  C   UNL     1      -8.264  -0.855   0.490  0.00  0.00    +0.335 C 
ATOM     15  O   UNL     1      -9.411  -0.457   0.558  0.00  0.00    -0.245 OA
ATOM     16  O   UNL     1      -7.924  -2.151   0.338  0.00  0.00    -0.454 OA
ATOM     17  C   UNL     1      -3.288  -3.878   0.367  0.00  0.00    +0.041 C 
ATOM     18  C   UNL     1      -5.858  -1.673  -3.656  0.00  0.00    +0.044 C 
ENDROOT
BRANCH   9  19
ATOM     19  O   UNL     1      -6.700  -4.601   0.430  0.00  0.00    -0.384 OA
ATOM     20  H   UNL     1      -6.283  -5.425   0.717  0.00  0.00    +0.210 HD
ENDBRANCH   9  19
BRANCH   1  21
ATOM     21  O   UNL     1      -3.566  -1.015  -0.175  0.00  0.00    -0.457 OA
BRANCH  21  22
ATOM     22  C   UNL     1      -2.748  -0.501   0.766  0.00  0.00    +0.335 C 
ATOM     23  O   UNL     1      -3.110   0.449   1.432  0.00  0.00    -0.245 OA
BRANCH  22  26
ATOM     24  C   UNL     1      -1.167   0.421   2.910  0.00  0.00    +0.036 C 
ATOM     25  C   UNL     1      -0.663  -0.665   1.994  0.00  0.00    -0.020 C 
ATOM     26  C   UNL     1      -1.420  -1.091   0.987  0.00  0.00    +0.029 C 
ATOM     27  C   UNL     1      -0.916  -2.177   0.071  0.00  0.00    +0.051 C 
ENDBRANCH  22  26
ENDBRANCH  21  22
ENDBRANCH   1  21
TORSDOF 4
