REMARK  Name = ZINC63280011
REMARK  10 active torsions:
REMARK  status: ('A' for Active; 'I' for Inactive)
REMARK    1  A    between atoms: C_1  and  O_2
REMARK    2  A    between atoms: O_2  and  C_3
REMARK    3  A    between atoms: C_8  and  O_9
REMARK    4  A    between atoms: O_9  and  C_10
REMARK    5  A    between atoms: N_18  and  C_21
REMARK    6  A    between atoms: C_21  and  C_22
REMARK    7  A    between atoms: C_22  and  C_23
REMARK    8  A    between atoms: N_25  and  C_26
REMARK    9  A    between atoms: C_26  and  C_27
REMARK   10  A    between atoms: C_27  and  C_28
REMARK                            x       y       z     vdW  Elec       q    Type
REMARK                         _______ _______ _______ _____ _____    ______ ____
ROOT
ATOM      1  C   UNL     1      -1.201  -0.638   0.010  0.00  0.00    +0.162 A 
ATOM      2  C   UNL     1      -2.372   0.096   0.019  0.00  0.00    +0.053 A 
ATOM      3  C   UNL     1      -3.611  -0.539   0.033  0.00  0.00    -0.037 A 
ATOM      4  C   UNL     1      -3.663  -1.915   0.045  0.00  0.00    -0.023 A 
ATOM      5  C   UNL     1      -2.490  -2.658   0.025  0.00  0.00    +0.054 A 
ATOM      6  C   UNL     1      -1.259  -2.028   0.003  0.00  0.00    +0.162 A 
ATOM      7  C   UNL     1      -4.967  -2.678   0.099  0.00  0.00    +0.145 C 
ATOM      8  N   UNL     1      -6.067  -1.727  -0.054  0.00  0.00    -0.269 N 
ATOM      9  C   UNL     1      -6.050  -0.387   0.575  0.00  0.00    +0.169 C 
ATOM     10  C   UNL     1      -4.829   0.347   0.022  0.00  0.00    +0.067 C 
ATOM     11  C   UNL     1      -7.319   0.249   0.046  0.00  0.00    +0.244 C 
ATOM     12  O   UNL     1      -7.711   1.378   0.251  0.00  0.00    -0.273 OA
ATOM     13  N   UNL     1      -7.923  -0.698  -0.700  0.00  0.00    -0.224 N 
ATOM     14  C   UNL     1      -7.209  -1.832  -0.734  0.00  0.00    +0.312 C 
ATOM     15  O   UNL     1      -7.562  -2.839  -1.316  0.00  0.00    -0.252 OA
ENDROOT
BRANCH   1  17
ATOM     16  C   UNL     1      -0.017   1.425   0.010  0.00  0.00    +0.277 C 
ATOM     17  O   UNL     1       0.002  -0.004   0.002  0.00  0.00    -0.491 OA
ENDBRANCH   1  17
BRANCH   6  18
ATOM     18  O   UNL     1      -0.114  -2.762  -0.019  0.00  0.00    -0.491 OA
ATOM     19  C   UNL     1      -0.254  -4.184  -0.025  0.00  0.00    +0.277 C 
ENDBRANCH   6  18
BRANCH  13  20
ATOM     20  C   UNL     1      -9.203  -0.510  -1.389  0.00  0.00    +0.127 C 
BRANCH  20  21
ATOM     21  C   UNL     1      -8.949   0.030  -2.798  0.00  0.00    +0.115 C 
BRANCH  21  22
ATOM     22  C   UNL     1     -10.265   0.223  -3.506  0.00  0.00    +0.215 C 
ATOM     23  O   UNL     1     -11.304  -0.046  -2.940  0.00  0.00    -0.276 OA
ATOM     24  N   UNL     1     -10.289   0.693  -4.769  0.00  0.00    -0.315 N 
ATOM     25  H   UNL     1      -9.458   0.908  -5.222  0.00  0.00    +0.149 HD
BRANCH  24  26
ATOM     26  C   UNL     1     -11.568   0.880  -5.458  0.00  0.00    +0.108 C 
BRANCH  26  27
ATOM     27  C   UNL     1     -11.315   1.421  -6.867  0.00  0.00    +0.052 C 
BRANCH  27  28
ATOM     28  C   UNL     1     -12.630   1.613  -7.575  0.00  0.00    -0.040 C 
ATOM     29  C   UNL     1     -13.347   2.757  -7.662  0.00  0.00    +0.002 A 
ATOM     30  C   UNL     1     -13.125   4.112  -7.142  0.00  0.00    +0.048 A 
ATOM     31  C   UNL     1     -14.044   5.072  -7.398  0.00  0.00    +0.124 A 
ATOM     32  C   UNL     1     -15.201   4.805  -8.147  0.00  0.00    +0.040 A 
ATOM     33  C   UNL     1     -15.473   3.585  -8.656  0.00  0.00    +0.029 A 
ATOM     34  C   UNL     1     -14.575   2.502  -8.448  0.00  0.00    +0.043 A 
ATOM     35  N   UNL     1     -14.616   1.249  -8.832  0.00  0.00    -0.380 N 
ATOM     36  C   UNL     1     -13.414   0.569  -8.338  0.00  0.00    +0.144 C 
ATOM     37  F   UNL     1     -13.842   6.320  -6.921  0.00  0.00    -0.205 F 
ATOM     38  H   UNL     1     -15.321   0.841  -9.359  0.00  0.00    +0.160 HD
ENDBRANCH  27  28
ENDBRANCH  26  27
ENDBRANCH  24  26
ENDBRANCH  21  22
ENDBRANCH  20  21
ENDBRANCH  13  20
TORSDOF 8
