REMARK  Name = ZINC03267447
REMARK  8 active torsions:
REMARK  status: ('A' for Active; 'I' for Inactive)
REMARK    1  A    between atoms: C_1  and  C_2
REMARK    2  A    between atoms: C_4  and  C_25
REMARK    3  A    between atoms: C_8  and  N_12
REMARK    4  A    between atoms: N_12  and  N_13
REMARK    5  A    between atoms: N_13  and  C_14
REMARK    6  A    between atoms: C_14  and  N_16
REMARK    7  A    between atoms: N_16  and  C_17
REMARK    8  A    between atoms: C_22  and  C_23
REMARK                            x       y       z     vdW  Elec       q    Type
REMARK                         _______ _______ _______ _____ _____    ______ ____
ROOT
ATOM      1  N   UNL     1      -1.195   1.584   0.041  0.00  0.00    -0.265 N 
ATOM      2  H   UNL     1      -1.205   2.511   0.326  0.00  0.00    +0.170 HD
ENDROOT
BRANCH   1  10
ATOM      3  C   UNL     1      -5.161   4.880   1.005  0.00  0.00    +0.044 C 
ATOM      4  C   UNL     1      -4.992   3.383   0.955  0.00  0.00    -0.050 A 
ATOM      5  C   UNL     1      -6.038   2.558   1.330  0.00  0.00    +0.007 A 
ATOM      6  C   UNL     1      -5.896   1.187   1.281  0.00  0.00    -0.046 A 
ATOM      7  C   UNL     1      -4.705   0.630   0.869  0.00  0.00    -0.035 A 
ATOM      8  C   UNL     1      -3.646   1.454   0.493  0.00  0.00    +0.001 A 
ATOM      9  C   UNL     1      -3.795   2.838   0.536  0.00  0.00    +0.013 A 
ATOM     10  C   UNL     1      -2.374   0.839   0.047  0.00  0.00    +0.048 C 
ATOM     11  C   UNL     1      -2.368  -0.436  -0.344  0.00  0.00    -0.002 C 
ATOM     12  C   UNL     1      -3.633  -1.249  -0.351  0.00  0.00    +0.034 C 
ATOM     13  C   UNL     1      -4.528  -0.865   0.825  0.00  0.00    +0.040 C 
ATOM     14  C   UNL     1      -7.042   0.298   1.693  0.00  0.00    +0.044 C 
ENDBRANCH   1  10
BRANCH   1  15
ATOM     15  N   UNL     1       0.005   0.994  -0.378  0.00  0.00    -0.248 N 
ATOM     16  H   UNL     1       0.015   0.067  -0.663  0.00  0.00    +0.172 HD
BRANCH  15  17
ATOM     17  C   UNL     1       1.143   1.715  -0.389  0.00  0.00    +0.151 C 
ATOM     18  S   UNL     1       2.608   0.995  -0.906  0.00  0.00    -0.017 S 
BRANCH  17  19
ATOM     19  N   UNL     1       1.129   3.003   0.007  0.00  0.00    -0.296 N 
ATOM     20  H   UNL     1       0.287   3.434   0.225  0.00  0.00    +0.154 HD
BRANCH  19  21
ATOM     21  C   UNL     1       2.327   3.718   0.105  0.00  0.00    +0.037 A 
ATOM     22  C   UNL     1       3.439   3.135   0.698  0.00  0.00    +0.023 A 
ATOM     23  C   UNL     1       4.621   3.842   0.793  0.00  0.00    +0.003 A 
ATOM     24  C   UNL     1       4.699   5.132   0.299  0.00  0.00    +0.020 A 
ATOM     25  C   UNL     1       3.592   5.717  -0.292  0.00  0.00    +0.046 A 
ATOM     26  C   UNL     1       2.408   5.011  -0.394  0.00  0.00    -0.011 A 
ATOM     27  C   UNL     1       1.205   5.646  -1.043  0.00  0.00    +0.047 C 
ATOM     28 CL   UNL     1       3.694   7.336  -0.911  0.00  0.00    -0.083 Cl
ENDBRANCH  19  21
ENDBRANCH  17  19
ENDBRANCH  15  17
ENDBRANCH   1  15
TORSDOF 5
