REMARK  Name = ZINC13005993
REMARK  9 active torsions:
REMARK  status: ('A' for Active; 'I' for Inactive)
REMARK    1  A    between atoms: C_1  and  C_2
REMARK    2  A    between atoms: C_2  and  C_3
REMARK    3  A    between atoms: C_2  and  C_4
REMARK    4  A    between atoms: C_4  and  O_34
REMARK    5  A    between atoms: C_5  and  C_30
REMARK    6  A    between atoms: C_7  and  C_23
REMARK    7  A    between atoms: N_12  and  C_13
REMARK    8  A    between atoms: C_30  and  O_32
REMARK    9  A    between atoms: O_32  and  C_33
REMARK                            x       y       z     vdW  Elec       q    Type
REMARK                         _______ _______ _______ _____ _____    ______ ____
ROOT
ATOM      1  C   UNL     1       0.497  -0.662   1.290  0.00  0.00    +0.156 C 
ATOM      2  C   UNL     1       0.680  -2.182   1.214  0.00  0.00    +0.173 C 
ATOM      3  C   UNL     1       1.588  -2.505   0.023  0.00  0.00    +0.120 C 
ATOM      4  N   UNL     1       2.844  -1.765   0.161  0.00  0.00    -0.318 N 
ATOM      5  C   UNL     1       2.893  -0.588   0.802  0.00  0.00    +0.140 C 
ATOM      6  S   UNL     1       4.395   0.226   0.912  0.00  0.00    -0.018 S 
ATOM      7  N   UNL     1       1.812  -0.023   1.360  0.00  0.00    -0.253 N 
ATOM      8  H   UNL     1       3.657  -2.135  -0.217  0.00  0.00    +0.148 HD
ENDROOT
BRANCH   7   9
ATOM      9  C   UNL     1       1.944   1.204   2.022  0.00  0.00    +0.042 A 
ATOM     10  C   UNL     1       1.724   1.282   3.391  0.00  0.00    +0.027 A 
ATOM     11  C   UNL     1       1.853   2.492   4.045  0.00  0.00    +0.051 A 
ATOM     12  C   UNL     1       2.203   3.632   3.337  0.00  0.00    +0.162 A 
ATOM     13  C   UNL     1       2.426   3.558   1.968  0.00  0.00    +0.164 A 
ATOM     14  C   UNL     1       2.300   2.342   1.312  0.00  0.00    +0.073 A 
ATOM     15  O   UNL     1       2.775   4.665   1.257  0.00  0.00    -0.485 OA
ATOM     16  C   UNL     1       2.531   5.932   1.879  0.00  0.00    +0.270 C 
ATOM     17  C   UNL     1       3.035   5.861   3.326  0.00  0.00    +0.270 C 
ATOM     18  O   UNL     1       2.322   4.817   3.999  0.00  0.00    -0.485 OA
ENDBRANCH   7   9
BRANCH   3  19
ATOM     19  C   UNL     1       0.903  -2.099  -1.257  0.00  0.00    -0.024 A 
ATOM     20  C   UNL     1       1.504  -1.183  -2.102  0.00  0.00    +0.005 A 
ATOM     21  C   UNL     1       0.877  -0.810  -3.276  0.00  0.00    +0.003 A 
ATOM     22  C   UNL     1      -0.351  -1.352  -3.607  0.00  0.00    +0.038 A 
ATOM     23  C   UNL     1      -0.953  -2.269  -2.762  0.00  0.00    +0.124 A 
ATOM     24  C   UNL     1      -0.321  -2.646  -1.589  0.00  0.00    +0.043 A 
ATOM     25  F   UNL     1      -2.153  -2.799  -3.084  0.00  0.00    -0.205 F 
ENDBRANCH   3  19
BRANCH   1  27
ATOM     26  C   UNL     1      -0.417   1.344   0.115  0.00  0.00    +0.012 C 
ATOM     27  C   UNL     1      -0.244  -0.174   0.043  0.00  0.00    +0.034 C 
ATOM     28  C   UNL     1      -1.619  -0.841  -0.027  0.00  0.00    +0.012 C 
ENDBRANCH   1  27
BRANCH   2  29
ATOM     29  C   UNL     1       1.319  -2.678   2.486  0.00  0.00    +0.317 C 
ATOM     30  O   UNL     1       1.599  -1.899   3.366  0.00  0.00    -0.250 OA
BRANCH  29  31
ATOM     31  O   UNL     1       1.575  -3.987   2.642  0.00  0.00    -0.468 OA
ATOM     32  C   UNL     1       2.191  -4.393   3.893  0.00  0.00    +0.280 C 
ENDBRANCH  29  31
ENDBRANCH   2  29
BRANCH   1  33
ATOM     33  O   UNL     1      -0.259  -0.329   2.456  0.00  0.00    -0.370 OA
ATOM     34  H   UNL     1      -0.477   0.611   2.527  0.00  0.00    +0.212 HD
ENDBRANCH   1  33
TORSDOF 6
