REMARK  Name = ZINC43209903
REMARK  10 active torsions:
REMARK  status: ('A' for Active; 'I' for Inactive)
REMARK    1  A    between atoms: C_1  and  C_2
REMARK    2  A    between atoms: C_2  and  C_3
REMARK    3  A    between atoms: C_2  and  C_4
REMARK    4  A    between atoms: C_14  and  C_36
REMARK    5  A    between atoms: C_18  and  C_19
REMARK    6  A    between atoms: C_18  and  C_20
REMARK    7  A    between atoms: C_20  and  N_21
REMARK    8  A    between atoms: C_22  and  C_24
REMARK    9  A    between atoms: C_27  and  C_29
REMARK   10  A    between atoms: C_34  and  N_35
REMARK                            x       y       z     vdW  Elec       q    Type
REMARK                         _______ _______ _______ _____ _____    ______ ____
ROOT
ATOM      1  C   UNL     1      -0.396  -0.486   0.998  0.00  0.00    -0.045 A 
ATOM      2  C   UNL     1      -1.385  -0.162   1.907  0.00  0.00    +0.004 A 
ATOM      3  C   UNL     1      -2.676  -0.602   1.700  0.00  0.00    +0.005 A 
ATOM      4  C   UNL     1      -2.987  -1.370   0.586  0.00  0.00    -0.038 A 
ATOM      5  C   UNL     1      -2.002  -1.699  -0.317  0.00  0.00    -0.043 A 
ATOM      6  C   UNL     1      -0.705  -1.246  -0.111  0.00  0.00    +0.007 A 
ATOM      7  C   UNL     1      -2.260  -2.545  -1.537  0.00  0.00    +0.036 C 
ATOM      8  C   UNL     1      -3.756  -2.624  -1.836  0.00  0.00    +0.009 C 
ATOM      9  C   UNL     1      -4.483  -2.997  -0.543  0.00  0.00    +0.007 C 
ATOM     10  C   UNL     1      -4.422  -1.809   0.412  0.00  0.00    -0.003 C 
ATOM     11  C   UNL     1      -5.221  -0.635  -0.160  0.00  0.00    +0.011 C 
ATOM     12  C   UNL     1      -6.670  -1.060  -0.398  0.00  0.00    +0.001 C 
ATOM     13  C   UNL     1      -6.697  -2.211  -1.407  0.00  0.00    +0.008 C 
ATOM     14  C   UNL     1      -5.929  -3.382  -0.828  0.00  0.00    -0.013 C 
ATOM     15  C   UNL     1      -5.957  -4.528  -1.842  0.00  0.00    +0.013 C 
ATOM     16  C   UNL     1      -5.000  -2.214   1.770  0.00  0.00    +0.016 C 
ENDROOT
BRANCH   1  18
ATOM     17  C   UNL     1       1.033   1.525   1.256  0.00  0.00    +0.012 C 
ATOM     18  C   UNL     1       1.016  -0.005   1.215  0.00  0.00    +0.013 C 
ATOM     19  C   UNL     1       1.545  -0.556   2.540  0.00  0.00    +0.012 C 
ENDBRANCH   1  18
BRANCH  14  20
ATOM     20  C   UNL     1      -6.598  -3.840   0.470  0.00  0.00    +0.111 C 
BRANCH  20  21
ATOM     21  N   UNL     1      -7.934  -4.361   0.173  0.00  0.00    -0.309 N 
ATOM     22  C   UNL     1      -8.713  -4.824   1.170  0.00  0.00    +0.266 C 
ATOM     23  O   UNL     1      -8.307  -4.809   2.316  0.00  0.00    -0.268 OA
ATOM     24  H   UNL     1      -8.258  -4.373  -0.742  0.00  0.00    +0.149 HD
BRANCH  22  25
ATOM     25  C   UNL     1     -10.059  -5.349   0.871  0.00  0.00    +0.164 A 
ATOM     26  C   UNL     1     -10.952  -5.841   1.774  0.00  0.00    +0.230 A 
ATOM     27  O   UNL     1     -12.046  -6.209   1.087  0.00  0.00    -0.443 OA
ATOM     28  C   UNL     1     -11.832  -5.949  -0.215  0.00  0.00    +0.230 A 
ATOM     29  N   UNL     1     -10.639  -5.426  -0.355  0.00  0.00    -0.204 NA
BRANCH  28  30
ATOM     30  C   UNL     1     -12.789  -6.207  -1.310  0.00  0.00    +0.057 A 
ATOM     31  C   UNL     1     -12.969  -5.262  -2.321  0.00  0.00    +0.015 A 
ATOM     32  C   UNL     1     -13.864  -5.509  -3.342  0.00  0.00    +0.001 A 
ATOM     33  C   UNL     1     -14.585  -6.690  -3.368  0.00  0.00    +0.002 A 
ATOM     34  C   UNL     1     -14.418  -7.634  -2.374  0.00  0.00    +0.023 A 
ATOM     35  C   UNL     1     -13.517  -7.404  -1.343  0.00  0.00    +0.037 A 
BRANCH  35  36
ATOM     36  N   UNL     1     -13.342  -8.357  -0.342  0.00  0.00    -0.357 N 
ATOM     37  H   UNL     1     -12.662  -8.228   0.338  0.00  0.00    +0.142 HD
ATOM     38  H   UNL     1     -13.901  -9.150  -0.324  0.00  0.00    +0.142 HD
ENDBRANCH  35  36
ENDBRANCH  28  30
ENDBRANCH  22  25
ENDBRANCH  20  21
ENDBRANCH  14  20
TORSDOF 6
