REMARK  Name = ZINC63177729
REMARK  5 active torsions:
REMARK  status: ('A' for Active; 'I' for Inactive)
REMARK    1  A    between atoms: C_1  and  S_2
REMARK    2  A    between atoms: S_2  and  C_5
REMARK    3  A    between atoms: C_10  and  N_11
REMARK    4  A    between atoms: N_11  and  C_12
REMARK    5  A    between atoms: C_17  and  N_19
REMARK                            x       y       z     vdW  Elec       q    Type
REMARK                         _______ _______ _______ _____ _____    ______ ____
ROOT
ATOM      1  N   UNL     1      -0.944   0.531  -2.781  0.00  0.00    -0.341 N 
ATOM      2  H   UNL     1      -1.409   0.771  -1.964  0.00  0.00    +0.146 HD
ENDROOT
BRANCH   1   8
ATOM      3  C   UNL     1       0.845  -0.437  -1.483  0.00  0.00    +0.109 A 
ATOM      4  C   UNL     1       2.060  -1.092  -1.423  0.00  0.00    +0.029 A 
ATOM      5  C   UNL     1       2.723  -1.432  -2.588  0.00  0.00    +0.002 A 
ATOM      6  C   UNL     1       2.172  -1.118  -3.817  0.00  0.00    +0.002 A 
ATOM      7  C   UNL     1       0.958  -0.464  -3.885  0.00  0.00    +0.025 A 
ATOM      8  C   UNL     1       0.287  -0.126  -2.716  0.00  0.00    +0.052 A 
BRANCH   3  10
ATOM      9  C   UNL     1      -0.022   1.810   0.012  0.00  0.00    +0.200 C 
ATOM     10  S   UNL     1       0.002  -0.004   0.002  0.00  0.00    -0.004 S 
ATOM     11  O   UNL     1       0.835  -0.488   1.046  0.00  0.00    -0.170 OA
ATOM     12  O   UNL     1      -1.315  -0.510  -0.168  0.00  0.00    -0.170 OA
ENDBRANCH   3  10
ENDBRANCH   1   8
BRANCH   1  13
ATOM     13  C   UNL     1      -1.531   0.860  -4.082  0.00  0.00    +0.056 C 
ATOM     14  C   UNL     1      -1.049   2.249  -4.568  0.00  0.00    +0.020 C 
ATOM     15  C   UNL     1      -2.148   2.710  -5.548  0.00  0.00    +0.000 C 
ATOM     16  C   UNL     1      -3.429   1.950  -5.161  0.00  0.00    -0.014 C 
ATOM     17  C   UNL     1      -3.064   1.048  -3.961  0.00  0.00    -0.055 C 
BRANCH  17  18
ATOM     18  N   UNL     1      -3.751  -0.247  -4.057  0.00  0.00    +0.381 N 
ATOM     19  H   UNL     1      -3.435  -0.851  -3.314  0.00  0.00    -0.090 HD
ATOM     20  H   UNL     1      -4.747  -0.106  -3.976  0.00  0.00    -0.090 HD
ATOM     21  H   UNL     1      -3.542  -0.672  -4.948  0.00  0.00    -0.090 HD
ENDBRANCH  17  18
ENDBRANCH   1  13
TORSDOF 4
