REMARK  Name = ZINC39490344
REMARK  8 active torsions:
REMARK  status: ('A' for Active; 'I' for Inactive)
REMARK    1  A    between atoms: C_1  and  C_2
REMARK    2  A    between atoms: C_2  and  O_3
REMARK    3  A    between atoms: O_3  and  C_4
REMARK    4  A    between atoms: C_6  and  N_33
REMARK    5  A    between atoms: N_17  and  C_20
REMARK    6  A    between atoms: C_20  and  C_21
REMARK    7  A    between atoms: C_26  and  C_27
REMARK    8  A    between atoms: C_34  and  C_36
REMARK                            x       y       z     vdW  Elec       q    Type
REMARK                         _______ _______ _______ _____ _____    ______ ____
ROOT
ATOM      1  C   UNL     1      -1.876  -1.647  -0.074  0.00  0.00    +0.153 C 
ATOM      2  C   UNL     1      -2.111  -2.112   1.380  0.00  0.00    +0.133 C 
ATOM      3  C   UNL     1      -3.612  -2.262   1.510  0.00  0.00    -0.021 A 
ATOM      4  C   UNL     1      -4.411  -2.344   2.638  0.00  0.00    +0.006 A 
ATOM      5  C   UNL     1      -5.779  -2.483   2.513  0.00  0.00    +0.000 A 
ATOM      6  C   UNL     1      -6.355  -2.540   1.257  0.00  0.00    +0.000 A 
ATOM      7  C   UNL     1      -5.560  -2.458   0.131  0.00  0.00    +0.004 A 
ATOM      8  C   UNL     1      -4.188  -2.318   0.253  0.00  0.00    -0.034 A 
ATOM      9  C   UNL     1      -3.110  -2.206  -0.806  0.00  0.00    +0.021 C 
ATOM     10  C   UNL     1      -2.792  -3.579  -1.393  0.00  0.00    -0.005 C 
ATOM     11  C   UNL     1      -1.732  -3.428  -2.487  0.00  0.00    -0.078 C 
ATOM     12  N   UNL     1      -2.232  -2.531  -3.536  0.00  0.00    +0.380 N 
ATOM     13  C   UNL     1      -2.450  -1.188  -2.985  0.00  0.00    -0.078 C 
ATOM     14  C   UNL     1      -3.541  -1.246  -1.911  0.00  0.00    -0.005 C 
ATOM     15  H   UNL     1      -3.103  -2.891  -3.896  0.00  0.00    -0.082 HD
ENDROOT
BRANCH   2  16
ATOM     16  N   UNL     1      -1.447  -3.396   1.617  0.00  0.00    -0.299 N 
ATOM     17  C   UNL     1      -1.083  -3.745   2.867  0.00  0.00    +0.280 C 
ATOM     18  O   UNL     1      -1.305  -2.993   3.798  0.00  0.00    -0.267 OA
ATOM     19  H   UNL     1      -1.270  -3.994   0.875  0.00  0.00    +0.150 HD
BRANCH  17  20
ATOM     20  C   UNL     1      -0.418  -5.030   3.105  0.00  0.00    +0.189 A 
ATOM     21  C   UNL     1      -0.003  -5.507   4.315  0.00  0.00    +0.054 A 
ATOM     22  C   UNL     1       0.575  -6.764   4.077  0.00  0.00    +0.042 A 
ATOM     23  C   UNL     1       0.489  -6.996   2.748  0.00  0.00    +0.196 A 
ATOM     24  O   UNL     1      -0.114  -5.951   2.167  0.00  0.00    -0.458 OA
ENDBRANCH  17  20
ENDBRANCH   2  16
BRANCH   1  25
ATOM     25  O   UNL     1      -1.841  -0.221  -0.153  0.00  0.00    -0.374 OA
BRANCH  25  27
ATOM     26  C   UNL     1      -0.608   1.858  -0.171  0.00  0.00    +0.034 C 
ATOM     27  C   UNL     1      -0.525   0.333  -0.077  0.00  0.00    +0.157 C 
ENDBRANCH  25  27
ENDBRANCH   1  25
BRANCH  12  28
ATOM     28  C   UNL     1      -1.249  -2.458  -4.625  0.00  0.00    -0.063 C 
BRANCH  28  29
ATOM     29  C   UNL     1      -1.146  -3.821  -5.311  0.00  0.00    +0.066 C 
ATOM     30  C   UNL     1      -2.425  -4.141  -6.060  0.00  0.00    +0.115 C 
ATOM     31  N   UNL     1      -2.094  -4.252  -7.305  0.00  0.00    -0.161 NA
ATOM     32  N   UNL     1      -0.734  -4.049  -7.515  0.00  0.00    -0.153 NA
ATOM     33  C   UNL     1      -0.094  -3.792  -6.403  0.00  0.00    +0.077 C 
BRANCH  33  34
ATOM     34  C   UNL     1       1.344  -3.526  -6.243  0.00  0.00    -0.001 A 
ATOM     35  C   UNL     1       1.875  -3.270  -4.974  0.00  0.00    +0.010 A 
ATOM     36  C   UNL     1       3.224  -3.022  -4.833  0.00  0.00    +0.001 A 
ATOM     37  C   UNL     1       4.052  -3.026  -5.941  0.00  0.00    +0.000 A 
ATOM     38  C   UNL     1       3.535  -3.278  -7.200  0.00  0.00    +0.001 A 
ATOM     39  C   UNL     1       2.189  -3.534  -7.357  0.00  0.00    +0.010 A 
ENDBRANCH  33  34
ENDBRANCH  28  29
ENDBRANCH  12  28
TORSDOF 7
