REMARK  Name = ZINC20928154
REMARK  7 active torsions:
REMARK  status: ('A' for Active; 'I' for Inactive)
REMARK    1  A    between atoms: C_1  and  C_2
REMARK    2  A    between atoms: C_7  and  N_8
REMARK    3  A    between atoms: N_12  and  S_27
REMARK    4  A    between atoms: C_14  and  C_15
REMARK    5  A    between atoms: C_14  and  C_16
REMARK    6  A    between atoms: N_18  and  C_19
REMARK    7  A    between atoms: S_27  and  C_30
REMARK                            x       y       z     vdW  Elec       q    Type
REMARK                         _______ _______ _______ _____ _____    ______ ____
ROOT
ATOM      1  N   UNL     1       3.031   1.511   0.138  0.00  0.00    -0.254 N 
ATOM      2  C   UNL     1       2.752   1.651  -1.159  0.00  0.00    +0.236 C 
ATOM      3  O   UNL     1       1.744   1.134  -1.593  0.00  0.00    -0.274 OA
ATOM      4  C   UNL     1       3.630   2.421  -2.108  0.00  0.00    +0.205 C 
ATOM      5  N   UNL     1       4.603   3.201  -1.330  0.00  0.00    -0.170 NA
ATOM      6  C   UNL     1       5.244   2.532  -0.185  0.00  0.00    +0.145 C 
ATOM      7  C   UNL     1       4.148   2.152   0.817  0.00  0.00    +0.129 C 
ATOM      8  C   UNL     1       4.729   1.187   1.852  0.00  0.00    +0.043 C 
ENDROOT
BRANCH   1  15
ATOM      9  C   UNL     1       0.495   2.548   0.905  0.00  0.00    +0.046 C 
ATOM     10  C   UNL     1       0.940   1.163   1.297  0.00  0.00    -0.026 A 
ATOM     11  C   UNL     1       0.109   0.357   2.050  0.00  0.00    +0.043 A 
ATOM     12  C   UNL     1       0.518  -0.916   2.410  0.00  0.00    +0.124 A 
ATOM     13  C   UNL     1       1.760  -1.384   2.016  0.00  0.00    +0.040 A 
ATOM     14  C   UNL     1       2.594  -0.581   1.263  0.00  0.00    +0.026 A 
ATOM     15  C   UNL     1       2.186   0.696   0.901  0.00  0.00    +0.041 A 
ATOM     16  F   UNL     1      -0.297  -1.703   3.147  0.00  0.00    -0.205 F 
ENDBRANCH   1  15
BRANCH   7  17
ATOM     17  C   UNL     1       3.658   3.393   1.517  0.00  0.00    +0.238 C 
ATOM     18  O   UNL     1       2.659   3.957   1.123  0.00  0.00    -0.273 OA
ATOM     19  N   UNL     1       4.329   3.877   2.581  0.00  0.00    -0.311 N 
ATOM     20  H   UNL     1       5.190   3.324   2.986  0.00  0.00    +0.149 HD
BRANCH  19  21
ATOM     21  C   UNL     1       3.913   5.138   3.198  0.00  0.00    +0.073 C 
ATOM     22  C   UNL     1       4.826   6.268   2.717  0.00  0.00    +0.022 C 
ATOM     23  C   UNL     1       4.175   7.617   3.027  0.00  0.00    +0.002 C 
ATOM     24  C   UNL     1       2.692   7.565   2.656  0.00  0.00    +0.000 C 
ATOM     25  C   UNL     1       1.845   7.659   3.927  0.00  0.00    +0.000 C 
ATOM     26  C   UNL     1       1.875   6.316   4.659  0.00  0.00    +0.000 C 
ATOM     27  C   UNL     1       3.218   6.153   5.373  0.00  0.00    +0.002 C 
ATOM     28  C   UNL     1       4.009   5.018   4.720  0.00  0.00    +0.022 C 
ENDBRANCH  19  21
ENDBRANCH   7  17
BRANCH   5  29
ATOM     29  S   UNL     1       4.965   4.768  -1.725  0.00  0.00    +0.029 S 
ATOM     30  O   UNL     1       6.227   5.012  -1.121  0.00  0.00    -0.158 OA
ATOM     31  O   UNL     1       4.814   4.830  -3.137  0.00  0.00    -0.158 OA
ATOM     32  C   UNL     1       3.681   5.761  -0.915  0.00  0.00    +0.215 C 
ENDBRANCH   5  29
TORSDOF 4
