REMARK  Name = ZINC13693068
REMARK  6 active torsions:
REMARK  status: ('A' for Active; 'I' for Inactive)
REMARK    1  A    between atoms: C_1  and  C_2
REMARK    2  A    between atoms: C_2  and  C_3
REMARK    3  A    between atoms: C_6  and  N_9
REMARK    4  A    between atoms: C_14  and  C_17
REMARK    5  A    between atoms: C_17  and  C_18
REMARK    6  A    between atoms: N_20  and  C_21
REMARK                            x       y       z     vdW  Elec       q    Type
REMARK                         _______ _______ _______ _____ _____    ______ ____
ROOT
ATOM      1  N   UNL     1       3.446   1.007  -0.026  0.00  0.00    -0.289 N 
ATOM      2  C   UNL     1       2.095   0.885   0.119  0.00  0.00    +0.177 C 
ATOM      3  N   UNL     1       1.280   1.906   0.274  0.00  0.00    -0.150 NA
ATOM      4  C   UNL     1       0.009   1.530   0.393  0.00  0.00    +0.260 C 
ATOM      5  O   UNL     1      -0.956   2.252   0.543  0.00  0.00    -0.272 OA
ATOM      6  C   UNL     1       0.011   0.017   0.299  0.00  0.00    +0.169 C 
ATOM      7  N   UNL     1       1.438  -0.308   0.118  0.00  0.00    -0.307 N 
ATOM      8  H   UNL     1       4.004   0.215  -0.057  0.00  0.00    +0.155 HD
ATOM      9  H   UNL     1       1.829  -1.190   0.019  0.00  0.00    +0.149 HD
ENDROOT
BRANCH   1  13
ATOM     10  C   UNL     1       5.174   4.785  -0.338  0.00  0.00    -0.048 A 
ATOM     11  C   UNL     1       5.877   3.752   0.254  0.00  0.00    +0.005 A 
ATOM     12  C   UNL     1       5.307   2.498   0.359  0.00  0.00    +0.023 A 
ATOM     13  C   UNL     1       4.026   2.276  -0.130  0.00  0.00    +0.033 A 
ATOM     14  C   UNL     1       3.325   3.315  -0.729  0.00  0.00    +0.023 A 
ATOM     15  C   UNL     1       3.898   4.567  -0.825  0.00  0.00    +0.005 A 
BRANCH  10  17
ATOM     16  C   UNL     1       6.563   6.255  -1.772  0.00  0.00    +0.009 C 
ATOM     17  C   UNL     1       5.799   6.152  -0.450  0.00  0.00    +0.032 C 
ENDBRANCH  10  17
ENDBRANCH   1  13
BRANCH   6  18
ATOM     18  C   UNL     1      -0.529  -0.606   1.588  0.00  0.00    +0.127 C 
BRANCH  18  19
ATOM     19  C   UNL     1      -0.597  -2.103   1.432  0.00  0.00    +0.215 C 
ATOM     20  O   UNL     1      -0.248  -2.622   0.393  0.00  0.00    -0.276 OA
ATOM     21  N   UNL     1      -1.046  -2.866   2.448  0.00  0.00    -0.312 N 
ATOM     22  H   UNL     1      -1.325  -2.452   3.280  0.00  0.00    +0.149 HD
BRANCH  21  23
ATOM     23  C   UNL     1      -1.112  -4.322   2.297  0.00  0.00    +0.073 C 
ATOM     24  C   UNL     1      -2.430  -4.705   1.621  0.00  0.00    +0.022 C 
ATOM     25  C   UNL     1      -2.499  -6.226   1.463  0.00  0.00    +0.002 C 
ATOM     26  C   UNL     1      -2.423  -6.885   2.842  0.00  0.00    +0.000 C 
ATOM     27  C   UNL     1      -1.105  -6.502   3.518  0.00  0.00    +0.002 C 
ATOM     28  C   UNL     1      -1.036  -4.982   3.676  0.00  0.00    +0.022 C 
ENDBRANCH  21  23
ENDBRANCH  18  19
ENDBRANCH   6  18
TORSDOF 5
