REMARK  Name = ZINC63707983
REMARK  7 active torsions:
REMARK  status: ('A' for Active; 'I' for Inactive)
REMARK    1  A    between atoms: C_1  and  C_2
REMARK    2  A    between atoms: C_5  and  C_39
REMARK    3  A    between atoms: C_10  and  C_12
REMARK    4  A    between atoms: C_12  and  S_13
REMARK    5  A    between atoms: S_13  and  C_14
REMARK    6  A    between atoms: C_24  and  C_29
REMARK    7  A    between atoms: C_29  and  C_30
REMARK                            x       y       z     vdW  Elec       q    Type
REMARK                         _______ _______ _______ _____ _____    ______ ____
ROOT
ATOM      1  C   UNL     1       1.947   2.159   5.924  0.00  0.00    +0.169 C 
ATOM      2  N   UNL     1       0.714   1.732   5.875  0.00  0.00    -0.225 NA
ATOM      3  C   UNL     1      -0.164   1.943   6.888  0.00  0.00    +0.077 A 
ATOM      4  C   UNL     1      -1.479   1.477   6.816  0.00  0.00    +0.028 A 
ATOM      5  C   UNL     1      -2.343   1.709   7.864  0.00  0.00    +0.002 A 
ATOM      6  C   UNL     1      -1.924   2.401   8.991  0.00  0.00    +0.001 A 
ATOM      7  C   UNL     1      -0.629   2.869   9.083  0.00  0.00    +0.013 A 
ATOM      8  C   UNL     1       0.257   2.644   8.036  0.00  0.00    +0.041 A 
ATOM      9  C   UNL     1       1.654   3.128   8.089  0.00  0.00    +0.139 C 
ATOM     10  N   UNL     1       2.284   3.790   9.019  0.00  0.00    -0.255 NA
ATOM     11  C   UNL     1       3.661   4.014   8.558  0.00  0.00    +0.198 C 
ATOM     12  C   UNL     1       3.702   3.358   7.194  0.00  0.00    +0.252 C 
ATOM     13  O   UNL     1       4.647   3.296   6.438  0.00  0.00    -0.272 OA
ATOM     14  N   UNL     1       2.463   2.850   7.000  0.00  0.00    -0.200 N 
ENDROOT
BRANCH   1  15
ATOM     15  S   UNL     1       3.003   1.831   4.553  0.00  0.00    -0.080 S 
BRANCH  15  16
ATOM     16  C   UNL     1       1.946   0.923   3.391  0.00  0.00    +0.173 C 
BRANCH  16  24
ATOM     17  C   UNL     1      -0.019   1.526   0.010  0.00  0.00    +0.009 C 
ATOM     18  C   UNL     1       0.002  -0.004   0.002  0.00  0.00    +0.004 C 
ATOM     19  C   UNL     1       0.720  -0.498  -1.256  0.00  0.00    +0.009 C 
ATOM     20  C   UNL     1       2.145   0.059  -1.285  0.00  0.00    +0.004 C 
ATOM     21  C   UNL     1       2.912  -0.448  -0.060  0.00  0.00    +0.111 C 
ATOM     22  N   UNL     1       2.153  -0.103   1.150  0.00  0.00    -0.300 N 
ATOM     23  C   UNL     1       0.744  -0.512   1.242  0.00  0.00    +0.111 C 
ATOM     24  C   UNL     1       2.738   0.577   2.157  0.00  0.00    +0.226 C 
ATOM     25  O   UNL     1       3.901   0.908   2.069  0.00  0.00    -0.275 OA
ATOM     26  C   UNL     1       2.850  -0.408  -2.559  0.00  0.00    +0.009 C 
ENDBRANCH  16  24
ENDBRANCH  15  16
ENDBRANCH   1  15
BRANCH  11  27
ATOM     27  C   UNL     1       3.951   5.512   8.445  0.00  0.00    +0.069 C 
BRANCH  27  28
ATOM     28  C   UNL     1       3.931   6.133   9.818  0.00  0.00    -0.039 C 
ATOM     29  C   UNL     1       4.993   6.360  10.623  0.00  0.00    -0.001 A 
ATOM     30  C   UNL     1       6.431   6.106  10.469  0.00  0.00    +0.010 A 
ATOM     31  C   UNL     1       7.269   6.451  11.473  0.00  0.00    +0.001 A 
ATOM     32  C   UNL     1       6.801   7.043  12.654  0.00  0.00    +0.002 A 
ATOM     33  C   UNL     1       5.495   7.307  12.869  0.00  0.00    +0.026 A 
ATOM     34  C   UNL     1       4.524   6.987  11.880  0.00  0.00    +0.043 A 
ATOM     35  N   UNL     1       3.223   7.140  11.852  0.00  0.00    -0.380 N 
ATOM     36  C   UNL     1       2.719   6.634  10.571  0.00  0.00    +0.144 C 
ATOM     37  H   UNL     1       2.683   7.528  12.559  0.00  0.00    +0.160 HD
ENDBRANCH  27  28
ENDBRANCH  11  27
TORSDOF 5
