REMARK  Name = ZINC16214220
REMARK  9 active torsions:
REMARK  status: ('A' for Active; 'I' for Inactive)
REMARK    1  A    between atoms: C_1  and  C_2
REMARK    2  A    between atoms: C_6  and  N_9
REMARK    3  A    between atoms: C_7  and  C_8
REMARK    4  A    between atoms: C_13  and  C_15
REMARK    5  A    between atoms: C_15  and  S_16
REMARK    6  A    between atoms: S_16  and  C_17
REMARK    7  A    between atoms: C_20  and  C_28
REMARK    8  A    between atoms: N_21  and  C_22
REMARK    9  A    between atoms: C_28  and  C_29
REMARK                            x       y       z     vdW  Elec       q    Type
REMARK                         _______ _______ _______ _____ _____    ______ ____
ROOT
ATOM      1  S   UNL     1      -1.611   5.045  -4.735  0.00  0.00    -0.077 S 
ENDROOT
BRANCH   1   2
ATOM      2  C   UNL     1      -1.821   3.991  -3.339  0.00  0.00    +0.192 A 
ATOM      3  N   UNL     1      -2.617   2.949  -3.260  0.00  0.00    -0.122 NA
ATOM      4  N   UNL     1      -2.519   2.412  -2.097  0.00  0.00    -0.133 NA
ATOM      5  C   UNL     1      -1.663   3.073  -1.370  0.00  0.00    +0.139 A 
ATOM      6  N   UNL     1      -1.192   4.105  -2.133  0.00  0.00    -0.303 N 
BRANCH   6   7
ATOM      7  C   UNL     1      -0.212   5.121  -1.740  0.00  0.00    +0.091 C 
ATOM      8  C   UNL     1      -0.849   6.509  -1.838  0.00  0.00    +0.025 C 
ATOM      9  C   UNL     1       0.174   7.569  -1.427  0.00  0.00    +0.002 C 
ATOM     10  C   UNL     1       1.386   7.497  -2.358  0.00  0.00    +0.000 C 
ATOM     11  C   UNL     1       2.023   6.109  -2.260  0.00  0.00    +0.002 C 
ATOM     12  C   UNL     1       1.000   5.048  -2.671  0.00  0.00    +0.025 C 
ENDBRANCH   6   7
BRANCH   5  13
ATOM     13  C   UNL     1      -1.270   2.761   0.051  0.00  0.00    +0.118 C 
BRANCH  13  14
ATOM     14  C   UNL     1      -0.091   1.822   0.052  0.00  0.00    -0.003 A 
ATOM     15  C   UNL     1       1.232   2.113   0.046  0.00  0.00    +0.011 A 
ATOM     16  C   UNL     1       2.147   1.076   0.043  0.00  0.00    +0.008 A 
ATOM     17  C   UNL     1       1.692  -0.201   0.045  0.00  0.00    +0.045 A 
ATOM     18  S   UNL     1      -0.077   0.036   0.053  0.00  0.00    -0.101 S 
ENDBRANCH  13  14
ENDBRANCH   5  13
ENDBRANCH   1   2
BRANCH   1  19
ATOM     19  C   UNL     1      -2.759   4.263  -5.895  0.00  0.00    +0.173 C 
BRANCH  19  24
ATOM     20  N   UNL     1      -4.302   4.885 -10.406  0.00  0.00    -0.269 N 
ATOM     21  C   UNL     1      -3.519   5.289  -9.386  0.00  0.00    +0.310 C 
ATOM     22  O   UNL     1      -2.803   6.262  -9.518  0.00  0.00    -0.252 OA
ATOM     23  N   UNL     1      -3.530   4.614  -8.219  0.00  0.00    -0.239 N 
ATOM     24  C   UNL     1      -2.747   5.018  -7.200  0.00  0.00    +0.231 C 
ATOM     25  O   UNL     1      -2.033   5.989  -7.332  0.00  0.00    -0.274 OA
ATOM     26  H   UNL     1      -4.812   4.063 -10.330  0.00  0.00    +0.156 HD
ATOM     27  H   UNL     1      -4.102   3.837  -8.114  0.00  0.00    +0.159 HD
BRANCH  20  33
ATOM     28  C   UNL     1      -5.183   5.160 -15.235  0.00  0.00    +0.044 C 
ATOM     29  C   UNL     1      -4.805   5.810 -13.929  0.00  0.00    -0.046 A 
ATOM     30  C   UNL     1      -4.535   7.166 -13.884  0.00  0.00    +0.004 A 
ATOM     31  C   UNL     1      -4.188   7.766 -12.688  0.00  0.00    +0.002 A 
ATOM     32  C   UNL     1      -4.110   7.012 -11.533  0.00  0.00    +0.023 A 
ATOM     33  C   UNL     1      -4.380   5.651 -11.574  0.00  0.00    +0.038 A 
ATOM     34  C   UNL     1      -4.723   5.050 -12.778  0.00  0.00    -0.026 A 
ATOM     35  C   UNL     1      -5.012   3.572 -12.829  0.00  0.00    +0.046 C 
ENDBRANCH  20  33
ENDBRANCH  19  24
ENDBRANCH   1  19
TORSDOF 7
