REMARK  Name = ZINC14472510
REMARK  7 active torsions:
REMARK  status: ('A' for Active; 'I' for Inactive)
REMARK    1  A    between atoms: C_1  and  O_2
REMARK    2  A    between atoms: O_2  and  C_3
REMARK    3  A    between atoms: C_6  and  N_9
REMARK    4  A    between atoms: N_9  and  S_10
REMARK    5  A    between atoms: S_10  and  C_13
REMARK    6  A    between atoms: C_26  and  C_29
REMARK    7  A    between atoms: C_31  and  N_36
REMARK                            x       y       z     vdW  Elec       q    Type
REMARK                         _______ _______ _______ _____ _____    ______ ____
ROOT
ATOM      1  C   UNL     1      -0.209   0.872   0.377  0.00  0.00    +0.109 A 
ATOM      2  C   UNL     1       0.355   2.134   0.415  0.00  0.00    +0.030 A 
ATOM      3  C   UNL     1       1.729   2.269   0.436  0.00  0.00    +0.025 A 
ATOM      4  C   UNL     1       2.539   1.140   0.422  0.00  0.00    +0.031 A 
ATOM      5  C   UNL     1       1.978  -0.128   0.384  0.00  0.00    -0.018 A 
ATOM      6  C   UNL     1       0.595  -0.250   0.362  0.00  0.00    +0.034 A 
ATOM      7  C   UNL     1       2.809  -1.371   0.366  0.00  0.00    +0.049 C 
ATOM      8  C   UNL     1       2.799  -2.060   1.710  0.00  0.00    -0.023 C 
ATOM      9  C   UNL     1       3.972  -2.590   1.957  0.00  0.00    -0.030 C 
ATOM     10  C   UNL     1       4.925  -2.329   0.806  0.00  0.00    +0.033 C 
ATOM     11  C   UNL     1       4.303  -1.091   0.113  0.00  0.00    +0.029 C 
ATOM     12  C   UNL     1       4.743   0.147   0.900  0.00  0.00    +0.106 C 
ATOM     13  N   UNL     1       3.928   1.292   0.479  0.00  0.00    -0.336 N 
ATOM     14  H   UNL     1       4.343   2.134   0.236  0.00  0.00    +0.147 HD
ENDROOT
BRANCH  12  15
ATOM     15  C   UNL     1       4.547  -0.096   2.374  0.00  0.00    -0.007 A 
ATOM     16  C   UNL     1       3.315   0.136   2.956  0.00  0.00    +0.039 A 
ATOM     17  C   UNL     1       3.134  -0.092   4.307  0.00  0.00    +0.127 A 
ATOM     18  C   UNL     1       4.189  -0.542   5.080  0.00  0.00    +0.034 A 
ATOM     19  C   UNL     1       5.422  -0.770   4.500  0.00  0.00    +0.022 A 
ATOM     20  C   UNL     1       5.603  -0.547   3.147  0.00  0.00    +0.046 A 
ATOM     21 CL   UNL     1       7.152  -0.832   2.418  0.00  0.00    -0.083 Cl
BRANCH  17  22
ATOM     22  N   UNL     1       1.813   0.152   4.928  0.00  0.00    +0.056 N 
ATOM     23  O   UNL     1       1.655  -0.044   6.120  0.00  0.00    -0.126 OA
ATOM     24  O   UNL     1       0.884   0.549   4.247  0.00  0.00    -0.126 OA
ENDBRANCH  17  22
ENDBRANCH  12  15
BRANCH   1  25
ATOM     25  S   UNL     1      -1.962   0.695   0.348  0.00  0.00    +0.072 S 
ATOM     26  O   UNL     1      -2.242  -0.640   0.745  0.00  0.00    -0.150 OA
ATOM     27  O   UNL     1      -2.495   1.821   1.032  0.00  0.00    -0.150 OA
BRANCH  25  28
ATOM     28  N   UNL     1      -2.441   0.830  -1.231  0.00  0.00    -0.216 N 
ATOM     29  H   UNL     1      -3.016   1.562  -1.503  0.00  0.00    +0.174 HD
BRANCH  28  33
ATOM     30  C   UNL     1      -1.178  -1.979  -4.040  0.00  0.00    +0.120 A 
ATOM     31  C   UNL     1      -2.151  -2.317  -3.111  0.00  0.00    +0.047 A 
ATOM     32  C   UNL     1      -2.570  -1.387  -2.180  0.00  0.00    +0.028 A 
ATOM     33  C   UNL     1      -2.017  -0.114  -2.174  0.00  0.00    +0.048 A 
ATOM     34  C   UNL     1      -1.047   0.226  -3.108  0.00  0.00    +0.028 A 
ATOM     35  C   UNL     1      -0.625  -0.707  -4.035  0.00  0.00    +0.047 A 
BRANCH  30  37
ATOM     36  C   UNL     1       0.239  -2.479  -5.884  0.00  0.00    +0.277 C 
ATOM     37  O   UNL     1      -0.766  -2.896  -4.957  0.00  0.00    -0.495 OA
ENDBRANCH  30  37
ENDBRANCH  28  33
ENDBRANCH  25  28
ENDBRANCH   1  25
TORSDOF 6
