REMARK  Name = ZINC12003869
REMARK  10 active torsions:
REMARK  status: ('A' for Active; 'I' for Inactive)
REMARK    1  A    between atoms: C_1  and  C_2
REMARK    2  A    between atoms: C_3  and  C_9
REMARK    3  A    between atoms: C_4  and  C_8
REMARK    4  A    between atoms: N_5  and  C_7
REMARK    5  A    between atoms: C_9  and  N_10
REMARK    6  A    between atoms: C_11  and  C_13
REMARK    7  A    between atoms: N_15  and  C_31
REMARK    8  A    between atoms: C_17  and  C_20
REMARK    9  A    between atoms: N_22  and  C_23
REMARK   10  A    between atoms: C_31  and  C_32
REMARK                            x       y       z     vdW  Elec       q    Type
REMARK                         _______ _______ _______ _____ _____    ______ ____
ROOT
ATOM      1  C   UNL     1       7.917   0.483   1.581  0.00  0.00    +0.100 A 
ATOM      2  C   UNL     1       8.479   1.482   0.817  0.00  0.00    +0.102 A 
ATOM      3  N   UNL     1       7.753   2.174  -0.076  0.00  0.00    -0.349 N 
ATOM      4  C   UNL     1       6.446   1.953  -0.295  0.00  0.00    +0.102 A 
ATOM      5  C   UNL     1       5.756   0.984   0.399  0.00  0.00    +0.100 A 
ATOM      6  C   UNL     1       6.486   0.188   1.401  0.00  0.00    +0.206 A 
ATOM      7  O   UNL     1       5.929  -0.681   2.051  0.00  0.00    -0.286 OA
ENDROOT
BRANCH   1   9
ATOM      8  N   UNL     1      10.033   0.021   2.712  0.00  0.00    -0.307 N 
ATOM      9  C   UNL     1       8.726  -0.267   2.557  0.00  0.00    +0.249 C 
ATOM     10  O   UNL     1       8.213  -1.146   3.223  0.00  0.00    -0.270 OA
ATOM     11  H   UNL     1      10.442   0.722   2.180  0.00  0.00    +0.149 HD
BRANCH   8  12
ATOM     12  C   UNL     1      10.837  -0.726   3.683  0.00  0.00    +0.143 C 
BRANCH  12  15
ATOM     13  C   UNL     1      11.997   1.623   5.466  0.00  0.00    +0.068 C 
ATOM     14  C   UNL     1      12.767   0.823   4.447  0.00  0.00    +0.065 A 
ATOM     15  C   UNL     1      12.254  -0.213   3.661  0.00  0.00    +0.013 A 
ATOM     16  C   UNL     1      13.257  -0.679   2.881  0.00  0.00    +0.041 A 
ATOM     17  N   UNL     1      14.363   0.043   3.157  0.00  0.00    -0.271 N 
ATOM     18  N   UNL     1      14.031   0.978   4.146  0.00  0.00    -0.176 NA
ATOM     19  C   UNL     1      15.679  -0.124   2.537  0.00  0.00    +0.172 C 
ATOM     20  C   UNL     1      13.156  -1.801   1.879  0.00  0.00    +0.065 C 
ENDBRANCH  12  15
ENDBRANCH   8  12
ENDBRANCH   1   9
BRANCH   5  21
ATOM     21  C   UNL     1       4.323   0.753   0.150  0.00  0.00    +0.249 C 
ATOM     22  O   UNL     1       3.728  -0.107   0.771  0.00  0.00    -0.270 OA
ATOM     23  N   UNL     1       3.670   1.494  -0.767  0.00  0.00    -0.308 N 
ATOM     24  H   UNL     1       4.144   2.180  -1.262  0.00  0.00    +0.149 HD
BRANCH  23  25
ATOM     25  C   UNL     1       2.245   1.265  -1.015  0.00  0.00    +0.073 C 
ATOM     26  C   UNL     1       1.416   2.056  -0.000  0.00  0.00    +0.022 C 
ATOM     27  C   UNL     1      -0.019   1.526   0.010  0.00  0.00    +0.002 C 
ATOM     28  C   UNL     1       0.002  -0.004   0.002  0.00  0.00    +0.000 C 
ATOM     29  C   UNL     1      -0.566  -0.515  -1.324  0.00  0.00    +0.000 C 
ATOM     30  C   UNL     1       0.478  -0.334  -2.428  0.00  0.00    +0.000 C 
ATOM     31  C   UNL     1       0.539   1.139  -2.836  0.00  0.00    +0.002 C 
ATOM     32  C   UNL     1       1.893   1.726  -2.431  0.00  0.00    +0.022 C 
ENDBRANCH  23  25
ENDBRANCH   5  21
BRANCH   3  33
ATOM     33  C   UNL     1       8.420   3.223  -0.852  0.00  0.00    +0.152 C 
BRANCH  33  34
ATOM     34  C   UNL     1       8.319   4.553  -0.103  0.00  0.00    +0.138 C 
ATOM     35  C   UNL     1       9.066   5.666  -0.880  0.00  0.00    +0.035 C 
ATOM     36  C   UNL     1       8.329   6.932  -0.363  0.00  0.00    +0.031 C 
ATOM     37  C   UNL     1       6.887   6.415  -0.168  0.00  0.00    +0.160 C 
ATOM     38  O   UNL     1       6.952   4.989  -0.044  0.00  0.00    -0.375 OA
ENDBRANCH  33  34
ENDBRANCH   3  33
TORSDOF 7
