REMARK  Name = ZINC15678215
REMARK  8 active torsions:
REMARK  status: ('A' for Active; 'I' for Inactive)
REMARK    1  A    between atoms: C_1  and  C_2
REMARK    2  A    between atoms: C_2  and  C_21
REMARK    3  A    between atoms: C_5  and  C_16
REMARK    4  A    between atoms: N_11  and  C_12
REMARK    5  A    between atoms: C_12  and  C_13
REMARK    6  A    between atoms: C_13  and  O_14
REMARK    7  A    between atoms: O_14  and  C_15
REMARK    8  A    between atoms: N_23  and  C_24
REMARK                            x       y       z     vdW  Elec       q    Type
REMARK                         _______ _______ _______ _____ _____    ______ ____
ROOT
ATOM      1  C   UNL     1      -4.807   3.936   2.490  0.00  0.00    +0.043 C 
ATOM      2  C   UNL     1      -5.120   3.584   1.034  0.00  0.00    +0.129 C 
ATOM      3  C   UNL     1      -3.854   3.040   0.374  0.00  0.00    +0.157 C 
ATOM      4  N   UNL     1      -2.928   4.147   0.122  0.00  0.00    -0.331 N 
ATOM      5  C   UNL     1      -1.573   4.156   0.063  0.00  0.00    +0.085 A 
ATOM      6  C   UNL     1      -1.160   5.448  -0.223  0.00  0.00    +0.032 A 
ATOM      7  C   UNL     1      -2.301   6.244  -0.343  0.00  0.00    +0.033 A 
ATOM      8  C   UNL     1      -3.384   5.439  -0.119  0.00  0.00    +0.105 A 
ATOM      9  C   UNL     1      -4.817   5.747  -0.096  0.00  0.00    +0.264 C 
ATOM     10  O   UNL     1      -5.248   6.823  -0.469  0.00  0.00    -0.268 OA
ATOM     11  N   UNL     1      -5.636   4.772   0.363  0.00  0.00    -0.278 N 
ENDROOT
BRANCH   5  12
ATOM     12  C   UNL     1      -0.695   2.997   0.273  0.00  0.00    +0.151 A 
ATOM     13  C   UNL     1       0.669   3.021   0.309  0.00  0.00    +0.051 A 
ATOM     14  C   UNL     1       1.091   1.698   0.531  0.00  0.00    +0.042 A 
ATOM     15  C   UNL     1      -0.019   0.937   0.619  0.00  0.00    +0.196 A 
ATOM     16  O   UNL     1      -1.095   1.723   0.458  0.00  0.00    -0.461 OA
ENDBRANCH   5  12
BRANCH   2  17
ATOM     17  C   UNL     1      -6.181   2.514   1.010  0.00  0.00    +0.238 C 
ATOM     18  O   UNL     1      -6.474   1.928   2.030  0.00  0.00    -0.273 OA
ATOM     19  N   UNL     1      -6.803   2.209  -0.146  0.00  0.00    -0.311 N 
ATOM     20  H   UNL     1      -6.517   2.623  -0.975  0.00  0.00    +0.149 HD
BRANCH  19  21
ATOM     21  C   UNL     1      -7.913   1.252  -0.150  0.00  0.00    +0.073 C 
ATOM     22  C   UNL     1      -7.359  -0.171  -0.242  0.00  0.00    +0.022 C 
ATOM     23  C   UNL     1      -8.450  -1.170   0.148  0.00  0.00    +0.002 C 
ATOM     24  C   UNL     1      -9.180  -0.667   1.395  0.00  0.00    +0.000 C 
ATOM     25  C   UNL     1     -10.622  -0.306   1.032  0.00  0.00    +0.000 C 
ATOM     26  C   UNL     1     -10.639   1.030   0.286  0.00  0.00    +0.000 C 
ATOM     27  C   UNL     1     -10.160   0.818  -1.151  0.00  0.00    +0.002 C 
ATOM     28  C   UNL     1      -8.819   1.526  -1.352  0.00  0.00    +0.022 C 
ENDBRANCH  19  21
ENDBRANCH   2  17
BRANCH  11  29
ATOM     29  C   UNL     1      -7.082   4.913   0.180  0.00  0.00    +0.137 C 
BRANCH  29  30
ATOM     30  C   UNL     1      -7.678   5.659   1.376  0.00  0.00    +0.178 C 
BRANCH  30  31
ATOM     31  O   UNL     1      -7.168   6.994   1.406  0.00  0.00    -0.381 OA
ATOM     32  C   UNL     1      -7.664   7.780   2.491  0.00  0.00    +0.194 C 
ENDBRANCH  30  31
ENDBRANCH  29  30
ENDBRANCH  11  29
TORSDOF 6
