REMARK  Name = ZINC05076400
REMARK  11 active torsions:
REMARK  status: ('A' for Active; 'I' for Inactive)
REMARK    1  A    between atoms: C_1  and  C_2
REMARK    2  A    between atoms: C_2  and  C_3
REMARK    3  A    between atoms: C_3  and  C_4
REMARK    4  A    between atoms: C_4  and  C_5
REMARK    5  A    between atoms: C_5  and  C_6
REMARK    6  A    between atoms: C_6  and  N_7
REMARK    7  A    between atoms: C_8  and  C_26
REMARK    8  A    between atoms: C_9  and  C_25
REMARK    9  A    between atoms: N_17  and  C_22
REMARK   10  A    between atoms: N_20  and  C_21
REMARK   11  A    between atoms: C_22  and  C_23
REMARK                            x       y       z     vdW  Elec       q    Type
REMARK                         _______ _______ _______ _____ _____    ______ ____
ROOT
ATOM      1  N   UNL     1      -6.051  -2.016  -3.705  0.00  0.00    -0.314 N 
ATOM      2  C   UNL     1      -6.189  -2.709  -2.517  0.00  0.00    +0.038 A 
ATOM      3  C   UNL     1      -5.374  -2.162  -1.620  0.00  0.00    +0.043 A 
ATOM      4  N   UNL     1      -4.704  -1.113  -2.224  0.00  0.00    -0.275 N 
ATOM      5  C   UNL     1      -5.124  -1.027  -3.508  0.00  0.00    +0.218 A 
ATOM      6  N   UNL     1      -4.496  -0.027  -4.109  0.00  0.00    -0.193 NA
ATOM      7  C   UNL     1      -3.661   0.562  -3.256  0.00  0.00    +0.170 A 
ATOM      8  C   UNL     1      -3.767  -0.107  -2.037  0.00  0.00    +0.157 A 
ATOM      9  C   UNL     1      -2.983   0.319  -0.952  0.00  0.00    +0.283 A 
ATOM     10  O   UNL     1      -3.058  -0.251   0.123  0.00  0.00    -0.265 OA
ATOM     11  N   UNL     1      -2.146   1.365  -1.112  0.00  0.00    -0.255 N 
ATOM     12  C   UNL     1      -2.054   2.007  -2.289  0.00  0.00    +0.334 A 
ATOM     13  O   UNL     1      -1.292   2.949  -2.393  0.00  0.00    -0.246 OA
ATOM     14  N   UNL     1      -2.782   1.630  -3.357  0.00  0.00    -0.279 N 
ATOM     15  C   UNL     1      -2.650   2.352  -4.625  0.00  0.00    +0.155 C 
ATOM     16  C   UNL     1      -5.207  -2.609  -0.191  0.00  0.00    +0.066 C 
ATOM     17  C   UNL     1      -7.106  -3.881  -2.279  0.00  0.00    +0.065 C 
ENDROOT
BRANCH   1  18
ATOM     18  C   UNL     1      -6.768  -2.291  -4.952  0.00  0.00    +0.125 C 
BRANCH  18  19
ATOM     19  C   UNL     1      -8.067  -1.484  -4.982  0.00  0.00    +0.022 C 
BRANCH  19  20
ATOM     20  C   UNL     1      -8.816  -1.771  -6.285  0.00  0.00    +0.002 C 
BRANCH  20  21
ATOM     21  C   UNL     1     -10.115  -0.963  -6.316  0.00  0.00    -0.000 C 
BRANCH  21  23
ATOM     22  C   UNL     1     -12.163  -0.443  -7.649  0.00  0.00    +0.004 C 
ATOM     23  C   UNL     1     -10.864  -1.250  -7.619  0.00  0.00    -0.003 C 
ENDBRANCH  21  23
ENDBRANCH  20  21
ENDBRANCH  19  20
ENDBRANCH  18  19
ENDBRANCH   1  18
BRANCH  11  24
ATOM     24  C   UNL     1      -1.328   1.812   0.018  0.00  0.00    +0.156 C 
BRANCH  24  25
ATOM     25  C   UNL     1      -0.013   1.076   0.008  0.00  0.00    -0.013 C 
ATOM     26  C   UNL     1       1.113   1.746   0.001  0.00  0.00    +0.005 C 
ENDBRANCH  24  25
ENDBRANCH  11  24
TORSDOF 7
