REMARK  Name = ZINC42191607
REMARK  4 active torsions:
REMARK  status: ('A' for Active; 'I' for Inactive)
REMARK    1  A    between atoms: C_8  and  O_23
REMARK    2  A    between atoms: C_10  and  N_12
REMARK    3  A    between atoms: N_12  and  S_13
REMARK    4  A    between atoms: S_13  and  N_16
REMARK                            x       y       z     vdW  Elec       q    Type
REMARK                         _______ _______ _______ _____ _____    ______ ____
ROOT
ATOM      1  N   UNL     1       4.111  -1.077   1.602  0.00  0.00    -0.170 NA
ATOM      2  H   UNL     1       3.851  -1.656   2.336  0.00  0.00    +0.150 HD
ENDROOT
BRANCH   1  11
ATOM      3  C   UNL     1      -0.793  -0.137   1.579  0.00  0.00    +0.000 A 
ATOM      4  C   UNL     1       0.071   0.943   1.577  0.00  0.00    +0.000 A 
ATOM      5  C   UNL     1       1.393   0.767   1.218  0.00  0.00    +0.005 A 
ATOM      6  C   UNL     1       1.857  -0.488   0.861  0.00  0.00    -0.023 A 
ATOM      7  C   UNL     1       0.994  -1.567   0.863  0.00  0.00    -0.040 A 
ATOM      8  C   UNL     1      -0.331  -1.389   1.223  0.00  0.00    +0.004 A 
ATOM      9  C   UNL     1       1.736  -2.817   0.438  0.00  0.00    +0.068 C 
ATOM     10  C   UNL     1       3.025  -2.309  -0.241  0.00  0.00    +0.142 C 
ATOM     11  C   UNL     1       3.238  -0.938   0.434  0.00  0.00    +0.136 C 
BRANCH  10  12
ATOM     12  O   UNL     1       4.120  -3.187   0.027  0.00  0.00    -0.390 OA
ATOM     13  H   UNL     1       3.994  -4.087  -0.305  0.00  0.00    +0.210 HD
ENDBRANCH  10  12
ENDBRANCH   1  11
BRANCH   1  14
ATOM     14  S   UNL     1       5.542  -0.245   1.671  0.00  0.00    +0.098 S 
ATOM     15  O   UNL     1       6.140  -0.568   2.919  0.00  0.00    -0.141 OA
ATOM     16  O   UNL     1       6.199  -0.466   0.431  0.00  0.00    -0.141 OA
BRANCH  14  17
ATOM     17  N   UNL     1       5.168   1.367   1.728  0.00  0.00    -0.167 NA
ATOM     18  C   UNL     1       5.166   2.122   0.495  0.00  0.00    +0.110 C 
ATOM     19  C   UNL     1       6.580   2.698   0.235  0.00  0.00    +0.017 C 
ATOM     20  C   UNL     1       6.872   3.781   1.186  0.00  0.00    +0.001 C 
ATOM     21  C   UNL     1       6.905   3.343   2.647  0.00  0.00    +0.001 C 
ATOM     22  C   UNL     1       5.504   3.359   3.206  0.00  0.00    +0.017 C 
ATOM     23  C   UNL     1       4.846   1.973   3.035  0.00  0.00    +0.110 C 
ENDBRANCH  14  17
ENDBRANCH   1  14
TORSDOF 4
