REMARK  Name = ZINC12296913
REMARK  7 active torsions:
REMARK  status: ('A' for Active; 'I' for Inactive)
REMARK    1  A    between atoms: C_1  and  O_2
REMARK    2  A    between atoms: O_2  and  C_3
REMARK    3  A    between atoms: C_9  and  C_13
REMARK    4  A    between atoms: C_13  and  C_14
REMARK    5  A    between atoms: C_14  and  N_15
REMARK    6  A    between atoms: C_16  and  C_18
REMARK    7  A    between atoms: C_18  and  N_19
REMARK                            x       y       z     vdW  Elec       q    Type
REMARK                         _______ _______ _______ _____ _____    ______ ____
ROOT
ATOM      1  C   UNL     1       8.976   1.285  -2.677  0.00  0.00    +0.201 C 
ENDROOT
BRANCH   1   2
ATOM      2  N   UNL     1       9.426   1.097  -4.059  0.00  0.00    -0.291 N 
ATOM      3  C   UNL     1      10.727   0.862  -4.317  0.00  0.00    +0.303 C 
ATOM      4  O   UNL     1      11.543   0.897  -3.416  0.00  0.00    -0.253 OA
ATOM      5  N   UNL     1      11.126   0.587  -5.575  0.00  0.00    -0.280 N 
ATOM      6  C   UNL     1      12.521   0.222  -5.862  0.00  0.00    +0.114 C 
ATOM      7  C   UNL     1      12.562  -1.219  -6.385  0.00  0.00    +0.056 C 
ATOM      8  C   UNL     1      11.471  -1.400  -7.409  0.00  0.00    -0.016 A 
ATOM      9  C   UNL     1      11.341  -2.443  -8.407  0.00  0.00    +0.005 A 
ATOM     10  C   UNL     1      12.133  -3.550  -8.729  0.00  0.00    +0.030 A 
ATOM     11  C   UNL     1      11.694  -4.348  -9.758  0.00  0.00    +0.042 A 
ATOM     12  C   UNL     1      10.525  -4.078 -10.452  0.00  0.00    +0.022 A 
ATOM     13  C   UNL     1       9.724  -2.990 -10.153  0.00  0.00    +0.027 A 
ATOM     14  C   UNL     1      10.144  -2.163  -9.114  0.00  0.00    +0.047 A 
ATOM     15  N   UNL     1       9.606  -1.031  -8.570  0.00  0.00    -0.356 N 
ATOM     16  H   UNL     1       8.783  -0.609  -8.860  0.00  0.00    +0.166 HD
ATOM     17  C   UNL     1      10.406  -0.582  -7.553  0.00  0.00    +0.038 A 
ATOM     18  C   UNL     1      10.173   0.638  -6.697  0.00  0.00    +0.162 C 
ATOM     19 CL   UNL     1      12.636  -5.736 -10.205  0.00  0.00    -0.084 Cl
ATOM     20  H   UNL     1       8.787   1.142  -4.787  0.00  0.00    +0.151 HD
ENDBRANCH   1   2
BRANCH   1  22
ATOM     21  N   UNL     1       6.851   1.732  -1.492  0.00  0.00    -0.314 N 
ATOM     22  C   UNL     1       7.489   1.531  -2.662  0.00  0.00    +0.230 C 
ATOM     23  O   UNL     1       6.867   1.548  -3.703  0.00  0.00    -0.274 OA
ATOM     24  H   UNL     1       7.349   1.719  -0.659  0.00  0.00    +0.149 HD
BRANCH  21  25
ATOM     25  C   UNL     1       5.406   1.971  -1.477  0.00  0.00    +0.109 C 
BRANCH  25  26
ATOM     26  C   UNL     1       4.936   2.167  -0.034  0.00  0.00    +0.056 C 
BRANCH  26  33
ATOM     27  C   UNL     1       1.204  -0.689  -0.023  0.00  0.00    +0.121 A 
ATOM     28  C   UNL     1      -0.002   0.006  -0.007  0.00  0.00    +0.047 A 
ATOM     29  C   UNL     1      -0.018   1.383   0.004  0.00  0.00    +0.030 A 
ATOM     30  C   UNL     1       1.178   2.092  -0.001  0.00  0.00    +0.047 A 
ATOM     31  C   UNL     1       2.398   1.393  -0.018  0.00  0.00    +0.006 A 
ATOM     32  C   UNL     1       2.402  -0.003  -0.028  0.00  0.00    +0.056 A 
ATOM     33  C   UNL     1       3.450   2.413  -0.019  0.00  0.00    -0.021 A 
ATOM     34  C   UNL     1       2.838   3.608  -0.005  0.00  0.00    +0.087 A 
ATOM     35  N   UNL     1       1.481   3.438   0.006  0.00  0.00    -0.360 N 
ATOM     36  H   UNL     1       0.829   4.156   0.018  0.00  0.00    +0.165 HD
BRANCH  27  38
ATOM     37  C   UNL     1      -0.072  -2.696  -0.027  0.00  0.00    +0.277 C 
ATOM     38  O   UNL     1       1.203  -2.049  -0.033  0.00  0.00    -0.495 OA
ENDBRANCH  27  38
ENDBRANCH  26  33
ENDBRANCH  25  26
ENDBRANCH  21  25
ENDBRANCH   1  22
TORSDOF 6
