REMARK  Name = ZINC08893547
REMARK  5 active torsions:
REMARK  status: ('A' for Active; 'I' for Inactive)
REMARK    1  A    between atoms: C_1  and  C_2
REMARK    2  A    between atoms: C_2  and  C_4
REMARK    3  A    between atoms: C_2  and  N_14
REMARK    4  A    between atoms: N_6  and  C_7
REMARK    5  A    between atoms: C_21  and  C_24
REMARK                            x       y       z     vdW  Elec       q    Type
REMARK                         _______ _______ _______ _____ _____    ______ ____
ROOT
ATOM      1  N   UNL     1       2.407   1.044  -0.033  0.00  0.00    -0.287 N 
ATOM      2  C   UNL     1       2.524   0.164  -1.060  0.00  0.00    +0.204 A 
ATOM      3  N   UNL     1       3.514  -0.686  -1.110  0.00  0.00    -0.230 NA
ATOM      4  C   UNL     1       4.441  -0.716  -0.156  0.00  0.00    +0.116 A 
ATOM      5  C   UNL     1       4.403   0.156   0.944  0.00  0.00    +0.080 A 
ATOM      6  C   UNL     1       3.308   1.077   0.967  0.00  0.00    +0.263 A 
ATOM      7  O   UNL     1       3.191   1.877   1.879  0.00  0.00    -0.267 OA
ATOM      8  C   UNL     1       5.492  -0.007   1.900  0.00  0.00    +0.004 A 
ATOM      9  C   UNL     1       6.430  -0.956   1.664  0.00  0.00    +0.056 A 
ATOM     10  S   UNL     1       5.896  -1.690   0.130  0.00  0.00    -0.076 S 
ENDROOT
BRANCH   8  11
ATOM     11  C   UNL     1       5.572   0.850   3.107  0.00  0.00    -0.016 A 
ATOM     12  C   UNL     1       5.471   2.236   2.988  0.00  0.00    +0.010 A 
ATOM     13  C   UNL     1       5.542   3.029   4.115  0.00  0.00    +0.020 A 
ATOM     14  C   UNL     1       5.722   2.451   5.361  0.00  0.00    +0.041 A 
ATOM     15  C   UNL     1       5.827   1.076   5.483  0.00  0.00    +0.020 A 
ATOM     16  C   UNL     1       5.753   0.274   4.363  0.00  0.00    +0.010 A 
ATOM     17 CL   UNL     1       5.816   3.455   6.774  0.00  0.00    -0.084 Cl
ENDBRANCH   8  11
BRANCH   1  19
ATOM     18  C   UNL     1       1.329   2.861  -1.265  0.00  0.00    +0.041 C 
ATOM     19  C   UNL     1       1.280   1.980  -0.015  0.00  0.00    +0.174 C 
BRANCH  19  20
ATOM     20  C   UNL     1      -0.014   1.209   0.005  0.00  0.00    +0.240 C 
ATOM     21  O   UNL     1       0.003  -0.004   0.005  0.00  0.00    -0.273 OA
ATOM     22  N   UNL     1      -1.191   1.867   0.018  0.00  0.00    -0.283 N 
ATOM     23  H   UNL     1      -1.205   2.833   0.099  0.00  0.00    +0.155 HD
BRANCH  22  24
ATOM     24  C   UNL     1      -2.392   1.155  -0.086  0.00  0.00    +0.052 A 
ATOM     25  C   UNL     1      -2.411  -0.091  -0.699  0.00  0.00    +0.025 A 
ATOM     26  C   UNL     1      -3.597  -0.793  -0.795  0.00  0.00    +0.002 A 
ATOM     27  C   UNL     1      -4.766  -0.252  -0.292  0.00  0.00    +0.002 A 
ATOM     28  C   UNL     1      -4.752   0.990   0.314  0.00  0.00    +0.022 A 
ATOM     29  C   UNL     1      -3.568   1.696   0.419  0.00  0.00    +0.062 A 
ATOM     30 CL   UNL     1      -3.550   3.257   1.179  0.00  0.00    -0.082 Cl
ENDBRANCH  22  24
ENDBRANCH  19  20
ENDBRANCH   1  19
TORSDOF 4
