REMARK  Name = ZINC66664397
REMARK  15 active torsions:
REMARK  status: ('A' for Active; 'I' for Inactive)
REMARK    1  A    between atoms: C_1  and  C_2
REMARK    2  A    between atoms: C_2  and  C_3
REMARK    3  A    between atoms: C_3  and  C_4
REMARK    4  A    between atoms: C_4  and  C_5
REMARK    5  A    between atoms: C_5  and  C_7
REMARK    6  A    between atoms: C_5  and  N_23
REMARK    7  A    between atoms: N_9  and  C_10
REMARK    8  A    between atoms: C_12  and  C_19
REMARK    9  A    between atoms: N_14  and  C_15
REMARK   10  A    between atoms: C_15  and  C_16
REMARK   11  A    between atoms: C_15  and  C_17
REMARK   12  A    between atoms: C_15  and  C_18
REMARK   13  A    between atoms: C_19  and  C_20
REMARK   14  A    between atoms: C_19  and  C_21
REMARK   15  A    between atoms: C_19  and  C_22
REMARK                            x       y       z     vdW  Elec       q    Type
REMARK                         _______ _______ _______ _____ _____    ______ ____
ROOT
ATOM      1  C   UNL     1       1.631  -4.048   2.403  0.00  0.00    +0.239 C 
ATOM      2  O   UNL     1       0.869  -4.751   3.032  0.00  0.00    -0.273 OA
ATOM      3  N   UNL     1       2.592  -4.607   1.642  0.00  0.00    -0.269 N 
ATOM      4  H   UNL     1       3.201  -4.045   1.139  0.00  0.00    +0.156 HD
ENDROOT
BRANCH   3   5
ATOM      5  C   UNL     1       2.710  -5.995   1.577  0.00  0.00    +0.124 A 
ATOM      6  C   UNL     1       1.924  -6.900   2.222  0.00  0.00    +0.069 A 
ATOM      7  C   UNL     1       2.379  -8.178   1.887  0.00  0.00    +0.070 A 
ATOM      8  N   UNL     1       3.397  -8.053   1.073  0.00  0.00    -0.174 NA
ATOM      9  N   UNL     1       3.623  -6.687   0.858  0.00  0.00    -0.245 N 
BRANCH   9  10
ATOM     10  C   UNL     1       4.666  -6.110   0.006  0.00  0.00    +0.057 C 
ATOM     11  C   UNL     1       5.584  -5.226   0.852  0.00  0.00    +0.036 C 
ATOM     12  C   UNL     1       5.486  -7.235  -0.629  0.00  0.00    +0.036 C 
ATOM     13  C   UNL     1       4.018  -5.268  -1.094  0.00  0.00    +0.036 C 
ENDBRANCH   9  10
BRANCH   7  14
ATOM     14  C   UNL     1       1.798  -9.479   2.377  0.00  0.00    +0.006 C 
ATOM     15  C   UNL     1       0.479  -9.754   1.653  0.00  0.00    +0.017 C 
ATOM     16  C   UNL     1       2.782 -10.617   2.095  0.00  0.00    +0.017 C 
ATOM     17  C   UNL     1       1.543  -9.388   3.883  0.00  0.00    +0.017 C 
ENDBRANCH   7  14
ENDBRANCH   3   5
BRANCH   1  18
ATOM     18  C   UNL     1       1.503  -2.548   2.473  0.00  0.00    +0.161 C 
BRANCH  18  19
ATOM     19  N   UNL     1       0.752  -2.177   3.675  0.00  0.00    -0.288 N 
ATOM     20  C   UNL     1      -0.509  -2.619   3.845  0.00  0.00    +0.298 C 
ATOM     21  O   UNL     1      -1.024  -3.326   3.001  0.00  0.00    -0.253 OA
ATOM     22  N   UNL     1      -1.199  -2.278   4.951  0.00  0.00    -0.313 N 
ATOM     23  H   UNL     1       1.164  -1.613   4.349  0.00  0.00    +0.151 HD
ATOM     24  H   UNL     1      -0.788  -1.714   5.625  0.00  0.00    +0.146 HD
ATOM     25  H   UNL     1      -2.107  -2.597   5.074  0.00  0.00    +0.146 HD
ENDBRANCH  18  19
BRANCH  18  26
ATOM     26  C   UNL     1       0.763  -2.041   1.233  0.00  0.00    +0.032 C 
BRANCH  26  27
ATOM     27  C   UNL     1       0.742  -0.511   1.242  0.00  0.00    +0.002 C 
BRANCH  27  29
ATOM     28  C   UNL     1      -0.019   1.526   0.010  0.00  0.00    +0.004 C 
ATOM     29  C   UNL     1       0.002  -0.004   0.002  0.00  0.00    -0.003 C 
ENDBRANCH  27  29
ENDBRANCH  26  27
ENDBRANCH  18  26
ENDBRANCH   1  18
TORSDOF 8
