REMARK  Name = ZINC43671655
REMARK  3 active torsions:
REMARK  status: ('A' for Active; 'I' for Inactive)
REMARK    1  A    between atoms: C_1  and  C_2
REMARK    2  A    between atoms: C_9  and  N_21
REMARK    3  A    between atoms: C_11  and  C_13
REMARK                            x       y       z     vdW  Elec       q    Type
REMARK                         _______ _______ _______ _____ _____    ______ ____
ROOT
ATOM      1  C   UNL     1      -0.018   1.503   0.010  0.00  0.00    +0.044 C 
ATOM      2  C   UNL     1       0.002  -0.004   0.002  0.00  0.00    -0.046 A 
ATOM      3  C   UNL     1       0.006  -0.707  -1.195  0.00  0.00    +0.023 A 
ATOM      4  C   UNL     1       0.025  -2.088  -1.167  0.00  0.00    +0.113 A 
ATOM      5  N   UNL     1       0.040  -2.742  -0.022  0.00  0.00    -0.236 NA
ATOM      6  C   UNL     1       0.036  -2.107   1.140  0.00  0.00    +0.156 A 
ATOM      7  C   UNL     1       0.023  -0.718   1.187  0.00  0.00    +0.051 A 
ATOM      8  N   UNL     1       0.052  -2.840   2.329  0.00  0.00    -0.200 N 
ATOM      9  C   UNL     1      -0.391  -4.119   2.487  0.00  0.00    +0.122 A 
ATOM     10  C   UNL     1      -0.202  -4.463   3.788  0.00  0.00    +0.073 A 
ATOM     11  C   UNL     1       0.375  -3.359   4.445  0.00  0.00    +0.096 A 
ATOM     12  N   UNL     1       0.531  -2.392   3.566  0.00  0.00    -0.163 NA
ENDROOT
BRANCH  11  13
ATOM     13  C   UNL     1       0.750  -3.299   5.880  0.00  0.00    +0.021 A 
ATOM     14  C   UNL     1       0.542  -4.404   6.704  0.00  0.00    +0.013 A 
ATOM     15  C   UNL     1       0.891  -4.343   8.037  0.00  0.00    +0.021 A 
ATOM     16  C   UNL     1       1.448  -3.187   8.558  0.00  0.00    +0.042 A 
ATOM     17  C   UNL     1       1.657  -2.086   7.745  0.00  0.00    +0.040 A 
ATOM     18  C   UNL     1       1.316  -2.139   6.407  0.00  0.00    +0.052 A 
ATOM     19 CL   UNL     1       1.585  -0.761   5.386  0.00  0.00    -0.083 Cl
ATOM     20 CL   UNL     1       1.885  -3.118  10.236  0.00  0.00    -0.083 Cl
ENDBRANCH  11  13
BRANCH   9  21
ATOM     21  N   UNL     1      -0.939  -4.927   1.496  0.00  0.00    -0.343 N 
ATOM     22  H   UNL     1      -1.034  -4.589   0.591  0.00  0.00    +0.144 HD
ATOM     23  H   UNL     1      -1.226  -5.829   1.709  0.00  0.00    +0.144 HD
ENDBRANCH   9  21
TORSDOF 2
