REMARK  Name = ZINC36207083
REMARK  16 active torsions:
REMARK  status: ('A' for Active; 'I' for Inactive)
REMARK    1  A    between atoms: C_1  and  C_2
REMARK    2  A    between atoms: C_5  and  C_34
REMARK    3  A    between atoms: C_6  and  C_8
REMARK    4  A    between atoms: C_17  and  C_19
REMARK    5  A    between atoms: C_19  and  N_20
REMARK    6  A    between atoms: N_20  and  C_21
REMARK    7  A    between atoms: N_20  and  C_25
REMARK    8  A    between atoms: C_21  and  C_22
REMARK    9  A    between atoms: C_22  and  O_23
REMARK   10  A    between atoms: O_23  and  C_24
REMARK   11  A    between atoms: C_25  and  C_26
REMARK   12  A    between atoms: C_26  and  C_28
REMARK   13  A    between atoms: C_26  and  O_33
REMARK   14  A    between atoms: C_28  and  O_29
REMARK   15  A    between atoms: O_29  and  C_30
REMARK   16  A    between atoms: C_30  and  C_31
REMARK                            x       y       z     vdW  Elec       q    Type
REMARK                         _______ _______ _______ _____ _____    ______ ____
ROOT
ATOM      1  C   UNL     1      -0.126  -3.302   2.220  0.00  0.00    +0.004 A 
ATOM      2  C   UNL     1      -1.146  -3.159   3.101  0.00  0.00    +0.056 A 
ATOM      3  S   UNL     1      -0.552  -3.995   4.558  0.00  0.00    -0.076 S 
ATOM      4  C   UNL     1       1.035  -4.513   3.958  0.00  0.00    +0.116 A 
ATOM      5  C   UNL     1       1.065  -4.030   2.639  0.00  0.00    +0.080 A 
ATOM      6  C   UNL     1       2.258  -4.317   1.901  0.00  0.00    +0.260 A 
ATOM      7  O   UNL     1       2.381  -3.935   0.750  0.00  0.00    -0.267 OA
ATOM      8  N   UNL     1       3.243  -5.013   2.499  0.00  0.00    -0.312 N 
ATOM      9  H   UNL     1       4.054  -5.210   2.004  0.00  0.00    +0.170 HD
ATOM     10  C   UNL     1       3.124  -5.446   3.780  0.00  0.00    +0.094 A 
ATOM     11  N   UNL     1       2.052  -5.192   4.482  0.00  0.00    -0.229 NA
ENDROOT
BRANCH   1  17
ATOM     12  C   UNL     1      -0.453   0.660  -0.800  0.00  0.00    +0.044 C 
ATOM     13  C   UNL     1      -0.381  -0.832  -0.602  0.00  0.00    -0.050 A 
ATOM     14  C   UNL     1      -0.406  -1.676  -1.698  0.00  0.00    +0.003 A 
ATOM     15  C   UNL     1      -0.340  -3.047  -1.524  0.00  0.00    +0.004 A 
ATOM     16  C   UNL     1      -0.249  -3.580  -0.255  0.00  0.00    -0.043 A 
ATOM     17  C   UNL     1      -0.223  -2.735   0.854  0.00  0.00    -0.013 A 
ATOM     18  C   UNL     1      -0.284  -1.354   0.672  0.00  0.00    +0.012 A 
ATOM     19  C   UNL     1      -0.179  -5.074  -0.067  0.00  0.00    +0.044 C 
ENDBRANCH   1  17
BRANCH  10  20
ATOM     20  C   UNL     1       4.253  -6.223   4.407  0.00  0.00    -0.003 C 
BRANCH  20  21
ATOM     21  N   UNL     1       3.848  -6.682   5.743  0.00  0.00    +0.388 N 
ATOM     22  H   UNL     1       3.524  -5.895   6.285  0.00  0.00    -0.081 HD
BRANCH  21  23
ATOM     23  C   UNL     1       4.997  -7.301   6.416  0.00  0.00    -0.050 C 
BRANCH  23  24
ATOM     24  C   UNL     1       6.065  -6.239   6.685  0.00  0.00    +0.141 C 
BRANCH  24  25
ATOM     25  O   UNL     1       5.552  -5.269   7.601  0.00  0.00    -0.385 OA
ATOM     26  C   UNL     1       6.452  -4.193   7.872  0.00  0.00    +0.193 C 
ENDBRANCH  24  25
ENDBRANCH  23  24
ENDBRANCH  21  23
BRANCH  21  27
ATOM     27  C   UNL     1       2.766  -7.667   5.615  0.00  0.00    -0.044 C 
BRANCH  27  28
ATOM     28  C   UNL     1       2.260  -8.053   7.006  0.00  0.00    +0.124 C 
BRANCH  28  29
ATOM     29  O   UNL     1       1.663  -6.913   7.628  0.00  0.00    -0.391 OA
ATOM     30  H   UNL     1       0.910  -6.549   7.142  0.00  0.00    +0.210 HD
ENDBRANCH  28  29
BRANCH  28  31
ATOM     31  C   UNL     1       1.221  -9.168   6.880  0.00  0.00    +0.190 C 
BRANCH  31  32
ATOM     32  O   UNL     1       0.834  -9.609   8.184  0.00  0.00    -0.365 OA
BRANCH  32  33
ATOM     33  C   UNL     1      -0.138 -10.655   8.178  0.00  0.00    +0.248 C 
BRANCH  33  34
ATOM     34  C   UNL     1      -0.463 -11.030   9.565  0.00  0.00    -0.077 C 
ATOM     35  C   UNL     1      -0.722 -11.329  10.670  0.00  0.00    +0.006 C 
ENDBRANCH  33  34
ENDBRANCH  32  33
ENDBRANCH  31  32
ENDBRANCH  28  31
ENDBRANCH  27  28
ENDBRANCH  21  27
ENDBRANCH  20  21
ENDBRANCH  10  20
TORSDOF 13
