REMARK  Name = ZINC50196807
REMARK  9 active torsions:
REMARK  status: ('A' for Active; 'I' for Inactive)
REMARK    1  A    between atoms: C_1  and  C_2
REMARK    2  A    between atoms: C_3  and  N_9
REMARK    3  A    between atoms: C_4  and  C_8
REMARK    4  A    between atoms: N_12  and  C_13
REMARK    5  A    between atoms: C_13  and  C_14
REMARK    6  A    between atoms: C_13  and  C_15
REMARK    7  A    between atoms: C_13  and  C_16
REMARK    8  A    between atoms: C_16  and  C_17
REMARK    9  A    between atoms: C_17  and  C_18
REMARK                            x       y       z     vdW  Elec       q    Type
REMARK                         _______ _______ _______ _____ _____    ______ ____
ROOT
ATOM      1  N   UNL     1       0.006  -0.212  -2.416  0.00  0.00    -0.266 N 
ATOM      2  C   UNL     1       0.425  -0.986  -3.437  0.00  0.00    +0.304 C 
ATOM      3  O   UNL     1       0.722  -2.148  -3.236  0.00  0.00    -0.252 OA
ATOM      4  N   UNL     1       0.514  -0.473  -4.679  0.00  0.00    -0.294 N 
ATOM      5  H   UNL     1      -0.307   0.690  -2.588  0.00  0.00    +0.156 HD
ATOM      6  H   UNL     1       0.278   0.454  -4.840  0.00  0.00    +0.151 HD
ENDROOT
BRANCH   1   9
ATOM      7  C   UNL     1       1.968   0.693  -0.225  0.00  0.00    +0.067 C 
ATOM      8  C   UNL     1       0.872  -0.335  -0.112  0.00  0.00    +0.054 A 
ATOM      9  C   UNL     1       0.022  -0.712  -1.100  0.00  0.00    +0.078 A 
ATOM     10  C   UNL     1      -0.839  -1.688  -0.577  0.00  0.00    +0.081 A 
ATOM     11  N   UNL     1      -0.519  -1.891   0.676  0.00  0.00    -0.177 NA
ATOM     12  N   UNL     1       0.559  -1.056   0.996  0.00  0.00    -0.280 N 
ATOM     13  H   UNL     1       1.003  -1.002   1.857  0.00  0.00    +0.189 HD
ATOM     14  C   UNL     1      -1.943  -2.385  -1.329  0.00  0.00    +0.069 C 
ENDBRANCH   1   9
BRANCH   4  15
ATOM     15  C   UNL     1       0.970  -1.315  -5.789  0.00  0.00    +0.031 C 
ATOM     16  C   UNL     1       2.383  -1.823  -5.496  0.00  0.00    +0.031 C 
ATOM     17  C   UNL     1       0.022  -2.505  -5.948  0.00  0.00    +0.031 C 
BRANCH  15  18
ATOM     18  C   UNL     1       0.981  -0.494  -7.080  0.00  0.00    +0.036 C 
BRANCH  18  19
ATOM     19  C   UNL     1       1.456  -1.374  -8.239  0.00  0.00    +0.127 C 
BRANCH  19  20
ATOM     20  C   UNL     1       1.467  -0.566  -9.511  0.00  0.00    +0.356 C 
ATOM     21  O   UNL     1       1.125   0.604  -9.493  0.00  0.00    -0.246 OA
ATOM     22  O   UNL     1       1.817  -1.083 -10.558  0.00  0.00    -0.246 OA
ENDBRANCH  19  20
ENDBRANCH  18  19
ENDBRANCH  15  18
ENDBRANCH   4  15
TORSDOF 5
