REMARK  Name = ZINC20080294
REMARK  12 active torsions:
REMARK  status: ('A' for Active; 'I' for Inactive)
REMARK    1  A    between atoms: C_1  and  C_2
REMARK    2  A    between atoms: C_2  and  C_3
REMARK    3  A    between atoms: C_3  and  C_4
REMARK    4  A    between atoms: C_3  and  C_5
REMARK    5  A    between atoms: C_3  and  N_6
REMARK    6  A    between atoms: C_7  and  C_11
REMARK    7  A    between atoms: C_11  and  C_13
REMARK    8  A    between atoms: C_11  and  N_27
REMARK    9  A    between atoms: C_18  and  O_25
REMARK   10  A    between atoms: O_25  and  C_26
REMARK   11  A    between atoms: N_30  and  C_33
REMARK   12  A    between atoms: C_36  and  O_39
REMARK                            x       y       z     vdW  Elec       q    Type
REMARK                         _______ _______ _______ _____ _____    ______ ____
ROOT
ATOM      1  C   UNL     1       4.731   1.038   0.098  0.00  0.00    +0.162 C 
ENDROOT
BRANCH   1   2
ATOM      2  C   UNL     1       3.556   1.944   0.360  0.00  0.00    +0.042 A 
ATOM      3  C   UNL     1       2.347   1.410   0.670  0.00  0.00    +0.021 A 
ATOM      4  C   UNL     1       1.226   2.316   0.919  0.00  0.00    -0.001 A 
ATOM      5  C   UNL     1      -0.044   1.823   1.242  0.00  0.00    +0.013 A 
ATOM      6  C   UNL     1      -1.072   2.692   1.464  0.00  0.00    +0.046 A 
ATOM      7  C   UNL     1      -0.866   4.068   1.383  0.00  0.00    +0.122 A 
ATOM      8  C   UNL     1       0.382   4.575   1.065  0.00  0.00    +0.072 A 
ATOM      9  C   UNL     1       1.439   3.706   0.830  0.00  0.00    +0.053 A 
ATOM     10  N   UNL     1       2.693   4.184   0.511  0.00  0.00    -0.322 N 
ATOM     11  H   UNL     1       2.866   5.268   0.439  0.00  0.00    +0.169 HD
ATOM     12  C   UNL     1       3.716   3.342   0.284  0.00  0.00    +0.254 A 
ATOM     13  O   UNL     1       4.811   3.800   0.004  0.00  0.00    -0.268 OA
BRANCH   7  14
ATOM     14  O   UNL     1      -1.899   4.918   1.612  0.00  0.00    -0.495 OA
ATOM     15  C   UNL     1      -3.162   4.332   1.936  0.00  0.00    +0.277 C 
ENDBRANCH   7  14
ENDBRANCH   1   2
BRANCH   1  16
ATOM     16  N   UNL     1       5.304   1.348  -1.219  0.00  0.00    -0.286 NA
ATOM     17  C   UNL     1       4.313   1.148  -2.285  0.00  0.00    +0.104 C 
ATOM     18  C   UNL     1       4.922   1.557  -3.628  0.00  0.00    +0.120 C 
ATOM     19  N   UNL     1       6.130   0.758  -3.879  0.00  0.00    -0.327 N 
ATOM     20  C   UNL     1       7.121   0.958  -2.812  0.00  0.00    +0.120 C 
ATOM     21  C   UNL     1       6.511   0.549  -1.470  0.00  0.00    +0.104 C 
BRANCH  19  22
ATOM     22  C   UNL     1       6.675   1.054  -5.133  0.00  0.00    +0.030 A 
ATOM     23  C   UNL     1       7.994   1.478  -5.234  0.00  0.00    +0.027 A 
ATOM     24  C   UNL     1       8.533   1.765  -6.473  0.00  0.00    +0.047 A 
ATOM     25  C   UNL     1       7.755   1.639  -7.614  0.00  0.00    +0.117 A 
ATOM     26  C   UNL     1       6.437   1.220  -7.514  0.00  0.00    +0.047 A 
ATOM     27  C   UNL     1       5.898   0.928  -6.276  0.00  0.00    +0.027 A 
BRANCH  25  28
ATOM     28  O   UNL     1       8.286   1.927  -8.833  0.00  0.00    -0.507 OA
ATOM     29  H   UNL     1       7.669   1.827  -9.739  0.00  0.00    +0.292 HD
ENDBRANCH  25  28
ENDBRANCH  19  22
ENDBRANCH   1  16
BRANCH   1  31
ATOM     30  N   UNL     1       6.127   0.380   2.128  0.00  0.00    -0.222 N 
ATOM     31  C   UNL     1       5.776   1.249   1.163  0.00  0.00    +0.174 A 
ATOM     32  N   UNL     1       6.524   2.313   1.325  0.00  0.00    -0.111 NA
ATOM     33  N   UNL     1       7.288   2.111   2.343  0.00  0.00    -0.023 NA
ATOM     34  N   UNL     1       7.053   0.942   2.829  0.00  0.00    -0.043 NA
BRANCH  30  35
ATOM     35  C   UNL     1       5.562  -0.955   2.344  0.00  0.00    +0.062 C 
ATOM     36  C   UNL     1       4.049  -0.843   2.541  0.00  0.00    +0.036 C 
ATOM     37  C   UNL     1       5.855  -1.835   1.128  0.00  0.00    +0.036 C 
BRANCH  35  39
ATOM     38  C   UNL     1       5.604  -2.974   3.815  0.00  0.00    +0.006 C 
ATOM     39  C   UNL     1       6.194  -1.580   3.590  0.00  0.00    +0.026 C 
ENDBRANCH  35  39
ENDBRANCH  30  35
ENDBRANCH   1  31
TORSDOF 8
