REMARK  Name = ZINC00927352
REMARK  9 active torsions:
REMARK  status: ('A' for Active; 'I' for Inactive)
REMARK    1  A    between atoms: C_1  and  C_2
REMARK    2  A    between atoms: C_4  and  C_34
REMARK    3  A    between atoms: C_7  and  C_14
REMARK    4  A    between atoms: C_14  and  N_15
REMARK    5  A    between atoms: N_15  and  C_16
REMARK    6  A    between atoms: N_15  and  C_22
REMARK    7  A    between atoms: C_16  and  C_17
REMARK    8  A    between atoms: C_22  and  C_23
REMARK    9  A    between atoms: N_27  and  C_28
REMARK                            x       y       z     vdW  Elec       q    Type
REMARK                         _______ _______ _______ _____ _____    ______ ____
ROOT
ATOM      1  N   UNL     1       1.327  -7.310   1.337  0.00  0.00    -0.286 NA
ENDROOT
BRANCH   1   2
ATOM      2  C   UNL     1       0.384  -6.409   0.660  0.00  0.00    +0.125 C 
BRANCH   2   9
ATOM      3  C   UNL     1       4.300  -0.156  -2.370  0.00  0.00    +0.044 C 
ATOM      4  C   UNL     1       3.592  -1.435  -2.007  0.00  0.00    -0.048 A 
ATOM      5  C   UNL     1       3.478  -2.449  -2.949  0.00  0.00    +0.007 A 
ATOM      6  C   UNL     1       2.841  -3.617  -2.640  0.00  0.00    -0.041 A 
ATOM      7  C   UNL     1       2.296  -3.793  -1.364  0.00  0.00    +0.002 A 
ATOM      8  C   UNL     1       1.607  -5.032  -0.999  0.00  0.00    +0.020 A 
ATOM      9  C   UNL     1       1.100  -5.147   0.253  0.00  0.00    +0.031 A 
ATOM     10  C   UNL     1       1.240  -4.089   1.176  0.00  0.00    +0.254 A 
ATOM     11  O   UNL     1       0.778  -4.213   2.297  0.00  0.00    -0.268 OA
ATOM     12  N   UNL     1       1.872  -2.947   0.851  0.00  0.00    -0.322 N 
ATOM     13  H   UNL     1       1.951  -2.240   1.510  0.00  0.00    +0.169 HD
ATOM     14  C   UNL     1       2.409  -2.768  -0.406  0.00  0.00    +0.050 A 
ATOM     15  C   UNL     1       3.068  -1.590  -0.741  0.00  0.00    +0.029 A 
ATOM     16  C   UNL     1       2.723  -4.710  -3.671  0.00  0.00    +0.044 C 
ENDBRANCH   2   9
ENDBRANCH   1   2
BRANCH   1  17
ATOM     17  C   UNL     1       2.217  -7.964   0.368  0.00  0.00    +0.127 C 
BRANCH  17  18
ATOM     18  C   UNL     1       3.400  -8.553   1.092  0.00  0.00    +0.004 A 
ATOM     19  C   UNL     1       3.584  -9.819   1.539  0.00  0.00    +0.012 A 
ATOM     20  C   UNL     1       4.764 -10.139   2.183  0.00  0.00    +0.008 A 
ATOM     21  C   UNL     1       5.704  -9.176   2.349  0.00  0.00    +0.045 A 
ATOM     22  S   UNL     1       4.928  -7.766   1.575  0.00  0.00    -0.100 S 
ENDBRANCH  17  18
ENDBRANCH   1  17
BRANCH   1  23
ATOM     23  C   UNL     1       0.613  -8.304   2.150  0.00  0.00    +0.163 C 
BRANCH  23  24
ATOM     24  C   UNL     1       0.097  -7.648   3.405  0.00  0.00    +0.166 A 
ATOM     25  N   UNL     1       0.761  -7.461   4.520  0.00  0.00    -0.112 NA
ATOM     26  N   UNL     1      -0.022  -6.869   5.355  0.00  0.00    -0.023 NA
ATOM     27  N   UNL     1      -1.168  -6.675   4.802  0.00  0.00    -0.044 NA
ATOM     28  N   UNL     1      -1.133  -7.136   3.598  0.00  0.00    -0.225 N 
BRANCH  28  29
ATOM     29  C   UNL     1      -2.227  -7.112   2.624  0.00  0.00    +0.111 C 
ATOM     30  C   UNL     1      -3.353  -8.031   3.098  0.00  0.00    +0.027 C 
ATOM     31  C   UNL     1      -4.496  -8.005   2.081  0.00  0.00    +0.002 C 
ATOM     32  C   UNL     1      -5.026  -6.577   1.947  0.00  0.00    +0.000 C 
ATOM     33  C   UNL     1      -3.900  -5.657   1.472  0.00  0.00    +0.002 C 
ATOM     34  C   UNL     1      -2.757  -5.683   2.489  0.00  0.00    +0.027 C 
ENDBRANCH  28  29
ENDBRANCH  23  24
ENDBRANCH   1  23
TORSDOF 7
