REMARK  Name = ZINC05927789
REMARK  5 active torsions:
REMARK  status: ('A' for Active; 'I' for Inactive)
REMARK    1  A    between atoms: C_1  and  C_2
REMARK    2  A    between atoms: C_10  and  S_12
REMARK    3  A    between atoms: S_12  and  C_13
REMARK    4  A    between atoms: C_13  and  C_14
REMARK    5  A    between atoms: C_20  and  C_25
REMARK                            x       y       z     vdW  Elec       q    Type
REMARK                         _______ _______ _______ _____ _____    ______ ____
ROOT
ATOM      1  C   UNL     1       0.128  -8.426   1.625  0.00  0.00    +0.121 A 
ATOM      2  N   UNL     1       0.144  -9.496   0.789  0.00  0.00    -0.310 N 
ATOM      3  H   UNL     1       0.141  -9.350  -0.170  0.00  0.00    +0.170 HD
ATOM      4  C   UNL     1       0.166 -10.755   1.264  0.00  0.00    +0.260 A 
ATOM      5  O   UNL     1       0.180 -11.705   0.500  0.00  0.00    -0.267 OA
ATOM      6  C   UNL     1       0.171 -10.961   2.681  0.00  0.00    +0.080 A 
ATOM      7  C   UNL     1       0.193 -12.211   3.431  0.00  0.00    +0.004 A 
ATOM      8  C   UNL     1       0.194 -12.159   4.785  0.00  0.00    +0.056 A 
ATOM      9  S   UNL     1       0.166 -10.410   5.130  0.00  0.00    -0.076 S 
ATOM     10  C   UNL     1       0.153  -9.797   3.465  0.00  0.00    +0.116 A 
ATOM     11  N   UNL     1       0.138  -8.583   2.921  0.00  0.00    -0.226 NA
ENDROOT
BRANCH   7  12
ATOM     12  C   UNL     1       0.213 -13.515   2.726  0.00  0.00    -0.017 A 
ATOM     13  C   UNL     1      -0.705 -13.775   1.709  0.00  0.00    +0.008 A 
ATOM     14  C   UNL     1      -0.681 -14.990   1.055  0.00  0.00    +0.001 A 
ATOM     15  C   UNL     1       0.251 -15.950   1.408  0.00  0.00    +0.000 A 
ATOM     16  C   UNL     1       1.164 -15.698   2.416  0.00  0.00    +0.001 A 
ATOM     17  C   UNL     1       1.153 -14.484   3.072  0.00  0.00    +0.008 A 
ENDBRANCH   7  12
BRANCH   1  18
ATOM     18  C   UNL     1       0.105  -7.035   1.047  0.00  0.00    +0.151 C 
BRANCH  18  19
ATOM     19  S   UNL     1       0.096  -5.820   2.394  0.00  0.00    -0.080 S 
BRANCH  19  29
ATOM     20  C   UNL     1      -0.018   1.503   0.010  0.00  0.00    +0.044 C 
ATOM     21  C   UNL     1       0.002  -0.004   0.002  0.00  0.00    -0.048 A 
ATOM     22  C   UNL     1       0.006  -0.686  -1.206  0.00  0.00    +0.005 A 
ATOM     23  C   UNL     1       0.024  -2.063  -1.230  0.00  0.00    +0.030 A 
ATOM     24  C   UNL     1       0.040  -2.778  -0.030  0.00  0.00    +0.090 A 
ATOM     25  C   UNL     1       0.037  -2.082   1.190  0.00  0.00    +0.067 A 
ATOM     26  C   UNL     1       0.023  -0.696   1.196  0.00  0.00    +0.031 A 
ATOM     27  N   UNL     1       0.055  -3.047   2.184  0.00  0.00    -0.333 N 
ATOM     28  H   UNL     1       0.058  -2.887   3.141  0.00  0.00    +0.168 HD
ATOM     29  C   UNL     1       0.069  -4.265   1.566  0.00  0.00    +0.168 A 
ATOM     30  N   UNL     1       0.060  -4.104   0.266  0.00  0.00    -0.222 NA
ENDBRANCH  19  29
ENDBRANCH  18  19
ENDBRANCH   1  18
TORSDOF 4
