REMARK  Name = ZINC45037297
REMARK  7 active torsions:
REMARK  status: ('A' for Active; 'I' for Inactive)
REMARK    1  A    between atoms: C_1  and  C_2
REMARK    2  A    between atoms: C_2  and  C_28
REMARK    3  A    between atoms: C_4  and  N_10
REMARK    4  A    between atoms: C_6  and  C_8
REMARK    5  A    between atoms: C_6  and  C_9
REMARK    6  A    between atoms: C_11  and  C_13
REMARK    7  A    between atoms: C_21  and  C_22
REMARK                            x       y       z     vdW  Elec       q    Type
REMARK                         _______ _______ _______ _____ _____    ______ ____
ROOT
ATOM      1  N   UNL     1      -3.540  -0.922   1.007  0.00  0.00    -0.308 N 
ATOM      2  C   UNL     1      -4.546  -0.473   1.784  0.00  0.00    +0.249 C 
ATOM      3  O   UNL     1      -4.333   0.387   2.618  0.00  0.00    -0.270 OA
ATOM      4  H   UNL     1      -3.710  -1.608   0.342  0.00  0.00    +0.149 HD
ENDROOT
BRANCH   1   8
ATOM      5  C   UNL     1      -0.019   1.528   0.010  0.00  0.00    -0.010 C 
ATOM      6  C   UNL     1       0.002  -0.004   0.002  0.00  0.00    -0.072 C 
ATOM      7  C   UNL     1      -1.419  -0.538  -0.145  0.00  0.00    +0.009 C 
ATOM      8  C   UNL     1      -2.188  -0.373   1.166  0.00  0.00    +0.071 C 
ATOM      9  C   UNL     1      -1.451  -1.155   2.253  0.00  0.00    +0.009 C 
ATOM     10  C   UNL     1      -0.030  -0.627   2.418  0.00  0.00    -0.072 C 
ATOM     11  N   UNL     1       0.697  -0.529   1.164  0.00  0.00    +0.386 N 
ATOM     12  C   UNL     1       0.730  -1.621   3.326  0.00  0.00    -0.010 C 
ATOM     13  C   UNL     1      -0.059   0.719   3.151  0.00  0.00    -0.010 C 
ATOM     14  C   UNL     1       0.791  -0.440  -1.254  0.00  0.00    -0.010 C 
ATOM     15  H   UNL     1       1.056  -1.460   0.929  0.00  0.00    -0.084 HD
ATOM     16  H   UNL     1       1.534   0.040   1.322  0.00  0.00    -0.084 HD
ENDBRANCH   1   8
BRANCH   2  17
ATOM     17  C   UNL     1      -5.896  -1.022   1.625  0.00  0.00    +0.100 A 
ATOM     18  C   UNL     1      -6.293  -2.018   0.715  0.00  0.00    +0.150 A 
ATOM     19  N   UNL     1      -7.571  -2.242   0.870  0.00  0.00    -0.172 NA
ATOM     20  N   UNL     1      -8.072  -1.413   1.879  0.00  0.00    -0.213 N 
ATOM     21  C   UNL     1      -7.041  -0.656   2.359  0.00  0.00    +0.168 A 
ATOM     22  N   UNL     1      -7.236   0.226   3.339  0.00  0.00    -0.235 NA
ATOM     23  C   UNL     1      -8.424   0.395   3.881  0.00  0.00    +0.115 A 
ATOM     24  C   UNL     1      -9.513  -0.354   3.434  0.00  0.00    +0.048 A 
ATOM     25  C   UNL     1      -9.327  -1.266   2.412  0.00  0.00    +0.076 A 
BRANCH  25  26
ATOM     26  C   UNL     1     -10.457  -2.078   1.914  0.00  0.00    +0.001 A 
ATOM     27  C   UNL     1     -10.458  -3.462   2.094  0.00  0.00    +0.010 A 
ATOM     28  C   UNL     1     -11.516  -4.214   1.627  0.00  0.00    +0.001 A 
ATOM     29  C   UNL     1     -12.574  -3.599   0.981  0.00  0.00    +0.000 A 
ATOM     30  C   UNL     1     -12.578  -2.228   0.798  0.00  0.00    +0.001 A 
ATOM     31  C   UNL     1     -11.530  -1.463   1.266  0.00  0.00    +0.010 A 
ENDBRANCH  25  26
ENDBRANCH   2  17
TORSDOF 3
