REMARK  Name = ZINC39661238
REMARK  7 active torsions:
REMARK  status: ('A' for Active; 'I' for Inactive)
REMARK    1  A    between atoms: C_1  and  C_2
REMARK    2  A    between atoms: C_3  and  C_12
REMARK    3  A    between atoms: C_7  and  O_8
REMARK    4  A    between atoms: O_8  and  C_9
REMARK    5  A    between atoms: C_9  and  C_11
REMARK    6  A    between atoms: C_16  and  C_25
REMARK    7  A    between atoms: N_27  and  C_28
REMARK                            x       y       z     vdW  Elec       q    Type
REMARK                         _______ _______ _______ _____ _____    ______ ____
ROOT
ATOM      1  C   UNL     1      -0.165  -0.069  -2.698  0.00  0.00    +0.247 C 
ATOM      2  O   UNL     1      -0.092   1.137  -2.831  0.00  0.00    -0.270 OA
ATOM      3  N   UNL     1      -0.391  -0.853  -3.771  0.00  0.00    -0.296 N 
ATOM      4  C   UNL     1      -0.636  -2.314  -3.793  0.00  0.00    +0.121 C 
ATOM      5  C   UNL     1      -1.729  -2.511  -4.867  0.00  0.00    +0.100 C 
ATOM      6  C   UNL     1      -1.601  -1.284  -5.786  0.00  0.00    -0.004 C 
ATOM      7  C   UNL     1      -0.458  -0.447  -5.195  0.00  0.00    +0.115 C 
ATOM      8  C   UNL     1      -1.258  -1.721  -7.207  0.00  0.00    -0.010 C 
ATOM      9  C   UNL     1      -1.194  -0.489  -8.113  0.00  0.00    -0.082 C 
ATOM     10  N   UNL     1      -2.487   0.204  -8.092  0.00  0.00    +0.379 N 
ATOM     11  C   UNL     1      -2.766   0.703  -6.740  0.00  0.00    -0.082 C 
ATOM     12  C   UNL     1      -2.897  -0.479  -5.775  0.00  0.00    -0.010 C 
ATOM     13  H   UNL     1      -2.462   0.980  -8.737  0.00  0.00    -0.086 HD
ATOM     14  H   UNL     1      -3.216  -0.436  -8.370  0.00  0.00    -0.086 HD
ENDROOT
BRANCH   1  17
ATOM     15  C   UNL     1      -1.187   1.313  -0.370  0.00  0.00    +0.048 C 
ATOM     16  C   UNL     1      -0.495  -0.019  -0.230  0.00  0.00    +0.004 A 
ATOM     17  C   UNL     1      -0.006  -0.676  -1.359  0.00  0.00    +0.043 A 
ATOM     18  C   UNL     1       0.634  -1.909  -1.221  0.00  0.00    +0.013 A 
ATOM     19  C   UNL     1       0.780  -2.473   0.030  0.00  0.00    +0.004 A 
ATOM     20  C   UNL     1       0.295  -1.821   1.148  0.00  0.00    +0.047 A 
ATOM     21  C   UNL     1      -0.338  -0.591   1.021  0.00  0.00    +0.135 A 
BRANCH  21  22
ATOM     22  O   UNL     1      -0.809   0.048   2.124  0.00  0.00    -0.426 OA
BRANCH  22  23
ATOM     23  C   UNL     1      -0.105   1.089   2.598  0.00  0.00    +0.309 C 
ATOM     24  O   UNL     1       0.960   1.373   2.103  0.00  0.00    -0.251 OA
ATOM     25  C   UNL     1      -0.643   1.902   3.747  0.00  0.00    +0.136 C 
ENDBRANCH  22  23
ENDBRANCH  21  22
ENDBRANCH   1  17
BRANCH   5  26
ATOM     26  C   UNL     1      -1.479  -3.779  -5.643  0.00  0.00    +0.219 C 
ATOM     27  O   UNL     1      -0.356  -4.228  -5.726  0.00  0.00    -0.275 OA
ATOM     28  N   UNL     1      -2.505  -4.413  -6.245  0.00  0.00    -0.304 N 
ATOM     29  H   UNL     1      -3.403  -4.054  -6.178  0.00  0.00    +0.149 HD
BRANCH  28  30
ATOM     30  C   UNL     1      -2.262  -5.646  -6.999  0.00  0.00    +0.151 C 
ATOM     31  C   UNL     1      -3.538  -6.491  -6.994  0.00  0.00    +0.042 C 
ATOM     32  C   UNL     1      -3.477  -7.441  -8.213  0.00  0.00    +0.079 C 
ATOM     33  S   UNL     1      -2.488  -6.457  -9.404  0.00  0.00    -0.086 S 
ATOM     34  C   UNL     1      -1.829  -5.287  -8.400  0.00  0.00    +0.209 C 
ATOM     35  O   UNL     1      -1.143  -4.343  -8.734  0.00  0.00    -0.283 OA
ENDBRANCH  28  30
ENDBRANCH   5  26
TORSDOF 5
