REMARK  Name = ZINC20208698
REMARK  12 active torsions:
REMARK  status: ('A' for Active; 'I' for Inactive)
REMARK    1  A    between atoms: C_1  and  C_2
REMARK    2  A    between atoms: C_2  and  O_3
REMARK    3  A    between atoms: O_3  and  C_4
REMARK    4  A    between atoms: C_6  and  C_15
REMARK    5  A    between atoms: C_9  and  O_10
REMARK    6  A    between atoms: O_10  and  S_11
REMARK    7  A    between atoms: S_11  and  C_14
REMARK    8  A    between atoms: C_25  and  S_27
REMARK    9  A    between atoms: S_27  and  C_30
REMARK   10  A    between atoms: C_30  and  C_31
REMARK   11  A    between atoms: C_31  and  C_32
REMARK   12  A    between atoms: C_31  and  C_33
REMARK                            x       y       z     vdW  Elec       q    Type
REMARK                         _______ _______ _______ _____ _____    ______ ____
ROOT
ATOM      1  C   UNL     1      -0.086  -5.047   0.599  0.00  0.00    +0.024 C 
ATOM      2  C   UNL     1      -0.125  -6.386   0.281  0.00  0.00    +0.081 C 
ATOM      3  C   UNL     1       0.496  -6.916  -0.966  0.00  0.00    +0.153 C 
ATOM      4  N   UNL     1       1.574  -6.409  -1.502  0.00  0.00    -0.283 NA
ATOM      5  N   UNL     1      -0.195  -8.020  -1.510  0.00  0.00    -0.150 N 
ATOM      6  C   UNL     1      -0.981  -8.763  -0.656  0.00  0.00    +0.182 C 
ATOM      7  N   UNL     1      -1.248  -8.516   0.602  0.00  0.00    -0.152 NA
ATOM      8  C   UNL     1      -0.783  -7.380   1.165  0.00  0.00    +0.273 C 
ATOM      9  O   UNL     1      -0.903  -7.174   2.362  0.00  0.00    -0.268 OA
ATOM     10  S   UNL     1      -1.526 -10.083  -1.707  0.00  0.00    -0.015 S 
ATOM     11  C   UNL     1      -0.764  -9.509  -3.219  0.00  0.00    +0.235 C 
ATOM     12  N   UNL     1      -0.147  -8.432  -2.825  0.00  0.00    -0.145 NA
ATOM     13  H   UNL     1       1.938  -6.793  -2.315  0.00  0.00    +0.188 HD
ENDROOT
BRANCH   1  16
ATOM     14  C   UNL     1       1.566  -2.022  -0.872  0.00  0.00    +0.165 A 
ATOM     15  C   UNL     1       1.098  -2.932   0.054  0.00  0.00    +0.057 A 
ATOM     16  C   UNL     1       0.414  -4.077  -0.379  0.00  0.00    -0.021 A 
ATOM     17  C   UNL     1       0.211  -4.291  -1.749  0.00  0.00    +0.012 A 
ATOM     18  C   UNL     1       0.682  -3.377  -2.665  0.00  0.00    +0.053 A 
ATOM     19  C   UNL     1       1.355  -2.240  -2.234  0.00  0.00    +0.198 A 
BRANCH  14  20
ATOM     20  O   UNL     1       2.230  -0.910  -0.457  0.00  0.00    -0.488 OA
BRANCH  20  22
ATOM     21  C   UNL     1       3.171   0.548   1.224  0.00  0.00    +0.048 C 
ATOM     22  C   UNL     1       2.410  -0.750   0.952  0.00  0.00    +0.226 C 
ENDBRANCH  20  22
ENDBRANCH  14  20
BRANCH  19  23
ATOM     23  O   UNL     1       1.813  -1.341  -3.142  0.00  0.00    -0.343 OA
BRANCH  23  24
ATOM     24  S   UNL     1       3.226  -1.620  -3.633  0.00  0.00    +0.118 S 
ATOM     25  O   UNL     1       3.599  -0.451  -4.349  0.00  0.00    -0.137 OA
ATOM     26  O   UNL     1       3.941  -2.018  -2.471  0.00  0.00    -0.137 OA
ATOM     27  C   UNL     1       3.056  -3.022  -4.771  0.00  0.00    +0.242 C 
ENDBRANCH  23  24
ENDBRANCH  19  23
ENDBRANCH   1  16
BRANCH  11  28
ATOM     28  S   UNL     1      -0.833 -10.218  -4.830  0.00  0.00    +0.022 S 
ATOM     29  O   UNL     1      -2.105 -10.848  -4.896  0.00  0.00    -0.167 OA
ATOM     30  O   UNL     1      -0.505  -9.152  -5.710  0.00  0.00    -0.167 OA
BRANCH  28  31
ATOM     31  C   UNL     1       0.483 -11.467  -4.846  0.00  0.00    +0.177 C 
BRANCH  31  32
ATOM     32  C   UNL     1       0.518 -12.155  -6.212  0.00  0.00    +0.004 C 
ATOM     33  C   UNL     1       0.912 -11.138  -7.285  0.00  0.00    +0.009 C 
ATOM     34  C   UNL     1       1.542 -13.291  -6.185  0.00  0.00    +0.009 C 
ENDBRANCH  31  32
ENDBRANCH  28  31
ENDBRANCH  11  28
TORSDOF 8
