REMARK  Name = ZINC35796729
REMARK  11 active torsions:
REMARK  status: ('A' for Active; 'I' for Inactive)
REMARK    1  A    between atoms: C_1  and  C_2
REMARK    2  A    between atoms: C_7  and  O_8
REMARK    3  A    between atoms: O_8  and  C_9
REMARK    4  A    between atoms: C_9  and  C_10
REMARK    5  A    between atoms: C_10  and  C_12
REMARK    6  A    between atoms: N_18  and  C_23
REMARK    7  A    between atoms: C_23  and  C_24
REMARK    8  A    between atoms: N_26  and  C_27
REMARK    9  A    between atoms: C_27  and  C_28
REMARK   10  A    between atoms: C_28  and  C_29
REMARK   11  A    between atoms: C_28  and  C_30
REMARK                            x       y       z     vdW  Elec       q    Type
REMARK                         _______ _______ _______ _____ _____    ______ ____
ROOT
ATOM      1  C   UNL     1       0.068  -0.478   6.128  0.00  0.00    +0.023 A 
ATOM      2  C   UNL     1       0.094  -1.867   6.304  0.00  0.00    +0.015 A 
ATOM      3  C   UNL     1       0.113  -2.402   7.574  0.00  0.00    +0.048 A 
ATOM      4  C   UNL     1       0.108  -1.566   8.681  0.00  0.00    +0.143 A 
ATOM      5  C   UNL     1       0.082  -0.179   8.514  0.00  0.00    +0.079 A 
ATOM      6  C   UNL     1       0.067   0.366   7.246  0.00  0.00    +0.038 A 
ATOM      7  N   UNL     1       0.076   0.648   9.647  0.00  0.00    -0.257 N 
ATOM      8  C   UNL     1       0.412   0.120  10.844  0.00  0.00    +0.258 C 
ATOM      9  O   UNL     1       0.385   0.808  11.842  0.00  0.00    -0.271 OA
ATOM     10  C   UNL     1       0.819  -1.329  10.934  0.00  0.00    +0.325 C 
ATOM     11  O   UNL     1       0.128  -2.085   9.936  0.00  0.00    -0.481 OA
ENDROOT
BRANCH   1  12
ATOM     12  C   UNL     1       0.047   0.092   4.775  0.00  0.00    +0.200 C 
ATOM     13  O   UNL     1       0.030   1.295   4.624  0.00  0.00    -0.288 OA
BRANCH  12  14
ATOM     14  C   UNL     1       0.048  -0.819   3.574  0.00  0.00    +0.308 C 
BRANCH  14  15
ATOM     15  O   UNL     1       0.025  -0.033   2.381  0.00  0.00    -0.484 OA
BRANCH  15  22
ATOM     16  C   UNL     1      -0.018   1.503   0.010  0.00  0.00    +0.047 C 
ATOM     17  C   UNL     1       0.002  -0.004   0.002  0.00  0.00    -0.007 A 
ATOM     18  C   UNL     1       0.006  -0.689  -1.198  0.00  0.00    +0.027 A 
ATOM     19  C   UNL     1       0.024  -2.072  -1.206  0.00  0.00    +0.041 A 
ATOM     20  C   UNL     1       0.040  -2.773  -0.013  0.00  0.00    +0.023 A 
ATOM     21  C   UNL     1       0.036  -2.092   1.189  0.00  0.00    +0.047 A 
ATOM     22  C   UNL     1       0.023  -0.704   1.199  0.00  0.00    +0.124 A 
ATOM     23 CL   UNL     1       0.028  -2.930  -2.715  0.00  0.00    -0.084 Cl
ENDBRANCH  15  22
ENDBRANCH  14  15
ENDBRANCH  12  14
ENDBRANCH   1  12
BRANCH   7  24
ATOM     24  C   UNL     1      -0.288   2.063   9.534  0.00  0.00    +0.209 C 
BRANCH  24  25
ATOM     25  C   UNL     1      -1.774   2.217   9.729  0.00  0.00    +0.231 C 
ATOM     26  O   UNL     1      -2.462   1.241   9.943  0.00  0.00    -0.274 OA
ATOM     27  N   UNL     1      -2.339   3.439   9.668  0.00  0.00    -0.314 N 
ATOM     28  H   UNL     1      -1.789   4.219   9.497  0.00  0.00    +0.149 HD
BRANCH  27  29
ATOM     29  C   UNL     1      -3.784   3.588   9.858  0.00  0.00    +0.107 C 
BRANCH  29  30
ATOM     30  C   UNL     1      -4.164   5.066   9.740  0.00  0.00    -0.000 C 
ATOM     31  C   UNL     1      -5.685   5.208   9.814  0.00  0.00    +0.009 C 
ATOM     32  C   UNL     1      -3.521   5.851  10.885  0.00  0.00    +0.009 C 
ENDBRANCH  29  30
ENDBRANCH  27  29
ENDBRANCH  24  25
ENDBRANCH   7  24
TORSDOF 8
