REMARK  Name = ZINC09403410
REMARK  9 active torsions:
REMARK  status: ('A' for Active; 'I' for Inactive)
REMARK    1  A    between atoms: C_1  and  N_2
REMARK    2  A    between atoms: C_3  and  C_28
REMARK    3  A    between atoms: C_6  and  S_7
REMARK    4  A    between atoms: S_7  and  C_8
REMARK    5  A    between atoms: C_8  and  C_9
REMARK    6  A    between atoms: N_11  and  C_12
REMARK    7  A    between atoms: C_12  and  C_13
REMARK    8  A    between atoms: C_13  and  N_14
REMARK    9  A    between atoms: C_18  and  C_19
REMARK                            x       y       z     vdW  Elec       q    Type
REMARK                         _______ _______ _______ _____ _____    ______ ____
ROOT
ATOM      1  C   UNL     1       3.911   4.681   0.645  0.00  0.00    +0.223 C 
ATOM      2  O   UNL     1       5.046   4.281   0.494  0.00  0.00    -0.275 OA
ATOM      3  N   UNL     1       2.947   3.835   1.057  0.00  0.00    -0.313 N 
ATOM      4  H   UNL     1       2.039   4.155   1.178  0.00  0.00    +0.149 HD
ENDROOT
BRANCH   1   5
ATOM      5  C   UNL     1       3.579   6.126   0.371  0.00  0.00    +0.173 C 
BRANCH   5   6
ATOM      6  S   UNL     1       5.073   6.997  -0.163  0.00  0.00    -0.077 S 
BRANCH   6  12
ATOM      7  C   UNL     1       6.532   9.798  -1.139  0.00  0.00    +0.153 C 
ATOM      8  N   UNL     1       5.105   9.717  -0.816  0.00  0.00    -0.305 N 
ATOM      9  C   UNL     1       4.182  10.736  -0.866  0.00  0.00    +0.165 A 
ATOM     10  N   UNL     1       3.030  10.231  -0.493  0.00  0.00    -0.128 NA
ATOM     11  N   UNL     1       3.165   8.982  -0.223  0.00  0.00    -0.122 NA
ATOM     12  C   UNL     1       4.413   8.613  -0.407  0.00  0.00    +0.192 A 
BRANCH   9  13
ATOM     13  C   UNL     1       4.441  12.138  -1.258  0.00  0.00    +0.019 A 
ATOM     14  C   UNL     1       3.531  13.140  -0.920  0.00  0.00    +0.011 A 
ATOM     15  C   UNL     1       3.782  14.447  -1.284  0.00  0.00    +0.001 A 
ATOM     16  C   UNL     1       4.927  14.763  -1.994  0.00  0.00    +0.000 A 
ATOM     17  C   UNL     1       5.830  13.773  -2.337  0.00  0.00    +0.001 A 
ATOM     18  C   UNL     1       5.595  12.463  -1.974  0.00  0.00    +0.011 A 
ENDBRANCH   9  13
ENDBRANCH   6  12
ENDBRANCH   5   6
ENDBRANCH   1   5
BRANCH   3  19
ATOM     19  C   UNL     1       3.269   2.431   1.324  0.00  0.00    +0.123 C 
BRANCH  19  20
ATOM     20  C   UNL     1       2.007   1.694   1.775  0.00  0.00    +0.136 C 
BRANCH  20  21
ATOM     21  N   UNL     1       2.330   0.290   2.041  0.00  0.00    -0.227 N 
ATOM     22  C   UNL     1       2.711  -0.066   3.256  0.00  0.00    +0.260 C 
ATOM     23  O   UNL     1       2.801   0.743   4.161  0.00  0.00    -0.269 OA
ATOM     24  C   UNL     1       3.022  -1.497   3.459  0.00  0.00    +0.080 C 
ATOM     25  C   UNL     1       3.430  -2.143   4.580  0.00  0.00    +0.029 C 
ATOM     26  S   UNL     1       2.710  -2.143   1.822  0.00  0.00    -0.026 S 
ATOM     27  C   UNL     1       2.226  -0.611   1.043  0.00  0.00    +0.286 C 
ATOM     28  O   UNL     1       1.886  -0.424  -0.110  0.00  0.00    -0.262 OA
BRANCH  25  29
ATOM     29  C   UNL     1       3.664  -3.594   4.548  0.00  0.00    -0.006 A 
ATOM     30  C   UNL     1       3.643  -4.294   3.332  0.00  0.00    +0.011 A 
ATOM     31  C   UNL     1       3.875  -5.657   3.357  0.00  0.00    +0.020 A 
ATOM     32  C   UNL     1       4.107  -6.283   4.570  0.00  0.00    +0.111 A 
ATOM     33  N   UNL     1       4.116  -5.601   5.699  0.00  0.00    -0.263 NA
ATOM     34  C   UNL     1       3.906  -4.302   5.730  0.00  0.00    +0.118 A 
ENDBRANCH  25  29
ENDBRANCH  20  21
ENDBRANCH  19  20
ENDBRANCH   3  19
TORSDOF 8
