REMARK  Name = ZINC35851886
REMARK  4 active torsions:
REMARK  status: ('A' for Active; 'I' for Inactive)
REMARK    1  A    between atoms: C_8  and  C_27
REMARK    2  A    between atoms: C_10  and  C_18
REMARK    3  A    between atoms: C_21  and  N_24
REMARK    4  A    between atoms: C_27  and  C_29
REMARK                            x       y       z     vdW  Elec       q    Type
REMARK                         _______ _______ _______ _____ _____    ______ ____
ROOT
ATOM      1  C   UNL     1      -0.097   1.360  -0.145  0.00  0.00    +0.000 A 
ATOM      2  C   UNL     1       1.089   2.073  -0.163  0.00  0.00    +0.002 A 
ATOM      3  C   UNL     1       2.299   1.411  -0.138  0.00  0.00    +0.023 A 
ATOM      4  C   UNL     1       2.337   0.020  -0.095  0.00  0.00    +0.039 A 
ATOM      5  C   UNL     1       1.137  -0.686  -0.077  0.00  0.00    +0.004 A 
ATOM      6  C   UNL     1      -0.069  -0.022  -0.102  0.00  0.00    +0.008 A 
ATOM      7  C   UNL     1       1.516  -2.140  -0.027  0.00  0.00    +0.137 C 
ATOM      8  C   UNL     1       0.958  -2.907  -1.230  0.00  0.00    +0.103 C 
ATOM      9  C   UNL     1      -0.392  -3.466  -0.729  0.00  0.00    +0.050 C 
ATOM     10  C   UNL     1      -0.342  -3.336   0.797  0.00  0.00    +0.077 C 
ATOM     11  N   UNL     1       0.970  -2.797   1.174  0.00  0.00    -0.271 NA
ATOM     12  C   UNL     1       1.929  -3.865   1.595  0.00  0.00    +0.155 C 
ATOM     13  S   UNL     1       0.784  -5.006   2.486  0.00  0.00    -0.144 S 
ATOM     14  C   UNL     1      -0.706  -4.666   1.475  0.00  0.00    +0.090 C 
ATOM     15  C   UNL     1       3.021  -2.150  -0.021  0.00  0.00    +0.243 C 
ATOM     16  O   UNL     1       3.738  -3.128   0.014  0.00  0.00    -0.273 OA
ATOM     17  N   UNL     1       3.417  -0.864  -0.064  0.00  0.00    -0.283 N 
ATOM     18  H   UNL     1       4.346  -0.583  -0.072  0.00  0.00    +0.155 HD
ENDROOT
BRANCH   9  19
ATOM     19  C   UNL     1      -1.533  -2.655  -1.288  0.00  0.00    -0.042 A 
ATOM     20  C   UNL     1      -1.442  -2.118  -2.558  0.00  0.00    +0.006 A 
ATOM     21  C   UNL     1      -2.488  -1.374  -3.071  0.00  0.00    +0.033 A 
ATOM     22  C   UNL     1      -3.626  -1.168  -2.313  0.00  0.00    +0.126 A 
ATOM     23  C   UNL     1      -3.717  -1.706  -1.043  0.00  0.00    +0.033 A 
ATOM     24  C   UNL     1      -2.672  -2.454  -0.532  0.00  0.00    +0.006 A 
BRANCH  22  25
ATOM     25  N   UNL     1      -4.746  -0.371  -2.861  0.00  0.00    +0.056 N 
ATOM     26  O   UNL     1      -4.666   0.100  -3.972  0.00  0.00    -0.126 OA
ATOM     27  O   UNL     1      -5.741  -0.191  -2.198  0.00  0.00    -0.126 OA
ENDBRANCH  22  25
ENDBRANCH   9  19
BRANCH   8  28
ATOM     28  C   UNL     1       1.886  -4.029  -1.618  0.00  0.00    +0.171 C 
ATOM     29  O   UNL     1       1.745  -5.129  -1.127  0.00  0.00    -0.292 OA
BRANCH  28  30
ATOM     30  C   UNL     1       2.964  -3.791  -2.591  0.00  0.00    +0.036 A 
ATOM     31  C   UNL     1       3.831  -4.828  -2.964  0.00  0.00    +0.014 A 
ATOM     32  C   UNL     1       4.827  -4.550  -3.883  0.00  0.00    +0.020 A 
ATOM     33  C   UNL     1       4.935  -3.271  -4.399  0.00  0.00    +0.111 A 
ATOM     34  N   UNL     1       4.105  -2.313  -4.030  0.00  0.00    -0.263 NA
ATOM     35  C   UNL     1       3.138  -2.527  -3.163  0.00  0.00    +0.122 A 
ENDBRANCH  28  30
ENDBRANCH   8  28
TORSDOF 4
