REMARK  Name = ZINC08635882
REMARK  9 active torsions:
REMARK  status: ('A' for Active; 'I' for Inactive)
REMARK    1  A    between atoms: C_1  and  C_2
REMARK    2  A    between atoms: C_2  and  C_4
REMARK    3  A    between atoms: C_7  and  N_10
REMARK    4  A    between atoms: C_11  and  O_13
REMARK    5  A    between atoms: O_13  and  C_14
REMARK    6  A    between atoms: C_14  and  C_15
REMARK    7  A    between atoms: C_23  and  C_25
REMARK    8  A    between atoms: C_27  and  C_31
REMARK    9  A    between atoms: N_29  and  C_30
REMARK                            x       y       z     vdW  Elec       q    Type
REMARK                         _______ _______ _______ _____ _____    ______ ____
ROOT
ATOM      1  C   UNL     1       4.097   0.872   0.047  0.00  0.00    -0.030 C 
ATOM      2  C   UNL     1       5.383   1.669  -0.191  0.00  0.00    -0.008 C 
ATOM      3  C   UNL     1       6.334   1.437   0.991  0.00  0.00    -0.007 C 
ATOM      4  C   UNL     1       6.627  -0.065   1.095  0.00  0.00    -0.015 C 
ATOM      5  C   UNL     1       5.306  -0.814   1.297  0.00  0.00    -0.078 C 
ATOM      6  C   UNL     1       4.341   1.086   2.447  0.00  0.00    -0.068 C 
ATOM      7  C   UNL     1       5.634   1.889   2.279  0.00  0.00    +0.024 C 
ATOM      8  N   UNL     1       4.174   0.136   1.327  0.00  0.00    +0.384 N 
ATOM      9  H   UNL     1       3.302  -0.389   1.462  0.00  0.00    -0.081 HD
ENDROOT
BRANCH   7  10
ATOM     10  C   UNL     1       5.308   3.358   2.190  0.00  0.00    +0.041 A 
ATOM     11  C   UNL     1       4.285   3.983   2.813  0.00  0.00    +0.053 A 
ATOM     12  C   UNL     1       4.338   5.347   2.467  0.00  0.00    +0.093 A 
ATOM     13  N   UNL     1       5.361   5.520   1.656  0.00  0.00    -0.171 NA
ATOM     14  N   UNL     1       5.983   4.279   1.470  0.00  0.00    -0.271 N 
ATOM     15  C   UNL     1       7.162   4.025   0.639  0.00  0.00    +0.172 C 
BRANCH  12  16
ATOM     16  C   UNL     1       3.403   6.403   2.930  0.00  0.00    +0.002 A 
ATOM     17  C   UNL     1       2.354   6.079   3.788  0.00  0.00    +0.013 A 
ATOM     18  C   UNL     1       1.491   7.065   4.222  0.00  0.00    +0.039 A 
ATOM     19  C   UNL     1       1.660   8.372   3.796  0.00  0.00    +0.123 A 
ATOM     20  C   UNL     1       2.698   8.697   2.938  0.00  0.00    +0.039 A 
ATOM     21  C   UNL     1       3.569   7.719   2.505  0.00  0.00    +0.013 A 
ATOM     22  F   UNL     1       0.809   9.333   4.218  0.00  0.00    -0.205 F 
ENDBRANCH  12  16
ENDBRANCH   7  10
BRANCH   1  23
ATOM     23  C   UNL     1       2.905   1.830   0.095  0.00  0.00    +0.219 C 
BRANCH  23  24
ATOM     24  O   UNL     1       1.675   1.066   0.203  0.00  0.00    -0.452 OA
BRANCH  24  26
ATOM     25  N   UNL     1      -0.653   1.116   0.357  0.00  0.00    -0.251 N 
ATOM     26  C   UNL     1       0.524   1.764   0.257  0.00  0.00    +0.404 C 
ATOM     27  O   UNL     1       0.548   2.978   0.216  0.00  0.00    -0.226 OA
ATOM     28  H   UNL     1      -0.678   0.147   0.322  0.00  0.00    +0.158 HD
BRANCH  25  32
ATOM     29  C   UNL     1      -4.179   3.270   0.797  0.00  0.00    +0.017 A 
ATOM     30  C   UNL     1      -4.025   2.036   1.441  0.00  0.00    +0.013 A 
ATOM     31  C   UNL     1      -2.864   1.331   1.294  0.00  0.00    +0.024 A 
ATOM     32  C   UNL     1      -1.835   1.838   0.504  0.00  0.00    +0.036 A 
ATOM     33  C   UNL     1      -1.982   3.067  -0.133  0.00  0.00    +0.024 A 
ATOM     34  C   UNL     1      -3.141   3.776   0.005  0.00  0.00    +0.013 A 
BRANCH  29  36
ATOM     35  C   UNL     1      -5.589   5.359   0.259  0.00  0.00    +0.091 C 
ATOM     36  C   UNL     1      -5.425   4.031   0.952  0.00  0.00    +0.160 C 
ATOM     37  O   UNL     1      -6.323   3.591   1.639  0.00  0.00    -0.292 OA
ENDBRANCH  29  36
ENDBRANCH  25  32
ENDBRANCH  24  26
ENDBRANCH  23  24
ENDBRANCH   1  23
TORSDOF 7
