REMARK  Name = ZINC17911913
REMARK  11 active torsions:
REMARK  status: ('A' for Active; 'I' for Inactive)
REMARK    1  A    between atoms: C_1  and  C_2
REMARK    2  A    between atoms: C_3  and  C_14
REMARK    3  A    between atoms: C_4  and  C_13
REMARK    4  A    between atoms: N_5  and  C_7
REMARK    5  A    between atoms: C_14  and  C_16
REMARK    6  A    between atoms: N_18  and  C_19
REMARK    7  A    between atoms: C_19  and  C_20
REMARK    8  A    between atoms: C_20  and  C_22
REMARK    9  A    between atoms: C_20  and  N_63
REMARK   10  A    between atoms: C_25  and  O_28
REMARK   11  A    between atoms: O_28  and  C_29
REMARK                            x       y       z     vdW  Elec       q    Type
REMARK                         _______ _______ _______ _____ _____    ______ ____
ROOT
ATOM      1  C   UNL     1       1.784   8.123   0.681  0.00  0.00    +0.285 C 
ATOM      2  O   UNL     1       0.639   8.195   0.284  0.00  0.00    -0.267 OA
ATOM      3  N   UNL     1       2.464   9.246   0.985  0.00  0.00    -0.310 N 
ATOM      4  H   UNL     1       3.379   9.188   1.302  0.00  0.00    +0.149 HD
ENDROOT
BRANCH   1   5
ATOM      5  C   UNL     1       2.438   6.790   0.832  0.00  0.00    +0.251 C 
ATOM      6  O   UNL     1       3.549   6.710   1.316  0.00  0.00    -0.282 OA
BRANCH   5   9
ATOM      7  C   UNL     1       0.355   5.125   2.557  0.00  0.00    +0.068 C 
ATOM      8  C   UNL     1       0.807   4.821   1.152  0.00  0.00    +0.072 A 
ATOM      9  C   UNL     1       1.738   5.574   0.396  0.00  0.00    +0.071 A 
ATOM     10  C   UNL     1       1.868   4.944  -0.832  0.00  0.00    +0.053 A 
ATOM     11  N   UNL     1       1.054   3.876  -0.822  0.00  0.00    -0.236 N 
ATOM     12  N   UNL     1       0.410   3.818   0.419  0.00  0.00    -0.171 NA
ATOM     13  C   UNL     1       2.756   5.379  -1.970  0.00  0.00    +0.066 C 
BRANCH  11  14
ATOM     14  C   UNL     1       0.882   2.967  -1.875  0.00  0.00    +0.066 A 
ATOM     15  C   UNL     1       0.666   1.622  -1.605  0.00  0.00    +0.028 A 
ATOM     16  C   UNL     1       0.496   0.730  -2.645  0.00  0.00    +0.002 A 
ATOM     17  C   UNL     1       0.542   1.174  -3.954  0.00  0.00    +0.000 A 
ATOM     18  C   UNL     1       0.757   2.513  -4.226  0.00  0.00    +0.002 A 
ATOM     19  C   UNL     1       0.927   3.410  -3.190  0.00  0.00    +0.028 A 
ENDBRANCH  11  14
ENDBRANCH   5   9
ENDBRANCH   1   5
BRANCH   3  20
ATOM     20  C   UNL     1       1.822  10.554   0.836  0.00  0.00    +0.094 C 
BRANCH  20  21
ATOM     21  C   UNL     1       2.761  11.645   1.355  0.00  0.00    -0.020 C 
BRANCH  21  22
ATOM     22  C   UNL     1       3.986  11.710   0.480  0.00  0.00    -0.059 A 
ATOM     23  C   UNL     1       3.934  12.372  -0.733  0.00  0.00    +0.005 A 
ATOM     24  C   UNL     1       5.058  12.437  -1.534  0.00  0.00    +0.046 A 
ATOM     25  C   UNL     1       6.236  11.829  -1.126  0.00  0.00    +0.120 A 
ATOM     26  C   UNL     1       6.284  11.161   0.089  0.00  0.00    +0.046 A 
ATOM     27  C   UNL     1       5.160  11.104   0.889  0.00  0.00    +0.005 A 
BRANCH  25  28
ATOM     28  O   UNL     1       7.341  11.887  -1.915  0.00  0.00    -0.495 OA
ATOM     29  C   UNL     1       7.218  12.591  -3.153  0.00  0.00    +0.277 C 
ENDBRANCH  25  28
ENDBRANCH  21  22
BRANCH  21  34
ATOM     30  C   UNL     1       0.838  12.906   2.155  0.00  0.00    -0.078 C 
ATOM     31  C   UNL     1       0.556  14.403   2.436  0.00  0.00    -0.020 C 
ATOM     32  C   UNL     1       1.974  14.992   2.621  0.00  0.00    -0.020 C 
ATOM     33  C   UNL     1       2.916  14.006   1.905  0.00  0.00    -0.078 C 
ATOM     34  N   UNL     1       2.060  12.964   1.337  0.00  0.00    +0.385 N 
ATOM     35  H   UNL     1       1.818  13.204   0.369  0.00  0.00    -0.081 HD
ENDBRANCH  21  34
ENDBRANCH  20  21
ENDBRANCH   3  20
TORSDOF 8
