REMARK  Name = ZINC21316418
REMARK  8 active torsions:
REMARK  status: ('A' for Active; 'I' for Inactive)
REMARK    1  A    between atoms: C_3  and  C_9
REMARK    2  A    between atoms: N_10  and  N_11
REMARK    3  A    between atoms: C_15  and  S_18
REMARK    4  A    between atoms: N_16  and  N_17
REMARK    5  A    between atoms: S_18  and  C_19
REMARK    6  A    between atoms: C_19  and  C_20
REMARK    7  A    between atoms: N_22  and  C_23
REMARK    8  A    between atoms: C_26  and  N_29
REMARK                            x       y       z     vdW  Elec       q    Type
REMARK                         _______ _______ _______ _____ _____    ______ ____
ROOT
ATOM      1  N   UNL     1      -3.753   5.854   0.093  0.00  0.00    -0.204 N 
ATOM      2  C   UNL     1      -3.768   7.241   0.098  0.00  0.00    +0.254 A 
ATOM      3  N   UNL     1      -2.715   8.023   0.103  0.00  0.00    -0.109 NA
ATOM      4  N   UNL     1      -3.162   9.351   0.103  0.00  0.00    -0.119 NA
ATOM      5  C   UNL     1      -4.474   9.337   0.105  0.00  0.00    +0.210 A 
ATOM      6  N   UNL     1      -4.882   8.033   0.102  0.00  0.00    -0.211 N 
ATOM      7  H   UNL     1      -4.700   5.294   0.094  0.00  0.00    +0.177 HD
ENDROOT
BRANCH   6   8
ATOM      8  N   UNL     1      -6.177   7.598   0.104  0.00  0.00    -0.294 N 
ATOM      9  H   UNL     1      -7.002   8.325   0.108  0.00  0.00    +0.163 HD
ATOM     10  H   UNL     1      -6.394   6.519   0.101  0.00  0.00    +0.163 HD
ENDBRANCH   6   8
BRANCH   1  12
ATOM     11  C   UNL     1      -2.519   3.868   0.085  0.00  0.00    +0.139 C 
ATOM     12  N   UNL     1      -2.532   5.166   0.089  0.00  0.00    -0.187 NA
BRANCH  11  15
ATOM     13  C   UNL     1      -0.011   1.076   0.072  0.00  0.00    +0.002 A 
ATOM     14  C   UNL     1      -1.216   1.747   0.071  0.00  0.00    +0.011 A 
ATOM     15  C   UNL     1      -1.234   3.144   0.080  0.00  0.00    +0.014 A 
ATOM     16  C   UNL     1      -0.029   3.853   0.079  0.00  0.00    +0.068 A 
ATOM     17  C   UNL     1       1.170   3.167   0.075  0.00  0.00    +0.060 A 
ATOM     18  C   UNL     1       1.179   1.782   0.071  0.00  0.00    +0.021 A 
ATOM     19 CL   UNL     1       2.669   4.043   0.075  0.00  0.00    -0.082 Cl
ATOM     20 CL   UNL     1      -0.039   5.588   0.085  0.00  0.00    -0.081 Cl
ENDBRANCH  11  15
ENDBRANCH   1  12
BRANCH   5  21
ATOM     21  S   UNL     1      -5.524  10.751   0.111  0.00  0.00    -0.075 S 
BRANCH  21  22
ATOM     22  C   UNL     1      -4.373  12.153   0.113  0.00  0.00    +0.173 C 
BRANCH  22  23
ATOM     23  C   UNL     1      -5.152  13.443   0.118  0.00  0.00    +0.227 C 
ATOM     24  O   UNL     1      -6.365  13.419   0.120  0.00  0.00    -0.275 OA
ATOM     25  N   UNL     1      -4.502  14.623   0.120  0.00  0.00    -0.285 N 
ATOM     26  H   UNL     1      -3.405  14.646   0.195  0.00  0.00    +0.155 HD
BRANCH  25  27
ATOM     27  C   UNL     1      -5.222  15.819   0.027  0.00  0.00    +0.034 A 
ATOM     28  C   UNL     1      -4.690  16.900  -0.663  0.00  0.00    +0.025 A 
ATOM     29  C   UNL     1      -5.406  18.077  -0.759  0.00  0.00    +0.034 A 
ATOM     30  C   UNL     1      -6.646  18.184  -0.157  0.00  0.00    +0.126 A 
ATOM     31  C   UNL     1      -7.177  17.112   0.536  0.00  0.00    +0.034 A 
ATOM     32  C   UNL     1      -6.468  15.930   0.630  0.00  0.00    +0.025 A 
BRANCH  30  33
ATOM     33  N   UNL     1      -7.408  19.450  -0.256  0.00  0.00    +0.056 N 
ATOM     34  O   UNL     1      -8.501  19.545   0.273  0.00  0.00    -0.126 OA
ATOM     35  O   UNL     1      -6.942  20.395  -0.866  0.00  0.00    -0.126 OA
ENDBRANCH  30  33
ENDBRANCH  25  27
ENDBRANCH  22  23
ENDBRANCH  21  22
ENDBRANCH   5  21
TORSDOF 8
