REMARK  Name = ZINC15992891
REMARK  6 active torsions:
REMARK  status: ('A' for Active; 'I' for Inactive)
REMARK    1  A    between atoms: C_1  and  C_2
REMARK    2  A    between atoms: C_8  and  N_10
REMARK    3  A    between atoms: C_11  and  C_13
REMARK    4  A    between atoms: N_22  and  C_24
REMARK    5  A    between atoms: C_24  and  C_25
REMARK    6  A    between atoms: C_24  and  C_26
REMARK                            x       y       z     vdW  Elec       q    Type
REMARK                         _______ _______ _______ _____ _____    ______ ____
ROOT
ATOM      1  C   UNL     1       0.975   3.765  -4.130  0.00  0.00    +0.154 A 
ATOM      2  C   UNL     1       1.257   5.105  -4.669  0.00  0.00    +0.020 A 
ATOM      3  C   UNL     1       2.188   5.966  -4.099  0.00  0.00    +0.011 A 
ATOM      4  C   UNL     1       2.397   7.206  -4.664  0.00  0.00    +0.001 A 
ATOM      5  C   UNL     1       1.690   7.603  -5.791  0.00  0.00    +0.001 A 
ATOM      6  C   UNL     1       0.762   6.765  -6.372  0.00  0.00    +0.014 A 
ATOM      7  C   UNL     1       0.536   5.509  -5.817  0.00  0.00    +0.050 A 
ATOM      8  C   UNL     1      -0.433   4.554  -6.372  0.00  0.00    +0.275 A 
ATOM      9  O   UNL     1      -1.089   4.834  -7.358  0.00  0.00    -0.266 OA
ATOM     10  N   UNL     1      -0.579   3.359  -5.762  0.00  0.00    -0.226 N 
ATOM     11  N   UNL     1       0.086   3.009  -4.727  0.00  0.00    -0.163 NA
ENDROOT
BRANCH   1  13
ATOM     12  N   UNL     1       1.424   2.047  -2.446  0.00  0.00    -0.307 N 
ATOM     13  C   UNL     1       1.689   3.276  -2.933  0.00  0.00    +0.265 C 
ATOM     14  O   UNL     1       2.515   3.981  -2.388  0.00  0.00    -0.268 OA
ATOM     15  H   UNL     1       0.765   1.484  -2.881  0.00  0.00    +0.149 HD
BRANCH  12  22
ATOM     16  C   UNL     1       2.870  -0.461  -2.526  0.00  0.00    +0.009 C 
ATOM     17  C   UNL     1       2.154   0.032  -1.268  0.00  0.00    +0.006 C 
ATOM     18  C   UNL     1       0.718  -0.497  -1.257  0.00  0.00    +0.005 C 
ATOM     19  C   UNL     1       0.002  -0.004   0.002  0.00  0.00    +0.000 C 
ATOM     20  C   UNL     1      -0.019   1.526   0.010  0.00  0.00    +0.002 C 
ATOM     21  C   UNL     1       1.417   2.055  -0.000  0.00  0.00    +0.022 C 
ATOM     22  C   UNL     1       2.133   1.562  -1.259  0.00  0.00    +0.076 C 
ENDBRANCH  12  22
ENDBRANCH   1  13
BRANCH  10  23
ATOM     23  C   UNL     1      -1.547   2.410  -6.319  0.00  0.00    +0.105 C 
ATOM     24  C   UNL     1      -0.824   1.125  -6.725  0.00  0.00    +0.032 C 
ATOM     25  C   UNL     1      -2.608   2.088  -5.266  0.00  0.00    +0.032 C 
ENDBRANCH  10  23
TORSDOF 3
