REMARK  Name = ZINC54726376
REMARK  10 active torsions:
REMARK  status: ('A' for Active; 'I' for Inactive)
REMARK    1  A    between atoms: C_1  and  C_2
REMARK    2  A    between atoms: C_5  and  C_30
REMARK    3  A    between atoms: N_8  and  C_10
REMARK    4  A    between atoms: C_10  and  C_11
REMARK    5  A    between atoms: C_10  and  C_12
REMARK    6  A    between atoms: C_10  and  C_13
REMARK    7  A    between atoms: C_13  and  N_14
REMARK    8  A    between atoms: N_20  and  C_23
REMARK    9  A    between atoms: C_23  and  C_24
REMARK   10  A    between atoms: N_26  and  C_27
REMARK                            x       y       z     vdW  Elec       q    Type
REMARK                         _______ _______ _______ _____ _____    ______ ____
ROOT
ATOM      1  N   UNL     1       0.625  -0.479   3.560  0.00  0.00    -0.301 N 
ATOM      2  C   UNL     1      -0.331  -0.065   4.415  0.00  0.00    +0.302 C 
ATOM      3  O   UNL     1      -0.062   0.745   5.281  0.00  0.00    -0.253 OA
ATOM      4  N   UNL     1      -1.585  -0.548   4.310  0.00  0.00    -0.283 N 
ATOM      5  C   UNL     1      -1.906  -1.612   3.346  0.00  0.00    +0.124 C 
ATOM      6  C   UNL     1      -3.116  -1.169   2.517  0.00  0.00    +0.104 C 
ATOM      7  N   UNL     1      -4.213  -0.796   3.418  0.00  0.00    -0.291 NA
ATOM      8  C   UNL     1      -3.849   0.356   4.255  0.00  0.00    +0.104 C 
ATOM      9  C   UNL     1      -2.667  -0.029   5.160  0.00  0.00    +0.124 C 
ATOM     10  H   UNL     1       0.430  -1.179   2.917  0.00  0.00    +0.150 HD
ENDROOT
BRANCH   1  11
ATOM     11  C   UNL     1       1.958   0.127   3.602  0.00  0.00    +0.093 C 
BRANCH  11  12
ATOM     12  C   UNL     1       2.813  -0.444   2.468  0.00  0.00    -0.055 C 
ATOM     13  C   UNL     1       4.229   0.129   2.560  0.00  0.00    -0.008 C 
ATOM     14  C   UNL     1       2.195  -0.061   1.121  0.00  0.00    -0.008 C 
BRANCH  12  20
ATOM     15  C   UNL     1       1.969  -4.303   3.951  0.00  0.00    +0.005 C 
ATOM     16  C   UNL     1       3.409  -3.794   4.050  0.00  0.00    -0.031 C 
ATOM     17  C   UNL     1       4.252  -4.426   2.939  0.00  0.00    +0.003 C 
ATOM     18  C   UNL     1       3.707  -3.979   1.580  0.00  0.00    -0.031 C 
ATOM     19  C   UNL     1       3.712  -2.450   1.513  0.00  0.00    -0.075 C 
ATOM     20  N   UNL     1       2.867  -1.907   2.584  0.00  0.00    +0.384 N 
ATOM     21  C   UNL     1       3.425  -2.272   3.893  0.00  0.00    -0.075 C 
ATOM     22  C   UNL     1       4.589  -4.543   0.465  0.00  0.00    +0.005 C 
ATOM     23  H   UNL     1       1.935  -2.284   2.500  0.00  0.00    -0.081 HD
ENDBRANCH  12  20
ENDBRANCH  11  12
ENDBRANCH   1  11
BRANCH   7  24
ATOM     24  C   UNL     1      -5.446  -0.529   2.665  0.00  0.00    +0.180 C 
BRANCH  24  25
ATOM     25  C   UNL     1      -6.601  -0.393   3.624  0.00  0.00    +0.227 C 
ATOM     26  O   UNL     1      -6.415  -0.506   4.817  0.00  0.00    -0.274 OA
ATOM     27  N   UNL     1      -7.840  -0.145   3.155  0.00  0.00    -0.311 N 
ATOM     28  H   UNL     1      -7.989  -0.054   2.201  0.00  0.00    +0.149 HD
BRANCH  27  29
ATOM     29  C   UNL     1      -8.963  -0.012   4.087  0.00  0.00    +0.073 C 
ATOM     30  C   UNL     1     -10.273  -0.711   3.719  0.00  0.00    +0.024 C 
ATOM     31  C   UNL     1     -10.167   0.813   3.629  0.00  0.00    +0.024 C 
ENDBRANCH  27  29
ENDBRANCH  24  25
ENDBRANCH   7  24
TORSDOF 6
