REMARK  Name = ZINC63506858
REMARK  8 active torsions:
REMARK  status: ('A' for Active; 'I' for Inactive)
REMARK    1  A    between atoms: C_1  and  C_2
REMARK    2  A    between atoms: C_4  and  C_13
REMARK    3  A    between atoms: C_13  and  C_14
REMARK    4  A    between atoms: C_14  and  N_15
REMARK    5  A    between atoms: C_19  and  C_23
REMARK    6  A    between atoms: C_19  and  C_24
REMARK    7  A    between atoms: C_20  and  C_21
REMARK    8  A    between atoms: C_20  and  O_22
REMARK                            x       y       z     vdW  Elec       q    Type
REMARK                         _______ _______ _______ _____ _____    ______ ____
ROOT
ATOM      1  C   UNL     1      -2.494  -0.316  -0.984  0.00  0.00    +0.052 C 
ENDROOT
BRANCH   1   4
ATOM      2  C   UNL     1      -0.019   1.526   0.010  0.00  0.00    +0.035 C 
ATOM      3  C   UNL     1       0.002  -0.004   0.002  0.00  0.00    +0.103 C 
ATOM      4  C   UNL     1      -1.410  -0.545   0.038  0.00  0.00    -0.037 C 
ATOM      5  C   UNL     1      -1.503  -1.275   1.172  0.00  0.00    +0.000 A 
ATOM      6  C   UNL     1      -2.599  -2.045   1.772  0.00  0.00    +0.025 A 
ATOM      7  C   UNL     1      -2.386  -2.686   2.945  0.00  0.00    +0.019 A 
ATOM      8  C   UNL     1      -1.147  -2.632   3.600  0.00  0.00    +0.017 A 
ATOM      9  C   UNL     1      -0.093  -1.946   3.111  0.00  0.00    +0.027 A 
ATOM     10  C   UNL     1      -0.205  -1.235   1.884  0.00  0.00    +0.043 A 
ATOM     11  N   UNL     1       0.658  -0.508   1.214  0.00  0.00    -0.378 N 
ATOM     12 BR   UNL     1      -3.796  -3.679   3.720  0.00  0.00    -0.050 Br
ATOM     13  H   UNL     1       1.576  -0.332   1.475  0.00  0.00    +0.160 HD
ENDBRANCH   1   4
BRANCH   1  14
ATOM     14  C   UNL     1      -3.765  -1.049  -0.551  0.00  0.00    +0.118 C 
BRANCH  14  15
ATOM     15  N   UNL     1      -4.819  -0.826  -1.544  0.00  0.00    -0.235 N 
ATOM     16  C   UNL     1      -5.712   0.182  -1.542  0.00  0.00    +0.406 C 
ATOM     17  O   UNL     1      -5.728   1.064  -0.706  0.00  0.00    -0.226 OA
ATOM     18  O   UNL     1      -6.581   0.110  -2.564  0.00  0.00    -0.440 OA
ATOM     19  C   UNL     1      -6.019  -0.757  -3.568  0.00  0.00    +0.155 C 
ATOM     20  C   UNL     1      -5.089  -1.663  -2.729  0.00  0.00    +0.174 C 
ATOM     21  C   UNL     1      -5.807  -2.955  -2.332  0.00  0.00    +0.068 C 
ATOM     22  C   UNL     1      -5.212   0.045  -4.592  0.00  0.00    +0.060 C 
ATOM     23  C   UNL     1      -7.111  -1.576  -4.257  0.00  0.00    +0.060 C 
BRANCH  20  24
ATOM     24  O   UNL     1      -3.881  -1.948  -3.437  0.00  0.00    -0.368 OA
ATOM     25  H   UNL     1      -3.229  -2.442  -2.920  0.00  0.00    +0.212 HD
ENDBRANCH  20  24
ENDBRANCH  14  15
ENDBRANCH   1  14
TORSDOF 4
