REMARK  Name = ZINC01245463
REMARK  10 active torsions:
REMARK  status: ('A' for Active; 'I' for Inactive)
REMARK    1  A    between atoms: C_1  and  C_2
REMARK    2  A    between atoms: C_2  and  C_8
REMARK    3  A    between atoms: N_3  and  N_4
REMARK    4  A    between atoms: C_8  and  C_9
REMARK    5  A    between atoms: C_9  and  C_10
REMARK    6  A    between atoms: C_12  and  C_26
REMARK    7  A    between atoms: C_16  and  C_24
REMARK    8  A    between atoms: C_16  and  C_25
REMARK    9  A    between atoms: C_21  and  C_22
REMARK   10  A    between atoms: C_21  and  O_23
REMARK                            x       y       z     vdW  Elec       q    Type
REMARK                         _______ _______ _______ _____ _____    ______ ____
ROOT
ATOM      1  C   UNL     1       1.066   0.648   2.176  0.00  0.00    +0.027 C 
ATOM      2  C   UNL     1       0.960   1.213   0.760  0.00  0.00    -0.023 C 
ATOM      3  C   UNL     1       1.445   2.664   0.762  0.00  0.00    +0.007 C 
ATOM      4  C   UNL     1       1.396   3.244  -0.651  0.00  0.00    +0.001 C 
ATOM      5  C   UNL     1      -0.047   3.224  -1.149  0.00  0.00    +0.007 C 
ATOM      6  C   UNL     1      -0.590   1.796  -1.184  0.00  0.00    -0.032 C 
ATOM      7  C   UNL     1      -0.435   1.104   0.165  0.00  0.00    +0.001 C 
ATOM      8  C   UNL     1      -1.450   1.684   1.158  0.00  0.00    +0.007 C 
ATOM      9  C   UNL     1      -1.435   0.843   2.436  0.00  0.00    +0.035 C 
ATOM     10  C   UNL     1      -0.080   0.943   3.119  0.00  0.00    +0.067 C 
ATOM     11  C   UNL     1       0.085   2.318   3.773  0.00  0.00    +0.041 C 
ATOM     12  C   UNL     1       0.074   1.014  -2.322  0.00  0.00    +0.011 C 
ATOM     13  C   UNL     1      -2.085   1.883  -1.563  0.00  0.00    +0.011 C 
ATOM     14  C   UNL     1       1.967   0.375  -0.060  0.00  0.00    +0.012 C 
ENDROOT
BRANCH  10  15
ATOM     15  O   UNL     1      -0.051  -0.039   4.179  0.00  0.00    -0.389 OA
ATOM     16  H   UNL     1      -0.752   0.071   4.835  0.00  0.00    +0.210 HD
ENDBRANCH  10  15
BRANCH   1  17
ATOM     17  C   UNL     1       1.279  -0.872   2.086  0.00  0.00    +0.013 C 
BRANCH  17  18
ATOM     18  C   UNL     1       0.153  -1.497   1.259  0.00  0.00    +0.052 C 
BRANCH  18  20
ATOM     19  C   UNL     1       1.026  -3.630   0.034  0.00  0.00    +0.062 C 
ATOM     20  C   UNL     1       0.336  -2.992   1.212  0.00  0.00    +0.034 C 
ATOM     21  N   UNL     1      -0.096  -3.720   2.171  0.00  0.00    -0.188 NA
BRANCH  21  22
ATOM     22  N   UNL     1      -0.773  -3.132   3.248  0.00  0.00    -0.191 N 
ATOM     23  C   UNL     1      -1.138  -3.883   4.306  0.00  0.00    +0.317 C 
ATOM     24  O   UNL     1      -1.726  -3.372   5.240  0.00  0.00    -0.251 OA
ATOM     25  N   UNL     1      -0.853  -5.200   4.328  0.00  0.00    -0.312 N 
ATOM     26  H   UNL     1      -0.978  -2.184   3.232  0.00  0.00    +0.179 HD
ATOM     27  H   UNL     1      -0.385  -5.607   3.583  0.00  0.00    +0.147 HD
ATOM     28  H   UNL     1      -1.117  -5.740   5.089  0.00  0.00    +0.147 HD
ENDBRANCH  21  22
ENDBRANCH  18  20
ENDBRANCH  17  18
ENDBRANCH   1  17
TORSDOF 5
