REMARK  Name = ZINC12151204
REMARK  10 active torsions:
REMARK  status: ('A' for Active; 'I' for Inactive)
REMARK    1  A    between atoms: C_1  and  C_2
REMARK    2  A    between atoms: C_2  and  C_3
REMARK    3  A    between atoms: C_2  and  C_4
REMARK    4  A    between atoms: C_4  and  N_63
REMARK    5  A    between atoms: C_6  and  S_25
REMARK    6  A    between atoms: C_9  and  C_11
REMARK    7  A    between atoms: N_13  and  C_14
REMARK    8  A    between atoms: N_13  and  C_15
REMARK    9  A    between atoms: C_15  and  C_16
REMARK   10  A    between atoms: S_25  and  C_26
REMARK                            x       y       z     vdW  Elec       q    Type
REMARK                         _______ _______ _______ _____ _____    ______ ____
ROOT
ATOM      1  C   UNL     1      -1.012  -2.385  -1.348  0.00  0.00    -0.063 C 
ATOM      2  C   UNL     1      -1.224  -3.677  -0.538  0.00  0.00    +0.037 C 
ATOM      3  C   UNL     1       0.167  -4.020   0.046  0.00  0.00    +0.006 C 
ATOM      4  C   UNL     1       0.901  -2.656   0.015  0.00  0.00    +0.020 C 
ATOM      5  N   UNL     1       0.416  -2.065  -1.238  0.00  0.00    +0.388 N 
ATOM      6  H   UNL     1       0.925  -2.470  -2.031  0.00  0.00    -0.081 HD
ENDROOT
BRANCH   4   7
ATOM      7  C   UNL     1       2.394  -2.857  -0.022  0.00  0.00    +0.202 C 
ATOM      8  O   UNL     1       3.026  -2.525  -1.002  0.00  0.00    -0.277 OA
ATOM      9  N   UNL     1       3.027  -3.404   1.035  0.00  0.00    -0.301 N 
ATOM     10  C   UNL     1       2.263  -3.805   2.219  0.00  0.00    +0.132 C 
BRANCH   9  11
ATOM     11  C   UNL     1       4.478  -3.599   0.999  0.00  0.00    +0.149 C 
BRANCH  11  12
ATOM     12  C   UNL     1       5.163  -2.373   1.545  0.00  0.00    +0.008 A 
ATOM     13  C   UNL     1       5.504  -2.109   2.814  0.00  0.00    +0.021 A 
ATOM     14  C   UNL     1       6.170  -0.853   3.127  0.00  0.00    -0.011 A 
ATOM     15  C   UNL     1       6.618  -0.376   4.381  0.00  0.00    +0.009 A 
ATOM     16  C   UNL     1       7.221   0.838   4.488  0.00  0.00    +0.001 A 
ATOM     17  C   UNL     1       7.420   1.650   3.380  0.00  0.00    +0.001 A 
ATOM     18  C   UNL     1       6.997   1.221   2.138  0.00  0.00    +0.015 A 
ATOM     19  C   UNL     1       6.384  -0.008   2.016  0.00  0.00    +0.020 A 
ATOM     20  S   UNL     1       5.707  -0.926   0.657  0.00  0.00    -0.092 S 
ENDBRANCH  11  12
ENDBRANCH   9  11
ENDBRANCH   4   7
BRANCH   5  21
ATOM     21  C   UNL     1       0.616  -0.585  -1.232  0.00  0.00    -0.075 C 
BRANCH  21  23
ATOM     22  C   UNL     1      -1.103  -0.320   0.562  0.00  0.00    +0.005 C 
ATOM     23  C   UNL     1       0.353  -0.052   0.178  0.00  0.00    -0.034 C 
ATOM     24  C   UNL     1       0.621   1.454   0.213  0.00  0.00    +0.005 C 
ENDBRANCH  21  23
ENDBRANCH   5  21
BRANCH   2  25
ATOM     25  S   UNL     1      -1.797  -5.010  -1.620  0.00  0.00    -0.086 S 
BRANCH  25  26
ATOM     26  C   UNL     1      -3.381  -4.382  -2.066  0.00  0.00    +0.167 A 
ATOM     27  N   UNL     1      -4.270  -5.009  -2.893  0.00  0.00    -0.333 N 
ATOM     28  H   UNL     1      -4.138  -5.891  -3.346  0.00  0.00    +0.168 HD
ATOM     29  C   UNL     1      -5.387  -4.195  -2.989  0.00  0.00    +0.067 A 
ATOM     30  C   UNL     1      -6.592  -4.292  -3.667  0.00  0.00    +0.028 A 
ATOM     31  C   UNL     1      -7.527  -3.284  -3.553  0.00  0.00    +0.002 A 
ATOM     32  C   UNL     1      -7.270  -2.172  -2.765  0.00  0.00    +0.002 A 
ATOM     33  C   UNL     1      -6.078  -2.059  -2.085  0.00  0.00    +0.030 A 
ATOM     34  C   UNL     1      -5.121  -3.071  -2.189  0.00  0.00    +0.090 A 
ATOM     35  N   UNL     1      -3.886  -3.247  -1.649  0.00  0.00    -0.222 NA
ENDBRANCH  25  26
ENDBRANCH   2  25
TORSDOF 7
