REMARK  Name = ZINC09580780
REMARK  9 active torsions:
REMARK  status: ('A' for Active; 'I' for Inactive)
REMARK    1  A    between atoms: C_1  and  C_2
REMARK    2  A    between atoms: C_5  and  C_9
REMARK    3  A    between atoms: C_7  and  C_8
REMARK    4  A    between atoms: C_9  and  C_32
REMARK    5  A    between atoms: N_12  and  C_16
REMARK    6  A    between atoms: C_16  and  C_17
REMARK    7  A    between atoms: N_19  and  C_20
REMARK    8  A    between atoms: C_20  and  C_21
REMARK    9  A    between atoms: C_21  and  C_22
REMARK                            x       y       z     vdW  Elec       q    Type
REMARK                         _______ _______ _______ _____ _____    ______ ____
ROOT
ATOM      1  C   UNL     1      -4.220   2.464   2.342  0.00  0.00    +0.164 C 
ATOM      2  C   UNL     1      -3.851   1.142   2.986  0.00  0.00    +0.256 C 
ATOM      3  O   UNL     1      -2.953   0.936   3.774  0.00  0.00    -0.272 OA
ATOM      4  N   UNL     1      -4.732   0.243   2.495  0.00  0.00    -0.215 N 
ATOM      5  C   UNL     1      -5.596   0.810   1.645  0.00  0.00    +0.310 C 
ATOM      6  O   UNL     1      -6.482   0.203   1.078  0.00  0.00    -0.252 OA
ATOM      7  N   UNL     1      -5.372   2.127   1.488  0.00  0.00    -0.278 N 
ATOM      8  H   UNL     1      -5.872   2.737   0.924  0.00  0.00    +0.152 HD
ENDROOT
BRANCH   1  13
ATOM      9  C   UNL     1       0.163   4.460  -0.852  0.00  0.00    +0.044 C 
ATOM     10  C   UNL     1      -0.980   3.940  -0.019  0.00  0.00    -0.048 A 
ATOM     11  C   UNL     1      -2.240   3.817  -0.574  0.00  0.00    +0.004 A 
ATOM     12  C   UNL     1      -3.289   3.340   0.190  0.00  0.00    +0.007 A 
ATOM     13  C   UNL     1      -3.077   2.985   1.509  0.00  0.00    -0.010 A 
ATOM     14  C   UNL     1      -1.816   3.104   2.063  0.00  0.00    +0.010 A 
ATOM     15  C   UNL     1      -0.769   3.586   1.300  0.00  0.00    -0.047 A 
ATOM     16  C   UNL     1       0.605   3.720   1.905  0.00  0.00    +0.044 C 
ENDBRANCH   1  13
BRANCH   1  17
ATOM     17  C   UNL     1      -4.613   3.473   3.390  0.00  0.00    -0.011 A 
ATOM     18  C   UNL     1      -3.821   3.651   4.509  0.00  0.00    +0.006 A 
ATOM     19  C   UNL     1      -4.179   4.580   5.468  0.00  0.00    +0.000 A 
ATOM     20  C   UNL     1      -5.335   5.323   5.314  0.00  0.00    +0.000 A 
ATOM     21  C   UNL     1      -6.129   5.140   4.197  0.00  0.00    +0.000 A 
ATOM     22  C   UNL     1      -5.768   4.215   3.236  0.00  0.00    +0.006 A 
ENDBRANCH   1  17
BRANCH   4  23
ATOM     23  C   UNL     1      -4.742  -1.178   2.852  0.00  0.00    +0.213 C 
BRANCH  23  24
ATOM     24  C   UNL     1      -3.865  -1.942   1.895  0.00  0.00    +0.231 C 
ATOM     25  O   UNL     1      -3.288  -1.358   1.002  0.00  0.00    -0.274 OA
ATOM     26  N   UNL     1      -3.721  -3.276   2.031  0.00  0.00    -0.314 N 
ATOM     27  H   UNL     1      -4.182  -3.743   2.744  0.00  0.00    +0.149 HD
BRANCH  26  28
ATOM     28  C   UNL     1      -2.868  -4.019   1.100  0.00  0.00    +0.109 C 
BRANCH  28  29
ATOM     29  C   UNL     1      -2.878  -5.503   1.473  0.00  0.00    +0.056 C 
BRANCH  29  30
ATOM     30  C   UNL     1      -2.000  -6.267   0.515  0.00  0.00    -0.021 A 
ATOM     31  C   UNL     1      -2.399  -6.908  -0.595  0.00  0.00    +0.087 A 
ATOM     32  N   UNL     1      -1.323  -7.488  -1.210  0.00  0.00    -0.360 N 
ATOM     33  H   UNL     1      -1.362  -8.006  -2.030  0.00  0.00    +0.165 HD
ATOM     34  C   UNL     1      -0.177  -7.227  -0.493  0.00  0.00    +0.047 A 
ATOM     35  C   UNL     1      -0.550  -6.446   0.616  0.00  0.00    +0.003 A 
ATOM     36  C   UNL     1       0.419  -6.022   1.527  0.00  0.00    +0.010 A 
ATOM     37  C   UNL     1       1.728  -6.365   1.334  0.00  0.00    +0.001 A 
ATOM     38  C   UNL     1       2.102  -7.133   0.240  0.00  0.00    +0.002 A 
ATOM     39  C   UNL     1       1.160  -7.568  -0.668  0.00  0.00    +0.026 A 
ENDBRANCH  29  30
ENDBRANCH  28  29
ENDBRANCH  26  28
ENDBRANCH  23  24
ENDBRANCH   4  23
TORSDOF 7
