REMARK  Name = ZINC06141709
REMARK  8 active torsions:
REMARK  status: ('A' for Active; 'I' for Inactive)
REMARK    1  A    between atoms: C_1  and  C_2
REMARK    2  A    between atoms: C_2  and  C_3
REMARK    3  A    between atoms: C_7  and  C_14
REMARK    4  A    between atoms: C_14  and  S_15
REMARK    5  A    between atoms: S_15  and  C_16
REMARK    6  A    between atoms: C_18  and  C_22
REMARK    7  A    between atoms: C_25  and  O_28
REMARK    8  A    between atoms: O_28  and  C_29
REMARK                            x       y       z     vdW  Elec       q    Type
REMARK                         _______ _______ _______ _____ _____    ______ ____
ROOT
ATOM      1  S   UNL     1       0.995  -3.660  -5.853  0.00  0.00    -0.082 S 
ENDROOT
BRANCH   1   2
ATOM      2  C   UNL     1       0.183  -3.820  -7.409  0.00  0.00    +0.185 A 
ATOM      3  N   UNL     1       0.270  -2.979  -8.416  0.00  0.00    -0.201 NA
ATOM      4  C   UNL     1      -0.480  -3.419  -9.437  0.00  0.00    +0.182 A 
ATOM      5  N   UNL     1      -1.052  -4.549  -9.088  0.00  0.00    -0.152 NA
ATOM      6  H   UNL     1      -0.882  -5.601  -7.242  0.00  0.00    +0.191 HD
ATOM      7  N   UNL     1      -0.633  -4.832  -7.778  0.00  0.00    -0.253 N 
BRANCH   4   8
ATOM      8  C   UNL     1      -0.638  -2.741 -10.747  0.00  0.00    +0.021 A 
ATOM      9  C   UNL     1       0.030  -1.544 -10.998  0.00  0.00    +0.015 A 
ATOM     10  C   UNL     1      -0.118  -0.916 -12.217  0.00  0.00    +0.046 A 
ATOM     11  C   UNL     1      -0.932  -1.475 -13.193  0.00  0.00    +0.120 A 
ATOM     12  C   UNL     1      -1.598  -2.668 -12.946  0.00  0.00    +0.046 A 
ATOM     13  C   UNL     1      -1.449  -3.303 -11.731  0.00  0.00    +0.015 A 
BRANCH  11  14
ATOM     14  O   UNL     1      -1.076  -0.854 -14.393  0.00  0.00    -0.495 OA
ATOM     15  C   UNL     1      -1.928  -1.484 -15.351  0.00  0.00    +0.277 C 
ENDBRANCH  11  14
ENDBRANCH   4   8
ENDBRANCH   1   2
BRANCH   1  16
ATOM     16  C   UNL     1       1.929  -2.112  -6.003  0.00  0.00    +0.113 C 
BRANCH  16  21
ATOM     17  C   UNL     1       0.707  -0.490  -1.238  0.00  0.00    -0.044 A 
ATOM     18  C   UNL     1      -0.020  -0.717  -2.397  0.00  0.00    +0.004 A 
ATOM     19  C   UNL     1       0.602  -1.157  -3.532  0.00  0.00    +0.012 A 
ATOM     20  C   UNL     1       1.983  -1.381  -3.523  0.00  0.00    +0.022 A 
ATOM     21  C   UNL     1       2.680  -1.852  -4.723  0.00  0.00    -0.020 A 
ATOM     22  C   UNL     1       4.021  -2.049  -4.649  0.00  0.00    +0.097 A 
ATOM     23  C   UNL     1       4.701  -1.799  -3.438  0.00  0.00    +0.338 A 
ATOM     24  O   UNL     1       5.904  -1.980  -3.384  0.00  0.00    -0.245 OA
ATOM     25  O   UNL     1       4.056  -1.367  -2.343  0.00  0.00    -0.422 OA
ATOM     26  C   UNL     1       2.723  -1.152  -2.350  0.00  0.00    +0.140 A 
ATOM     27  C   UNL     1       2.070  -0.699  -1.210  0.00  0.00    +0.050 A 
BRANCH  17  29
ATOM     28  C   UNL     1      -0.019   1.526   0.010  0.00  0.00    +0.009 C 
ATOM     29  C   UNL     1       0.002  -0.004   0.002  0.00  0.00    +0.032 C 
ENDBRANCH  17  29
ENDBRANCH  16  21
ENDBRANCH   1  16
TORSDOF 6
