REMARK  Name = ZINC19891783
REMARK  8 active torsions:
REMARK  status: ('A' for Active; 'I' for Inactive)
REMARK    1  A    between atoms: C_1  and  C_2
REMARK    2  A    between atoms: C_5  and  N_8
REMARK    3  A    between atoms: N_11  and  C_14
REMARK    4  A    between atoms: C_14  and  C_15
REMARK    5  A    between atoms: C_15  and  C_17
REMARK    6  A    between atoms: C_15  and  O_33
REMARK    7  A    between atoms: C_17  and  O_18
REMARK    8  A    between atoms: O_18  and  N_19
REMARK                            x       y       z     vdW  Elec       q    Type
REMARK                         _______ _______ _______ _____ _____    ______ ____
ROOT
ATOM      1  C   UNL     1       1.073   8.055  -2.345  0.00  0.00    +0.168 C 
ENDROOT
BRANCH   1   2
ATOM      2  O   UNL     1       1.864   7.593  -3.442  0.00  0.00    -0.387 OA
ATOM      3  H   UNL     1       1.585   7.862  -4.472  0.00  0.00    +0.210 HD
ENDBRANCH   1   2
BRANCH   1   4
ATOM      4  C   UNL     1       1.674   7.544  -1.033  0.00  0.00    +0.119 C 
BRANCH   4   8
ATOM      5  N   UNL     1       1.162   3.483   0.010  0.00  0.00    -0.327 N 
ATOM      6  C   UNL     1       0.383   4.007  -1.120  0.00  0.00    +0.120 C 
ATOM      7  C   UNL     1       0.324   5.534  -1.031  0.00  0.00    +0.103 C 
ATOM      8  N   UNL     1       1.690   6.076  -1.041  0.00  0.00    -0.297 NA
ATOM      9  C   UNL     1       2.470   5.551   0.089  0.00  0.00    +0.103 C 
ATOM     10  C   UNL     1       2.529   4.024  -0.001  0.00  0.00    +0.120 C 
BRANCH   5  15
ATOM     11  C   UNL     1       1.224  -2.188  -0.021  0.00  0.00    +0.044 C 
ATOM     12  C   UNL     1       1.208  -0.681  -0.013  0.00  0.00    -0.050 A 
ATOM     13  C   UNL     1       0.002  -0.004   0.002  0.00  0.00    +0.005 A 
ATOM     14  C   UNL     1      -0.017   1.377   0.010  0.00  0.00    +0.023 A 
ATOM     15  C   UNL     1       1.178   2.086   0.002  0.00  0.00    +0.030 A 
ATOM     16  C   UNL     1       2.387   1.403  -0.012  0.00  0.00    +0.023 A 
ATOM     17  C   UNL     1       2.399   0.022  -0.020  0.00  0.00    +0.005 A 
ENDBRANCH   5  15
ENDBRANCH   4   8
ENDBRANCH   1   4
BRANCH   1  18
ATOM     18  C   UNL     1       1.057   9.585  -2.336  0.00  0.00    +0.295 C 
BRANCH  18  19
ATOM     19  O   UNL     1       0.391  10.060  -3.508  0.00  0.00    -0.391 OA
BRANCH  19  20
ATOM     20  N   UNL     1       0.321  11.472  -3.598  0.00  0.00    -0.084 NA
ATOM     21  C   UNL     1      -0.261  12.031  -4.619  0.00  0.00    +0.118 C 
ATOM     22  C   UNL     1      -0.889  11.334  -5.766  0.00  0.00    +0.012 A 
ATOM     23  C   UNL     1      -1.036   9.986  -6.077  0.00  0.00    +0.011 A 
ATOM     24  C   UNL     1      -1.679   9.614  -7.242  0.00  0.00    +0.001 A 
ATOM     25  C   UNL     1      -2.179  10.576  -8.102  0.00  0.00    +0.001 A 
ATOM     26  C   UNL     1      -2.049  11.919  -7.802  0.00  0.00    +0.009 A 
ATOM     27  C   UNL     1      -1.399  12.312  -6.636  0.00  0.00    -0.008 A 
ATOM     28  C   UNL     1      -1.101  13.650  -6.073  0.00  0.00    -0.008 A 
ATOM     29  C   UNL     1      -0.416  13.485  -4.858  0.00  0.00    +0.012 A 
ATOM     30  C   UNL     1      -0.021  14.602  -4.129  0.00  0.00    +0.011 A 
ATOM     31  C   UNL     1      -0.305  15.869  -4.601  0.00  0.00    +0.001 A 
ATOM     32  C   UNL     1      -0.980  16.033  -5.798  0.00  0.00    +0.001 A 
ATOM     33  C   UNL     1      -1.378  14.934  -6.534  0.00  0.00    +0.009 A 
ENDBRANCH  19  20
ENDBRANCH  18  19
ENDBRANCH   1  18
TORSDOF 7
