REMARK  Name = ZINC01873070
REMARK  12 active torsions:
REMARK  status: ('A' for Active; 'I' for Inactive)
REMARK    1  A    between atoms: C_1  and  C_2
REMARK    2  A    between atoms: C_2  and  N_3
REMARK    3  A    between atoms: N_3  and  C_4
REMARK    4  A    between atoms: N_3  and  C_6
REMARK    5  A    between atoms: C_4  and  C_5
REMARK    6  A    between atoms: C_9  and  C_12
REMARK    7  A    between atoms: N_13  and  N_14
REMARK    8  A    between atoms: C_15  and  C_17
REMARK    9  A    between atoms: C_17  and  S_18
REMARK   10  A    between atoms: S_18  and  C_19
REMARK   11  A    between atoms: C_22  and  C_31
REMARK   12  A    between atoms: N_23  and  C_24
REMARK                            x       y       z     vdW  Elec       q    Type
REMARK                         _______ _______ _______ _____ _____    ______ ____
ROOT
ATOM      1  S   UNL     1      11.007  -3.289   4.640  0.00  0.00    -0.076 S 
ENDROOT
BRANCH   1   2
ATOM      2  C   UNL     1      12.741  -3.508   4.418  0.00  0.00    +0.197 A 
ATOM      3  N   UNL     1      13.423  -3.270   3.320  0.00  0.00    -0.122 NA
ATOM      4  N   UNL     1      14.666  -3.537   3.505  0.00  0.00    -0.128 NA
ATOM      5  C   UNL     1      14.857  -3.963   4.732  0.00  0.00    +0.169 A 
ATOM      6  N   UNL     1      13.630  -3.952   5.359  0.00  0.00    -0.270 N 
BRANCH   6   7
ATOM      7  C   UNL     1      13.350  -4.322   6.682  0.00  0.00    +0.051 A 
ATOM      8  C   UNL     1      13.868  -3.582   7.735  0.00  0.00    +0.028 A 
ATOM      9  C   UNL     1      13.591  -3.948   9.038  0.00  0.00    +0.022 A 
ATOM     10  C   UNL     1      12.798  -5.052   9.293  0.00  0.00    +0.041 A 
ATOM     11  C   UNL     1      12.280  -5.793   8.245  0.00  0.00    +0.022 A 
ATOM     12  C   UNL     1      12.550  -5.427   6.941  0.00  0.00    +0.028 A 
ATOM     13 CL   UNL     1      12.451  -5.510  10.931  0.00  0.00    -0.084 Cl
ENDBRANCH   6   7
BRANCH   5  14
ATOM     14  C   UNL     1      16.145  -4.371   5.330  0.00  0.00    +0.020 A 
ATOM     15  C   UNL     1      16.166  -5.096   6.523  0.00  0.00    +0.013 A 
ATOM     16  C   UNL     1      17.372  -5.474   7.076  0.00  0.00    +0.021 A 
ATOM     17  C   UNL     1      18.560  -5.136   6.451  0.00  0.00    +0.041 A 
ATOM     18  C   UNL     1      18.546  -4.417   5.268  0.00  0.00    +0.021 A 
ATOM     19  C   UNL     1      17.346  -4.038   4.702  0.00  0.00    +0.013 A 
ATOM     20 CL   UNL     1      20.073  -5.615   7.153  0.00  0.00    -0.084 Cl
ENDBRANCH   5  14
ENDBRANCH   1   2
BRANCH   1  21
ATOM     21  C   UNL     1      10.431  -2.686   3.029  0.00  0.00    +0.174 C 
BRANCH  21  23
ATOM     22  N   UNL     1       8.291  -2.003   1.992  0.00  0.00    -0.206 N 
ATOM     23  C   UNL     1       8.942  -2.455   3.082  0.00  0.00    +0.242 C 
ATOM     24  O   UNL     1       8.330  -2.675   4.106  0.00  0.00    -0.273 OA
ATOM     25  H   UNL     1       8.781  -1.827   1.173  0.00  0.00    +0.177 HD
BRANCH  22  27
ATOM     26  C   UNL     1       6.281  -1.353   0.991  0.00  0.00    +0.138 C 
ATOM     27  N   UNL     1       6.908  -1.788   2.041  0.00  0.00    -0.188 NA
BRANCH  26  31
ATOM     28  C   UNL     1       2.088  -0.703   1.140  0.00  0.00    +0.030 A 
ATOM     29  C   UNL     1       2.788  -0.449  -0.035  0.00  0.00    +0.024 A 
ATOM     30  C   UNL     1       4.149  -0.659  -0.087  0.00  0.00    +0.011 A 
ATOM     31  C   UNL     1       4.825  -1.127   1.043  0.00  0.00    -0.005 A 
ATOM     32  C   UNL     1       4.118  -1.381   2.222  0.00  0.00    +0.011 A 
ATOM     33  C   UNL     1       2.759  -1.164   2.268  0.00  0.00    +0.024 A 
BRANCH  28  34
ATOM     34  N   UNL     1       0.711  -0.489   1.189  0.00  0.00    -0.330 N 
BRANCH  34  36
ATOM     35  C   UNL     1      -0.019   1.526   0.010  0.00  0.00    +0.024 C 
ATOM     36  C   UNL     1       0.002  -0.004   0.002  0.00  0.00    +0.102 C 
ENDBRANCH  34  36
BRANCH  34  37
ATOM     37  C   UNL     1      -0.028  -0.750   2.427  0.00  0.00    +0.102 C 
ATOM     38  C   UNL     1      -0.511  -2.202   2.437  0.00  0.00    +0.024 C 
ENDBRANCH  34  37
ENDBRANCH  28  34
ENDBRANCH  26  31
ENDBRANCH  22  27
ENDBRANCH  21  23
ENDBRANCH   1  21
TORSDOF 10
