REMARK  Name = ZINC12042928
REMARK  13 active torsions:
REMARK  status: ('A' for Active; 'I' for Inactive)
REMARK    1  A    between atoms: C_1  and  C_2
REMARK    2  A    between atoms: C_2  and  C_3
REMARK    3  A    between atoms: C_3  and  C_5
REMARK    4  A    between atoms: C_3  and  C_6
REMARK    5  A    between atoms: C_6  and  N_67
REMARK    6  A    between atoms: C_9  and  C_12
REMARK    7  A    between atoms: C_12  and  C_29
REMARK    8  A    between atoms: N_15  and  C_19
REMARK    9  A    between atoms: C_19  and  C_20
REMARK   10  A    between atoms: C_20  and  C_21
REMARK   11  A    between atoms: C_24  and  O_27
REMARK   12  A    between atoms: O_27  and  C_28
REMARK   13  A    between atoms: C_29  and  C_30
REMARK                            x       y       z     vdW  Elec       q    Type
REMARK                         _______ _______ _______ _____ _____    ______ ____
ROOT
ATOM      1  C   UNL     1      -0.423  -4.070   1.446  0.00  0.00    +0.115 C 
ATOM      2  C   UNL     1      -1.781  -4.603   1.861  0.00  0.00    +0.247 C 
ATOM      3  O   UNL     1      -2.325  -4.464   2.935  0.00  0.00    -0.273 OA
ATOM      4  N   UNL     1      -2.257  -5.261   0.786  0.00  0.00    -0.224 N 
ATOM      5  C   UNL     1      -1.398  -5.219  -0.239  0.00  0.00    +0.309 C 
ATOM      6  O   UNL     1      -1.606  -5.742  -1.317  0.00  0.00    -0.252 OA
ATOM      7  N   UNL     1      -0.279  -4.534   0.056  0.00  0.00    -0.285 N 
ATOM      8  H   UNL     1       0.476  -4.377  -0.532  0.00  0.00    +0.151 HD
ENDROOT
BRANCH   1  11
ATOM      9  C   UNL     1       0.964  -0.498   1.070  0.00  0.00    -0.078 C 
ATOM     10  C   UNL     1       0.970  -2.029   1.063  0.00  0.00    -0.013 C 
ATOM     11  C   UNL     1      -0.402  -2.542   1.509  0.00  0.00    +0.018 C 
ATOM     12  C   UNL     1      -1.477  -1.977   0.576  0.00  0.00    -0.013 C 
ATOM     13  C   UNL     1      -1.412  -0.448   0.598  0.00  0.00    -0.078 C 
ATOM     14  N   UNL     1      -0.075  -0.018   0.135  0.00  0.00    +0.380 N 
ATOM     15  H   UNL     1       0.101  -0.420  -0.793  0.00  0.00    -0.082 HD
BRANCH  14  16
ATOM     16  C   UNL     1      -0.025   1.455   0.038  0.00  0.00    -0.076 C 
BRANCH  16  17
ATOM     17  C   UNL     1      -0.949   1.906  -1.094  0.00  0.00    -0.031 C 
ATOM     18  C   UNL     1      -0.451   1.329  -2.421  0.00  0.00    +0.005 C 
BRANCH  17  20
ATOM     19  C   UNL     1      -1.970   3.890  -2.220  0.00  0.00    +0.004 C 
ATOM     20  C   UNL     1      -0.952   3.434  -1.172  0.00  0.00    -0.002 C 
ENDBRANCH  17  20
ENDBRANCH  16  17
ENDBRANCH  14  16
ENDBRANCH   1  11
BRANCH   1  21
ATOM     21  C   UNL     1       0.678  -4.659   2.331  0.00  0.00    +0.032 C 
ATOM     22  C   UNL     1       0.717  -6.178   2.155  0.00  0.00    +0.006 C 
ENDBRANCH   1  21
BRANCH   4  23
ATOM     23  C   UNL     1      -3.556  -5.938   0.744  0.00  0.00    +0.122 C 
BRANCH  23  24
ATOM     24  C   UNL     1      -4.627  -4.958   0.260  0.00  0.00    +0.054 C 
BRANCH  24  25
ATOM     25  C   UNL     1      -5.962  -5.655   0.217  0.00  0.00    -0.046 A 
ATOM     26  C   UNL     1      -6.367  -6.301  -0.936  0.00  0.00    +0.007 A 
ATOM     27  C   UNL     1      -7.589  -6.945  -0.976  0.00  0.00    +0.046 A 
ATOM     28  C   UNL     1      -8.414  -6.934   0.140  0.00  0.00    +0.120 A 
ATOM     29  C   UNL     1      -8.008  -6.280   1.294  0.00  0.00    +0.046 A 
ATOM     30  C   UNL     1      -6.783  -5.643   1.330  0.00  0.00    +0.007 A 
BRANCH  28  31
ATOM     31  O   UNL     1      -9.618  -7.562   0.101  0.00  0.00    -0.495 OA
ATOM     32  C   UNL     1      -9.972  -8.214  -1.120  0.00  0.00    +0.277 C 
ENDBRANCH  28  31
ENDBRANCH  24  25
ENDBRANCH  23  24
ENDBRANCH   4  23
TORSDOF 9
