REMARK  Name = ZINC63489535
REMARK  5 active torsions:
REMARK  status: ('A' for Active; 'I' for Inactive)
REMARK    1  A    between atoms: C_1  and  C_2
REMARK    2  A    between atoms: C_9  and  N_17
REMARK    3  A    between atoms: N_17  and  C_18
REMARK    4  A    between atoms: C_22  and  C_24
REMARK    5  A    between atoms: C_24  and  C_26
REMARK                            x       y       z     vdW  Elec       q    Type
REMARK                         _______ _______ _______ _____ _____    ______ ____
ROOT
ATOM      1  C   UNL     1      -0.018   1.503   0.010  0.00  0.00    +0.044 C 
ATOM      2  C   UNL     1       0.002  -0.004   0.002  0.00  0.00    -0.050 A 
ATOM      3  C   UNL     1       0.005  -0.680  -1.226  0.00  0.00    +0.005 A 
ATOM      4  C   UNL     1       0.027  -2.026  -1.316  0.00  0.00    +0.026 A 
ATOM      5  C   UNL     1       0.047  -2.826  -0.142  0.00  0.00    +0.043 A 
ATOM      6  N   UNL     1       0.047  -4.130   0.027  0.00  0.00    -0.376 N 
ATOM      7  C   UNL     1       0.155  -4.412   1.456  0.00  0.00    +0.126 C 
ATOM      8  C   UNL     1      -0.996  -5.284   1.964  0.00  0.00    +0.097 C 
ATOM      9  C   UNL     1      -0.963  -5.289   3.495  0.00  0.00    +0.025 C 
ATOM     10  C   UNL     1      -1.249  -3.897   4.058  0.00  0.00    +0.006 C 
ATOM     11  C   UNL     1      -0.137  -2.922   3.636  0.00  0.00    +0.033 C 
ATOM     12  C   UNL     1       0.045  -3.061   2.143  0.00  0.00    -0.037 C 
ATOM     13  C   UNL     1       0.036  -2.137   1.172  0.00  0.00    -0.001 A 
ATOM     14  C   UNL     1       0.022  -0.668   1.179  0.00  0.00    +0.013 A 
ATOM     15  H   UNL     1      -0.015  -4.793  -0.678  0.00  0.00    +0.160 HD
ENDROOT
BRANCH   8  16
ATOM     16  N   UNL     1      -0.837  -6.650   1.460  0.00  0.00    -0.339 N 
ATOM     17  H   UNL     1       0.043  -6.979   1.219  0.00  0.00    +0.146 HD
BRANCH  16  18
ATOM     18  C   UNL     1      -1.954  -7.479   1.326  0.00  0.00    +0.028 A 
ATOM     19  C   UNL     1      -3.216  -7.005   1.666  0.00  0.00    +0.023 A 
ATOM     20  C   UNL     1      -4.325  -7.821   1.536  0.00  0.00    +0.002 A 
ATOM     21  C   UNL     1      -4.188  -9.111   1.069  0.00  0.00    +0.011 A 
ATOM     22  C   UNL     1      -2.923  -9.599   0.723  0.00  0.00    +0.019 A 
ATOM     23  C   UNL     1      -1.803  -8.772   0.850  0.00  0.00    +0.034 A 
BRANCH  22  24
ATOM     24  C   UNL     1      -2.773 -10.975   0.223  0.00  0.00    +0.160 C 
ATOM     25  O   UNL     1      -1.675 -11.395  -0.075  0.00  0.00    -0.292 OA
ATOM     26  C   UNL     1      -3.983 -11.862   0.083  0.00  0.00    +0.091 C 
ENDBRANCH  22  24
ENDBRANCH  16  18
ENDBRANCH   8  16
TORSDOF 3
