REMARK  Name = ZINC36684887
REMARK  11 active torsions:
REMARK  status: ('A' for Active; 'I' for Inactive)
REMARK    1  A    between atoms: C_1  and  C_2
REMARK    2  A    between atoms: C_2  and  C_3
REMARK    3  A    between atoms: C_3  and  C_5
REMARK    4  A    between atoms: C_3  and  C_6
REMARK    5  A    between atoms: C_6  and  C_8
REMARK    6  A    between atoms: C_6  and  N_24
REMARK    7  A    between atoms: N_10  and  C_11
REMARK    8  A    between atoms: C_11  and  C_12
REMARK    9  A    between atoms: C_12  and  C_14
REMARK   10  A    between atoms: C_12  and  N_19
REMARK   11  A    between atoms: C_25  and  C_27
REMARK                            x       y       z     vdW  Elec       q    Type
REMARK                         _______ _______ _______ _____ _____    ______ ____
ROOT
ATOM      1  C   UNL     1      -0.718  -2.523   1.471  0.00  0.00    +0.234 C 
ATOM      2  O   UNL     1      -1.121  -3.357   0.687  0.00  0.00    -0.274 OA
ATOM      3  N   UNL     1      -1.533  -2.062   2.440  0.00  0.00    -0.315 N 
ATOM      4  H   UNL     1      -1.211  -1.395   3.067  0.00  0.00    +0.149 HD
ENDROOT
BRANCH   1   5
ATOM      5  C   UNL     1       0.692  -2.004   1.361  0.00  0.00    +0.162 C 
BRANCH   5   6
ATOM      6  N   UNL     1       1.366  -2.657   0.236  0.00  0.00    -0.300 N 
ATOM      7  C   UNL     1       2.710  -2.762   0.225  0.00  0.00    +0.245 C 
ATOM      8  O   UNL     1       3.362  -2.315   1.148  0.00  0.00    -0.270 OA
ATOM      9  H   UNL     1       0.846  -3.013  -0.501  0.00  0.00    +0.150 HD
BRANCH   7  10
ATOM     10  C   UNL     1       3.390  -3.421  -0.911  0.00  0.00    +0.037 A 
ATOM     11  C   UNL     1       2.645  -3.930  -1.975  0.00  0.00    +0.013 A 
ATOM     12  C   UNL     1       3.286  -4.543  -3.032  0.00  0.00    +0.001 A 
ATOM     13  C   UNL     1       4.665  -4.655  -3.037  0.00  0.00    +0.000 A 
ATOM     14  C   UNL     1       5.410  -4.153  -1.985  0.00  0.00    +0.001 A 
ATOM     15  C   UNL     1       4.782  -3.532  -0.925  0.00  0.00    +0.013 A 
ENDBRANCH   7  10
ENDBRANCH   5   6
BRANCH   5  16
ATOM     16  C   UNL     1       0.662  -0.492   1.129  0.00  0.00    +0.015 C 
ATOM     17  C   UNL     1       2.094   0.035   1.017  0.00  0.00    +0.010 C 
BRANCH  16  19
ATOM     18  C   UNL     1      -0.234   1.326  -0.333  0.00  0.00    +0.004 C 
ATOM     19  C   UNL     1      -0.096  -0.189  -0.165  0.00  0.00    +0.002 C 
ENDBRANCH  16  19
ENDBRANCH   5  16
ENDBRANCH   1   5
BRANCH   3  20
ATOM     20  C   UNL     1      -2.904  -2.567   2.547  0.00  0.00    +0.094 C 
BRANCH  20  21
ATOM     21  C   UNL     1      -3.573  -1.965   3.785  0.00  0.00    -0.013 C 
BRANCH  21  22
ATOM     22  N   UNL     1      -4.899  -2.571   3.967  0.00  0.00    +0.386 N 
ATOM     23  C   UNL     1      -4.767  -4.030   4.212  0.00  0.00    -0.078 C 
ATOM     24  C   UNL     1      -6.097  -4.392   4.919  0.00  0.00    -0.020 C 
ATOM     25  C   UNL     1      -6.359  -3.160   5.815  0.00  0.00    -0.020 C 
ATOM     26  C   UNL     1      -5.552  -2.017   5.173  0.00  0.00    -0.078 C 
ATOM     27  H   UNL     1      -5.473  -2.404   3.153  0.00  0.00    -0.081 HD
ENDBRANCH  21  22
BRANCH  21  28
ATOM     28  C   UNL     1      -3.721  -0.477   3.603  0.00  0.00    -0.022 A 
ATOM     29  C   UNL     1      -2.950   0.524   4.093  0.00  0.00    +0.009 A 
ATOM     30  C   UNL     1      -3.278   1.833   3.792  0.00  0.00    +0.008 A 
ATOM     31  C   UNL     1      -4.363   2.076   3.016  0.00  0.00    +0.045 A 
ATOM     32  S   UNL     1      -4.954   0.426   2.679  0.00  0.00    -0.103 S 
ENDBRANCH  21  28
ENDBRANCH  20  21
ENDBRANCH   3  20
TORSDOF 9
