REMARK  Name = ZINC56750809
REMARK  10 active torsions:
REMARK  status: ('A' for Active; 'I' for Inactive)
REMARK    1  A    between atoms: C_1  and  C_2
REMARK    2  A    between atoms: C_2  and  C_3
REMARK    3  A    between atoms: C_2  and  C_4
REMARK    4  A    between atoms: C_2  and  C_5
REMARK    5  A    between atoms: C_11  and  N_13
REMARK    6  A    between atoms: C_14  and  C_16
REMARK    7  A    between atoms: C_16  and  C_17
REMARK    8  A    between atoms: C_17  and  S_18
REMARK    9  A    between atoms: S_18  and  C_19
REMARK   10  A    between atoms: N_23  and  C_24
REMARK                            x       y       z     vdW  Elec       q    Type
REMARK                         _______ _______ _______ _____ _____    ______ ____
ROOT
ATOM      1  N   UNL     1       2.163   1.387  -1.333  0.00  0.00    -0.312 N 
ATOM      2  C   UNL     1       3.323   1.978  -0.984  0.00  0.00    +0.214 C 
ATOM      3  O   UNL     1       4.293   1.300  -0.719  0.00  0.00    -0.276 OA
ATOM      4  H   UNL     1       1.387   1.930  -1.546  0.00  0.00    +0.149 HD
ENDROOT
BRANCH   1  10
ATOM      5  C   UNL     1       0.643  -0.511  -1.073  0.00  0.00    +0.015 C 
ATOM      6  C   UNL     1       0.550  -2.037  -1.135  0.00  0.00    +0.006 C 
ATOM      7  C   UNL     1       0.927  -2.514  -2.539  0.00  0.00    +0.000 C 
ATOM      8  C   UNL     1       2.358  -2.077  -2.859  0.00  0.00    +0.002 C 
ATOM      9  C   UNL     1       2.451  -0.551  -2.797  0.00  0.00    +0.022 C 
ATOM     10  C   UNL     1       2.074  -0.074  -1.393  0.00  0.00    +0.077 C 
BRANCH   5  12
ATOM     11  C   UNL     1       0.195   1.495   0.348  0.00  0.00    +0.011 C 
ATOM     12  C   UNL     1       0.265  -0.034   0.331  0.00  0.00    -0.033 C 
ATOM     13  C   UNL     1       1.322  -0.507   1.331  0.00  0.00    +0.011 C 
ATOM     14  C   UNL     1      -1.098  -0.611   0.717  0.00  0.00    +0.011 C 
ENDBRANCH   5  12
ENDBRANCH   1  10
BRANCH   2  15
ATOM     15  C   UNL     1       3.414   3.481  -0.923  0.00  0.00    +0.107 C 
BRANCH  15  16
ATOM     16  C   UNL     1       4.828   3.889  -0.504  0.00  0.00    +0.086 C 
BRANCH  16  17
ATOM     17  S   UNL     1       4.938   5.699  -0.431  0.00  0.00    -0.084 S 
BRANCH  17  18
ATOM     18  C   UNL     1       6.603   6.005   0.058  0.00  0.00    +0.209 A 
ATOM     19  N   UNL     1       7.526   5.099   0.298  0.00  0.00    -0.102 NA
ATOM     20  N   UNL     1       8.632   5.661   0.633  0.00  0.00    -0.022 NA
ATOM     21  N   UNL     1       8.501   6.943   0.632  0.00  0.00    -0.043 NA
ATOM     22  N   UNL     1       7.175   7.217   0.252  0.00  0.00    -0.223 N 
ATOM     23  C   UNL     1       6.546   8.531   0.100  0.00  0.00    +0.177 C 
ENDBRANCH  17  18
ENDBRANCH  16  17
ENDBRANCH  15  16
ENDBRANCH   2  15
TORSDOF 6
