REMARK  Name = ZINC23541932
REMARK  6 active torsions:
REMARK  status: ('A' for Active; 'I' for Inactive)
REMARK    1  A    between atoms: C_1  and  C_2
REMARK    2  A    between atoms: C_2  and  C_4
REMARK    3  A    between atoms: C_2  and  C_14
REMARK    4  A    between atoms: C_4  and  C_5
REMARK    5  A    between atoms: N_20  and  C_23
REMARK    6  A    between atoms: C_23  and  C_24
REMARK                            x       y       z     vdW  Elec       q    Type
REMARK                         _______ _______ _______ _____ _____    ______ ____
ROOT
ATOM      1  C   UNL     1       5.328   3.328  -1.475  0.00  0.00    +0.113 A 
ATOM      2  N   UNL     1       6.607   2.883  -1.357  0.00  0.00    -0.339 N 
ATOM      3  H   UNL     1       6.806   1.807  -1.242  0.00  0.00    +0.167 HD
ATOM      4  C   UNL     1       7.430   3.994  -1.414  0.00  0.00    +0.105 A 
ATOM      5  C   UNL     1       8.745   4.475  -1.382  0.00  0.00    +0.162 A 
ATOM      6  N   UNL     1       8.719   5.775  -1.500  0.00  0.00    -0.175 NA
ATOM      7  N   UNL     1       7.389   6.199  -1.615  0.00  0.00    -0.238 N 
ATOM      8  C   UNL     1       6.588   5.090  -1.561  0.00  0.00    +0.177 A 
ATOM      9  N   UNL     1       5.326   4.626  -1.592  0.00  0.00    -0.213 NA
ENDROOT
BRANCH   1  11
ATOM     10  C   UNL     1       4.413   1.127  -2.161  0.00  0.00    +0.016 C 
ATOM     11  C   UNL     1       4.100   2.454  -1.466  0.00  0.00    +0.056 C 
BRANCH  11  12
ATOM     12  C   UNL     1       3.676   2.186  -0.021  0.00  0.00    +0.046 C 
BRANCH  12  13
ATOM     13  C   UNL     1       2.380   1.416  -0.013  0.00  0.00    -0.043 A 
ATOM     14  C   UNL     1       2.399   0.034  -0.021  0.00  0.00    +0.007 A 
ATOM     15  C   UNL     1       1.213  -0.677  -0.013  0.00  0.00    +0.050 A 
ATOM     16  C   UNL     1       0.002  -0.004   0.002  0.00  0.00    +0.166 A 
ATOM     17  C   UNL     1      -0.017   1.389   0.010  0.00  0.00    +0.166 A 
ATOM     18  C   UNL     1       1.176   2.094   0.002  0.00  0.00    +0.053 A 
ATOM     19  O   UNL     1      -1.316   1.807   0.019  0.00  0.00    -0.453 OA
ATOM     20  C   UNL     1      -2.092   0.666  -0.387  0.00  0.00    +0.466 C 
ATOM     21  O   UNL     1      -1.285  -0.458   0.012  0.00  0.00    -0.453 OA
ENDBRANCH  12  13
ENDBRANCH  11  12
ENDBRANCH   1  11
BRANCH   7  22
ATOM     22  C   UNL     1       6.935   7.583  -1.765  0.00  0.00    +0.220 C 
BRANCH  22  23
ATOM     23  C   UNL     1       6.698   8.185  -0.404  0.00  0.00    +0.126 A 
ATOM     24  C   UNL     1       7.611   8.837   0.337  0.00  0.00    +0.046 A 
ATOM     25  C   UNL     1       6.964   9.231   1.531  0.00  0.00    +0.041 A 
ATOM     26  C   UNL     1       5.696   8.789   1.451  0.00  0.00    +0.195 A 
ATOM     27  O   UNL     1       5.540   8.156   0.277  0.00  0.00    -0.466 OA
ENDBRANCH  22  23
ENDBRANCH   7  22
TORSDOF 5
