REMARK  Name = ZINC13498684
REMARK  14 active torsions:
REMARK  status: ('A' for Active; 'I' for Inactive)
REMARK    1  A    between atoms: C_1  and  C_2
REMARK    2  A    between atoms: C_2  and  C_3
REMARK    3  A    between atoms: C_2  and  C_4
REMARK    4  A    between atoms: C_4  and  C_6
REMARK    5  A    between atoms: C_4  and  N_19
REMARK    6  A    between atoms: N_10  and  C_11
REMARK    7  A    between atoms: C_11  and  C_12
REMARK    8  A    between atoms: C_12  and  C_13
REMARK    9  A    between atoms: N_19  and  C_20
REMARK   10  A    between atoms: N_19  and  C_26
REMARK   11  A    between atoms: C_20  and  C_21
REMARK   12  A    between atoms: C_26  and  C_27
REMARK   13  A    between atoms: C_31  and  O_39
REMARK   14  A    between atoms: O_39  and  C_40
REMARK                            x       y       z     vdW  Elec       q    Type
REMARK                         _______ _______ _______ _____ _____    ______ ____
ROOT
ATOM      1  N   UNL     1      -1.245  -2.200   0.349  0.00  0.00    -0.283 NA
ENDROOT
BRANCH   1   2
ATOM      2  C   UNL     1      -1.236  -0.871  -0.276  0.00  0.00    +0.130 C 
BRANCH   2   3
ATOM      3  C   UNL     1      -1.834  -0.961  -1.657  0.00  0.00    +0.169 A 
ATOM      4  N   UNL     1      -1.482  -1.789  -2.610  0.00  0.00    -0.112 NA
ATOM      5  N   UNL     1      -2.226  -1.555  -3.635  0.00  0.00    -0.023 NA
ATOM      6  N   UNL     1      -3.044  -0.600  -3.361  0.00  0.00    -0.044 NA
ATOM      7  N   UNL     1      -2.837  -0.210  -2.148  0.00  0.00    -0.227 N 
BRANCH   7   8
ATOM      8  C   UNL     1      -3.556   0.853  -1.441  0.00  0.00    +0.152 C 
BRANCH   8   9
ATOM      9  C   UNL     1      -2.953   2.209  -1.810  0.00  0.00    +0.058 C 
BRANCH   9  10
ATOM     10  C   UNL     1      -3.617   3.292  -0.998  0.00  0.00    -0.046 A 
ATOM     11  C   UNL     1      -4.751   3.919  -1.480  0.00  0.00    +0.004 A 
ATOM     12  C   UNL     1      -5.361   4.912  -0.735  0.00  0.00    +0.000 A 
ATOM     13  C   UNL     1      -4.837   5.277   0.490  0.00  0.00    +0.000 A 
ATOM     14  C   UNL     1      -3.703   4.649   0.972  0.00  0.00    +0.000 A 
ATOM     15  C   UNL     1      -3.096   3.653   0.230  0.00  0.00    +0.004 A 
ENDBRANCH   9  10
ENDBRANCH   8   9
ENDBRANCH   7   8
ENDBRANCH   2   3
BRANCH   2  17
ATOM     16  C   UNL     1       0.881  -0.990  -1.597  0.00  0.00    +0.009 C 
ATOM     17  C   UNL     1       0.204  -0.364  -0.376  0.00  0.00    +0.008 C 
ATOM     18  C   UNL     1       0.199   1.159  -0.520  0.00  0.00    +0.009 C 
ENDBRANCH   2  17
ENDBRANCH   1   2
BRANCH   1  19
ATOM     19  C   UNL     1      -0.303  -3.104  -0.324  0.00  0.00    +0.128 C 
BRANCH  19  20
ATOM     20  C   UNL     1      -0.626  -4.530   0.043  0.00  0.00    +0.004 A 
ATOM     21  C   UNL     1      -1.388  -5.431  -0.624  0.00  0.00    +0.012 A 
ATOM     22  C   UNL     1      -1.547  -6.698  -0.093  0.00  0.00    +0.008 A 
ATOM     23  C   UNL     1      -0.936  -7.001   1.078  0.00  0.00    +0.045 A 
ATOM     24  S   UNL     1      -0.098  -5.473   1.464  0.00  0.00    -0.100 S 
ENDBRANCH  19  20
ENDBRANCH   1  19
BRANCH   1  25
ATOM     25  C   UNL     1      -0.952  -2.109   1.785  0.00  0.00    +0.126 C 
BRANCH  25  26
ATOM     26  C   UNL     1      -2.170  -1.604   2.515  0.00  0.00    +0.031 A 
ATOM     27  C   UNL     1      -3.048  -2.486   3.054  0.00  0.00    +0.020 A 
ATOM     28  C   UNL     1      -4.222  -1.965   3.757  0.00  0.00    +0.002 A 
ATOM     29  C   UNL     1      -5.160  -2.827   4.334  0.00  0.00    +0.055 A 
ATOM     30  C   UNL     1      -6.255  -2.302   4.990  0.00  0.00    +0.121 A 
ATOM     31  C   UNL     1      -6.427  -0.922   5.078  0.00  0.00    +0.047 A 
ATOM     32  C   UNL     1      -5.510  -0.063   4.515  0.00  0.00    +0.030 A 
ATOM     33  C   UNL     1      -4.399  -0.572   3.849  0.00  0.00    +0.049 A 
ATOM     34  N   UNL     1      -3.468   0.273   3.279  0.00  0.00    -0.322 N 
ATOM     35  H   UNL     1      -3.591   1.233   3.343  0.00  0.00    +0.169 HD
ATOM     36  C   UNL     1      -2.391  -0.216   2.640  0.00  0.00    +0.254 A 
ATOM     37  O   UNL     1      -1.587   0.559   2.152  0.00  0.00    -0.268 OA
BRANCH  30  38
ATOM     38  O   UNL     1      -7.171  -3.135   5.551  0.00  0.00    -0.495 OA
ATOM     39  C   UNL     1      -8.281  -2.526   6.215  0.00  0.00    +0.277 C 
ENDBRANCH  30  38
ENDBRANCH  25  26
ENDBRANCH   1  25
TORSDOF 11
