REMARK  Name = ZINC36782662
REMARK  7 active torsions:
REMARK  status: ('A' for Active; 'I' for Inactive)
REMARK    1  A    between atoms: C_3  and  C_18
REMARK    2  A    between atoms: C_5  and  S_7
REMARK    3  A    between atoms: S_7  and  N_10
REMARK    4  A    between atoms: N_10  and  C_11
REMARK    5  A    between atoms: C_11  and  C_12
REMARK    6  A    between atoms: N_14  and  C_15
REMARK    7  A    between atoms: C_18  and  N_20
REMARK                            x       y       z     vdW  Elec       q    Type
REMARK                         _______ _______ _______ _____ _____    ______ ____
ROOT
ATOM      1  S   UNL     1       1.218  -2.448  -0.023  0.00  0.00    +0.059 S 
ATOM      2  O   UNL     1      -0.029  -2.860  -0.564  0.00  0.00    -0.153 OA
ATOM      3  O   UNL     1       2.461  -2.843  -0.588  0.00  0.00    -0.153 OA
ENDROOT
BRANCH   1   8
ATOM      4  C   UNL     1      -0.017   1.379   0.010  0.00  0.00    +0.003 A 
ATOM      5  C   UNL     1       1.167   2.088   0.002  0.00  0.00    +0.010 A 
ATOM      6  C   UNL     1       2.385   1.407  -0.013  0.00  0.00    +0.005 A 
ATOM      7  C   UNL     1       2.397   0.010  -0.021  0.00  0.00    +0.038 A 
ATOM      8  C   UNL     1       1.206  -0.686  -0.013  0.00  0.00    +0.106 A 
ATOM      9  C   UNL     1       0.002  -0.004   0.002  0.00  0.00    +0.028 A 
BRANCH   6  10
ATOM     10  C   UNL     1       3.655   2.159  -0.022  0.00  0.00    +0.077 C 
ATOM     11  S   UNL     1       5.019   1.546   0.812  0.00  0.00    -0.035 S 
BRANCH  10  12
ATOM     12  N   UNL     1       3.742   3.328  -0.686  0.00  0.00    -0.352 N 
ATOM     13  H   UNL     1       2.969   3.676  -1.159  0.00  0.00    +0.143 HD
ATOM     14  H   UNL     1       4.577   3.822  -0.692  0.00  0.00    +0.143 HD
ENDBRANCH  10  12
ENDBRANCH   6  10
ENDBRANCH   1   8
BRANCH   1  15
ATOM     15  N   UNL     1       1.237  -2.946   1.556  0.00  0.00    -0.181 NA
ATOM     16  H   UNL     1       2.005  -3.425   1.905  0.00  0.00    +0.149 HD
BRANCH  15  17
ATOM     17  C   UNL     1       0.093  -2.663   2.427  0.00  0.00    +0.201 C 
BRANCH  17  18
ATOM     18  C   UNL     1       0.183  -3.515   3.667  0.00  0.00    +0.229 C 
ATOM     19  O   UNL     1       1.111  -4.282   3.810  0.00  0.00    -0.274 OA
ATOM     20  N   UNL     1      -0.768  -3.423   4.618  0.00  0.00    -0.311 N 
ATOM     21  H   UNL     1      -1.510  -2.809   4.504  0.00  0.00    +0.149 HD
BRANCH  20  22
ATOM     22  C   UNL     1      -0.680  -4.251   5.824  0.00  0.00    +0.073 C 
ATOM     23  C   UNL     1      -1.964  -4.926   6.312  0.00  0.00    +0.024 C 
ATOM     24  C   UNL     1      -1.381  -3.740   7.084  0.00  0.00    +0.024 C 
ENDBRANCH  20  22
ENDBRANCH  17  18
ENDBRANCH  15  17
ENDBRANCH   1  15
TORSDOF 7
