REMARK  Name = ZINC34774933
REMARK  9 active torsions:
REMARK  status: ('A' for Active; 'I' for Inactive)
REMARK    1  A    between atoms: C_1  and  C_2
REMARK    2  A    between atoms: C_2  and  C_3
REMARK    3  A    between atoms: C_3  and  N_4
REMARK    4  A    between atoms: C_12  and  C_31
REMARK    5  A    between atoms: C_17  and  S_19
REMARK    6  A    between atoms: S_19  and  C_20
REMARK    7  A    between atoms: C_20  and  C_21
REMARK    8  A    between atoms: N_23  and  C_24
REMARK    9  A    between atoms: C_27  and  C_30
REMARK                            x       y       z     vdW  Elec       q    Type
REMARK                         _______ _______ _______ _____ _____    ______ ____
ROOT
ATOM      1  N   UNL     1       1.012  -3.787   0.431  0.00  0.00    +0.382 N 
ATOM      2  C   UNL     1       1.631  -5.108   0.261  0.00  0.00    -0.060 C 
ATOM      3  C   UNL     1       1.971  -5.324  -1.218  0.00  0.00    +0.088 C 
ATOM      4  N   UNL     1       0.751  -5.118  -2.012  0.00  0.00    -0.318 N 
ATOM      5  C   UNL     1      -0.025  -3.889  -1.786  0.00  0.00    +0.088 C 
ATOM      6  C   UNL     1      -0.271  -3.740  -0.281  0.00  0.00    -0.060 C 
ATOM      7  C   UNL     1       0.343  -6.054  -2.946  0.00  0.00    +0.134 A 
ATOM      8  C   UNL     1       1.024  -6.172  -4.188  0.00  0.00    +0.055 A 
ATOM      9  C   UNL     1       2.169  -5.421  -4.695  0.00  0.00    +0.002 A 
ATOM     10  C   UNL     1       2.648  -5.717  -5.925  0.00  0.00    +0.056 A 
ATOM     11  S   UNL     1       1.583  -7.034  -6.481  0.00  0.00    -0.076 S 
ATOM     12  C   UNL     1       0.526  -7.158  -5.063  0.00  0.00    +0.115 A 
ATOM     13  N   UNL     1      -0.506  -7.913  -4.736  0.00  0.00    -0.214 NA
ATOM     14  C   UNL     1      -1.103  -7.759  -3.562  0.00  0.00    +0.191 A 
ATOM     15  N   UNL     1      -0.680  -6.852  -2.689  0.00  0.00    -0.206 NA
ATOM     16  H   UNL     1       1.628  -3.079   0.059  0.00  0.00    -0.082 HD
ENDROOT
BRANCH   9  17
ATOM     17  C   UNL     1       2.793  -4.353  -3.879  0.00  0.00    -0.017 A 
ATOM     18  C   UNL     1       2.045  -3.244  -3.487  0.00  0.00    +0.008 A 
ATOM     19  C   UNL     1       2.632  -2.253  -2.726  0.00  0.00    +0.001 A 
ATOM     20  C   UNL     1       3.959  -2.359  -2.352  0.00  0.00    +0.000 A 
ATOM     21  C   UNL     1       4.707  -3.458  -2.738  0.00  0.00    +0.001 A 
ATOM     22  C   UNL     1       4.129  -4.457  -3.494  0.00  0.00    +0.008 A 
ENDBRANCH   9  17
BRANCH   1  23
ATOM     23  C   UNL     1       0.787  -3.535   1.861  0.00  0.00    -0.079 C 
BRANCH  23  25
ATOM     24  C   UNL     1       1.898  -3.197   4.073  0.00  0.00    +0.002 C 
ATOM     25  C   UNL     1       2.133  -3.460   2.584  0.00  0.00    -0.022 C 
ENDBRANCH  23  25
ENDBRANCH   1  23
BRANCH  14  26
ATOM     26  S   UNL     1      -2.478  -8.780  -3.150  0.00  0.00    -0.077 S 
BRANCH  26  27
ATOM     27  C   UNL     1      -2.685  -9.844  -4.604  0.00  0.00    +0.173 C 
BRANCH  27  28
ATOM     28  C   UNL     1      -3.845 -10.780  -4.381  0.00  0.00    +0.227 C 
ATOM     29  O   UNL     1      -4.471 -10.733  -3.342  0.00  0.00    -0.275 OA
ATOM     30  N   UNL     1      -4.188 -11.668  -5.335  0.00  0.00    -0.285 N 
ATOM     31  H   UNL     1      -3.638 -11.765  -6.128  0.00  0.00    +0.155 HD
BRANCH  30  32
ATOM     32  C   UNL     1      -5.337 -12.452  -5.181  0.00  0.00    +0.033 A 
ATOM     33  C   UNL     1      -5.426 -13.688  -5.807  0.00  0.00    +0.023 A 
ATOM     34  C   UNL     1      -6.561 -14.459  -5.653  0.00  0.00    +0.005 A 
ATOM     35  C   UNL     1      -7.610 -14.001  -4.877  0.00  0.00    -0.050 A 
ATOM     36  C   UNL     1      -7.525 -12.770  -4.252  0.00  0.00    +0.005 A 
ATOM     37  C   UNL     1      -6.389 -11.997  -4.397  0.00  0.00    +0.023 A 
ATOM     38  C   UNL     1      -8.847 -14.844  -4.711  0.00  0.00    +0.044 C 
ENDBRANCH  30  32
ENDBRANCH  27  28
ENDBRANCH  26  27
ENDBRANCH  14  26
TORSDOF 7
