REMARK  Name = ZINC64228287
REMARK  8 active torsions:
REMARK  status: ('A' for Active; 'I' for Inactive)
REMARK    1  A    between atoms: C_1  and  C_2
REMARK    2  A    between atoms: C_2  and  C_3
REMARK    3  A    between atoms: C_3  and  N_4
REMARK    4  A    between atoms: C_5  and  C_7
REMARK    5  A    between atoms: C_7  and  C_9
REMARK    6  A    between atoms: C_7  and  N_19
REMARK    7  A    between atoms: C_9  and  C_10
REMARK    8  A    between atoms: C_20  and  C_22
REMARK                            x       y       z     vdW  Elec       q    Type
REMARK                         _______ _______ _______ _____ _____    ______ ____
ROOT
ATOM      1  C   UNL     1       1.385  -4.154   2.227  0.00  0.00    +0.163 C 
ENDROOT
BRANCH   1   3
ATOM      2  N   UNL     1       0.762  -1.976   1.234  0.00  0.00    -0.314 N 
ATOM      3  C   UNL     1       1.364  -2.647   2.235  0.00  0.00    +0.234 C 
ATOM      4  O   UNL     1       1.890  -2.038   3.143  0.00  0.00    -0.274 OA
ATOM      5  H   UNL     1       0.342  -2.462   0.507  0.00  0.00    +0.149 HD
BRANCH   2   6
ATOM      6  C   UNL     1       0.742  -0.511   1.242  0.00  0.00    +0.104 C 
BRANCH   6   8
ATOM      7  C   UNL     1      -0.019   1.526   0.010  0.00  0.00    +0.005 C 
ATOM      8  C   UNL     1       0.002  -0.004   0.002  0.00  0.00    +0.015 C 
ENDBRANCH   6   8
ENDBRANCH   2   6
ENDBRANCH   1   3
BRANCH   1   9
ATOM      9  N   UNL     1       2.093  -4.639   3.414  0.00  0.00    -0.302 N 
ATOM     10  C   UNL     1       1.434  -4.783   4.580  0.00  0.00    +0.231 C 
ATOM     11  O   UNL     1       0.254  -4.511   4.647  0.00  0.00    -0.274 OA
ATOM     12  H   UNL     1       3.037  -4.857   3.360  0.00  0.00    +0.150 HD
BRANCH  10  13
ATOM     13  C   UNL     1       2.163  -5.282   5.801  0.00  0.00    +0.145 C 
ATOM     14  C   UNL     1       2.942  -4.133   6.440  0.00  0.00    +0.063 C 
ATOM     15  C   UNL     1       3.474  -4.557   7.785  0.00  0.00    -0.041 A 
ATOM     16  C   UNL     1       4.489  -3.807   8.361  0.00  0.00    +0.004 A 
ATOM     17  C   UNL     1       5.003  -4.159   9.593  0.00  0.00    +0.000 A 
ATOM     18  C   UNL     1       4.502  -5.263  10.257  0.00  0.00    +0.000 A 
ATOM     19  C   UNL     1       3.492  -6.011   9.684  0.00  0.00    +0.005 A 
ATOM     20  C   UNL     1       2.977  -5.660   8.444  0.00  0.00    -0.030 A 
ATOM     21  C   UNL     1       1.884  -6.513   7.855  0.00  0.00    +0.117 C 
ATOM     22  N   UNL     1       1.192  -5.795   6.781  0.00  0.00    -0.301 NA
ATOM     23  H   UNL     1       0.627  -5.048   7.155  0.00  0.00    +0.123 HD
ENDBRANCH  10  13
ENDBRANCH   1   9
BRANCH   1  24
ATOM     24  C   UNL     1       2.101  -4.647   0.968  0.00  0.00    +0.065 C 
BRANCH  24  25
ATOM     25  C   UNL     1       2.014  -6.150   0.897  0.00  0.00    -0.039 C 
ATOM     26  C   UNL     1       1.100  -6.881   0.220  0.00  0.00    -0.001 A 
ATOM     27  C   UNL     1      -0.045  -6.510  -0.621  0.00  0.00    +0.010 A 
ATOM     28  C   UNL     1      -0.795  -7.488  -1.177  0.00  0.00    +0.001 A 
ATOM     29  C   UNL     1      -0.507  -8.845  -0.972  0.00  0.00    +0.002 A 
ATOM     30  C   UNL     1       0.527  -9.264  -0.212  0.00  0.00    +0.026 A 
ATOM     31  C   UNL     1       1.383  -8.320   0.421  0.00  0.00    +0.043 A 
ATOM     32  N   UNL     1       2.431  -8.473   1.193  0.00  0.00    -0.380 N 
ATOM     33  C   UNL     1       2.936  -7.146   1.564  0.00  0.00    +0.144 C 
ATOM     34  H   UNL     1       2.812  -9.321   1.469  0.00  0.00    +0.160 HD
ENDBRANCH  24  25
ENDBRANCH   1  24
TORSDOF 7
