REMARK  Name = ZINC33712150
REMARK  17 active torsions:
REMARK  status: ('A' for Active; 'I' for Inactive)
REMARK    1  A    between atoms: C_1  and  C_2
REMARK    2  A    between atoms: C_2  and  C_4
REMARK    3  A    between atoms: C_2  and  C_33
REMARK    4  A    between atoms: C_4  and  C_5
REMARK    5  A    between atoms: N_7  and  C_8
REMARK    6  A    between atoms: N_7  and  C_15
REMARK    7  A    between atoms: C_8  and  C_9
REMARK    8  A    between atoms: C_9  and  N_10
REMARK    9  A    between atoms: C_15  and  C_16
REMARK   10  A    between atoms: N_18  and  C_19
REMARK   11  A    between atoms: N_18  and  C_27
REMARK   12  A    between atoms: C_19  and  C_20
REMARK   13  A    between atoms: C_27  and  C_28
REMARK   14  A    between atoms: C_33  and  C_34
REMARK   15  A    between atoms: C_34  and  C_35
REMARK   16  A    between atoms: C_34  and  C_36
REMARK   17  A    between atoms: C_34  and  C_37
REMARK                            x       y       z     vdW  Elec       q    Type
REMARK                         _______ _______ _______ _____ _____    ______ ____
ROOT
ATOM      1  C   UNL     1       0.071  -5.044   2.809  0.00  0.00    +0.216 C 
ATOM      2  O   UNL     1      -0.686  -5.411   1.935  0.00  0.00    -0.276 OA
ATOM      3  N   UNL     1       0.231  -3.728   3.053  0.00  0.00    -0.294 N 
ENDROOT
BRANCH   1   4
ATOM      4  C   UNL     1       0.832  -6.059   3.622  0.00  0.00    +0.099 C 
BRANCH   4   6
ATOM      5  C   UNL     1       0.953  -7.659   1.707  0.00  0.00    +0.008 C 
ATOM      6  C   UNL     1       0.472  -7.468   3.146  0.00  0.00    -0.005 C 
BRANCH   6   7
ATOM      7  C   UNL     1       1.147  -8.500   4.051  0.00  0.00    +0.010 C 
BRANCH   7   8
ATOM      8  C   UNL     1       0.645  -9.900   3.692  0.00  0.00    -0.037 C 
ATOM      9  C   UNL     1       1.127 -10.270   2.287  0.00  0.00    +0.010 C 
ATOM     10  C   UNL     1       1.190 -10.912   4.701  0.00  0.00    +0.010 C 
ATOM     11  C   UNL     1      -0.885  -9.918   3.727  0.00  0.00    +0.010 C 
ENDBRANCH   7   8
ENDBRANCH   6   7
ENDBRANCH   4   6
ENDBRANCH   1   4
BRANCH   3  12
ATOM     12  C   UNL     1       1.145  -3.285   4.109  0.00  0.00    +0.090 C 
BRANCH  12  13
ATOM     13  C   UNL     1       0.382  -3.176   5.431  0.00  0.00    -0.060 C 
BRANCH  13  14
ATOM     14  N   UNL     1       1.299  -2.731   6.489  0.00  0.00    +0.381 N 
ATOM     15  C   UNL     1       2.016  -1.494   6.087  0.00  0.00    -0.079 C 
ATOM     16  C   UNL     1       2.488  -0.903   7.439  0.00  0.00    -0.020 C 
ATOM     17  C   UNL     1       1.305  -1.214   8.385  0.00  0.00    -0.020 C 
ATOM     18  C   UNL     1       0.557  -2.386   7.721  0.00  0.00    -0.079 C 
ATOM     19  H   UNL     1       1.991  -3.569   6.657  0.00  0.00    -0.082 HD
ENDBRANCH  13  14
ENDBRANCH  12  13
ENDBRANCH   3  12
BRANCH   3  20
ATOM     20  C   UNL     1      -0.509  -2.741   2.263  0.00  0.00    +0.203 C 
BRANCH  20  21
ATOM     21  C   UNL     1      -1.827  -2.448   2.932  0.00  0.00    +0.234 C 
ATOM     22  O   UNL     1      -2.120  -3.008   3.967  0.00  0.00    -0.274 OA
ATOM     23  N   UNL     1      -2.681  -1.564   2.380  0.00  0.00    -0.291 N 
BRANCH  23  24
ATOM     24  C   UNL     1      -3.963  -1.278   3.030  0.00  0.00    +0.143 C 
BRANCH  24  25
ATOM     25  C   UNL     1      -5.011  -2.230   2.514  0.00  0.00    -0.030 A 
ATOM     26  C   UNL     1      -5.767  -1.890   1.407  0.00  0.00    +0.008 A 
ATOM     27  C   UNL     1      -6.725  -2.764   0.930  0.00  0.00    +0.038 A 
ATOM     28  C   UNL     1      -6.935  -3.975   1.567  0.00  0.00    +0.123 A 
ATOM     29  C   UNL     1      -6.181  -4.312   2.678  0.00  0.00    +0.038 A 
ATOM     30  C   UNL     1      -5.220  -3.439   3.151  0.00  0.00    +0.008 A 
ATOM     31  F   UNL     1      -7.875  -4.829   1.104  0.00  0.00    -0.205 F 
ENDBRANCH  24  25
ENDBRANCH  23  24
BRANCH  23  32
ATOM     32  C   UNL     1      -2.328  -0.887   1.129  0.00  0.00    +0.150 C 
BRANCH  32  33
ATOM     33  C   UNL     1      -1.598   0.394   1.440  0.00  0.00    +0.007 A 
ATOM     34  C   UNL     1      -0.268   0.603   1.595  0.00  0.00    +0.013 A 
ATOM     35  C   UNL     1       0.182   1.878   1.881  0.00  0.00    +0.008 A 
ATOM     36  C   UNL     1      -0.720   2.882   1.998  0.00  0.00    +0.045 A 
ATOM     37  S   UNL     1      -2.261   2.031   1.700  0.00  0.00    -0.100 S 
ENDBRANCH  32  33
ENDBRANCH  23  32
ENDBRANCH  20  21
ENDBRANCH   3  20
TORSDOF 13
