REMARK  Name = ZINC09365729
REMARK  5 active torsions:
REMARK  status: ('A' for Active; 'I' for Inactive)
REMARK    1  A    between atoms: C_6  and  N_7
REMARK    2  A    between atoms: C_8  and  C_10
REMARK    3  A    between atoms: C_10  and  S_11
REMARK    4  A    between atoms: S_11  and  C_12
REMARK    5  A    between atoms: C_18  and  C_20
REMARK                            x       y       z     vdW  Elec       q    Type
REMARK                         _______ _______ _______ _____ _____    ______ ____
ROOT
ATOM      1  C   UNL     1      -2.366   9.822  -1.250  0.00  0.00    +0.160 A 
ATOM      2  N   UNL     1      -1.752   9.287  -0.205  0.00  0.00    -0.133 NA
ATOM      3  N   UNL     1      -1.652   8.039  -0.057  0.00  0.00    -0.125 NA
ATOM      4  C   UNL     1      -2.155   7.186  -0.935  0.00  0.00    +0.189 A 
ATOM      5  S   UNL     1      -2.849   8.334  -2.121  0.00  0.00    -0.024 S 
ATOM      6  N   UNL     1      -2.141   5.793  -0.940  0.00  0.00    -0.263 N 
ATOM      7  C   UNL     1      -1.547   5.122   0.067  0.00  0.00    +0.225 C 
ATOM      8  O   UNL     1      -1.024   5.731   0.977  0.00  0.00    -0.275 OA
ATOM      9  H   UNL     1      -2.559   5.307  -1.667  0.00  0.00    +0.157 HD
ENDROOT
BRANCH   7  10
ATOM     10  C   UNL     1      -1.533   3.615   0.063  0.00  0.00    +0.048 C 
ATOM     11  C   UNL     1      -0.812   3.116  -1.191  0.00  0.00    +0.019 C 
ATOM     12  C   UNL     1      -0.797   1.586  -1.196  0.00  0.00    -0.009 C 
ATOM     13  C   UNL     1      -0.066   1.079   0.050  0.00  0.00    +0.007 C 
ATOM     14  C   UNL     1      -0.788   1.579   1.303  0.00  0.00    -0.009 C 
ATOM     15  C   UNL     1      -0.802   3.108   1.308  0.00  0.00    +0.019 C 
ATOM     16  C   UNL     1      -2.225   1.055   1.307  0.00  0.00    +0.007 C 
ATOM     17  C   UNL     1      -2.956   1.562   0.062  0.00  0.00    -0.009 C 
ATOM     18  C   UNL     1      -2.235   1.062  -1.192  0.00  0.00    +0.007 C 
ATOM     19  C   UNL     1      -2.970   3.091   0.066  0.00  0.00    +0.019 C 
ENDBRANCH   7  10
BRANCH   1  20
ATOM     20  S   UNL     1      -2.627  11.514  -1.667  0.00  0.00    -0.088 S 
BRANCH  20  21
ATOM     21  C   UNL     1      -1.845  12.427  -0.308  0.00  0.00    +0.172 C 
BRANCH  21  23
ATOM     22  N   UNL     1      -1.491  14.787   0.343  0.00  0.00    -0.285 N 
ATOM     23  C   UNL     1      -1.998  13.907  -0.544  0.00  0.00    +0.227 C 
ATOM     24  O   UNL     1      -2.577  14.307  -1.532  0.00  0.00    -0.275 OA
ATOM     25  H   UNL     1      -1.088  14.468   1.165  0.00  0.00    +0.155 HD
BRANCH  22  31
ATOM     26  C   UNL     1      -0.514  16.991   0.489  0.00  0.00    +0.026 A 
ATOM     27  C   UNL     1      -0.569  18.345   0.221  0.00  0.00    +0.040 A 
ATOM     28  C   UNL     1      -1.659  18.875  -0.449  0.00  0.00    +0.124 A 
ATOM     29  C   UNL     1      -2.693  18.049  -0.857  0.00  0.00    +0.040 A 
ATOM     30  C   UNL     1      -2.639  16.694  -0.595  0.00  0.00    +0.026 A 
ATOM     31  C   UNL     1      -1.548  16.160   0.077  0.00  0.00    +0.034 A 
ATOM     32  F   UNL     1      -1.713  20.200  -0.707  0.00  0.00    -0.205 F 
ENDBRANCH  22  31
ENDBRANCH  21  23
ENDBRANCH  20  21
ENDBRANCH   1  20
TORSDOF 5
