REMARK  Name = ZINC14651183
REMARK  13 active torsions:
REMARK  status: ('A' for Active; 'I' for Inactive)
REMARK    1  A    between atoms: C_1  and  C_2
REMARK    2  A    between atoms: C_2  and  C_3
REMARK    3  A    between atoms: C_2  and  C_4
REMARK    4  A    between atoms: C_4  and  C_5
REMARK    5  A    between atoms: C_5  and  O_6
REMARK    6  A    between atoms: O_6  and  C_7
REMARK    7  A    between atoms: C_12  and  C_13
REMARK    8  A    between atoms: N_15  and  C_16
REMARK    9  A    between atoms: C_16  and  N_18
REMARK   10  A    between atoms: N_18  and  C_19
REMARK   11  A    between atoms: C_22  and  O_25
REMARK   12  A    between atoms: O_25  and  C_26
REMARK   13  A    between atoms: C_26  and  C_27
REMARK                            x       y       z     vdW  Elec       q    Type
REMARK                         _______ _______ _______ _____ _____    ______ ____
ROOT
ATOM      1  C   UNL     1       2.165   4.146   0.638  0.00  0.00    +0.253 C 
ATOM      2  O   UNL     1       3.227   3.570   0.773  0.00  0.00    -0.270 OA
ATOM      3  N   UNL     1       1.045   3.442   0.379  0.00  0.00    -0.263 N 
ATOM      4  H   UNL     1       0.198   3.902   0.272  0.00  0.00    +0.157 HD
ENDROOT
BRANCH   1  10
ATOM      5  C   UNL     1       3.264   6.350   1.028  0.00  0.00    +0.133 A 
ATOM      6  C   UNL     1       3.193   7.731   1.139  0.00  0.00    +0.047 A 
ATOM      7  C   UNL     1       1.983   8.377   0.984  0.00  0.00    +0.019 A 
ATOM      8  C   UNL     1       0.831   7.653   0.718  0.00  0.00    +0.019 A 
ATOM      9  C   UNL     1       0.884   6.281   0.599  0.00  0.00    +0.032 A 
ATOM     10  C   UNL     1       2.102   5.614   0.759  0.00  0.00    +0.080 A 
ATOM     11 BR   UNL     1      -0.819   8.553   0.509  0.00  0.00    -0.050 Br
BRANCH   5  12
ATOM     12  O   UNL     1       4.453   5.714   1.180  0.00  0.00    -0.491 OA
BRANCH  12  13
ATOM     13  C   UNL     1       5.594   6.530   1.453  0.00  0.00    +0.229 C 
BRANCH  13  14
ATOM     14  C   UNL     1       6.833   5.643   1.591  0.00  0.00    +0.044 C 
BRANCH  14  16
ATOM     15  C   UNL     1       7.886   7.190   3.246  0.00  0.00    +0.007 C 
ATOM     16  C   UNL     1       8.056   6.516   1.883  0.00  0.00    -0.014 C 
ATOM     17  C   UNL     1       9.313   5.644   1.897  0.00  0.00    +0.007 C 
ENDBRANCH  14  16
ENDBRANCH  13  14
ENDBRANCH  12  13
ENDBRANCH   5  12
ENDBRANCH   1  10
BRANCH   3  18
ATOM     18  C   UNL     1       1.103   2.100   0.269  0.00  0.00    +0.141 C 
ATOM     19  S   UNL     1       2.599   1.289   0.459  0.00  0.00    -0.018 S 
BRANCH  18  20
ATOM     20  N   UNL     1      -0.017   1.397   0.010  0.00  0.00    -0.297 N 
ATOM     21  H   UNL     1      -0.848   1.860  -0.181  0.00  0.00    +0.154 HD
BRANCH  20  22
ATOM     22  C   UNL     1       0.020  -0.004   0.010  0.00  0.00    +0.033 A 
ATOM     23  C   UNL     1      -0.660  -0.717  -0.968  0.00  0.00    +0.027 A 
ATOM     24  C   UNL     1      -0.619  -2.097  -0.970  0.00  0.00    +0.047 A 
ATOM     25  C   UNL     1       0.093  -2.772   0.011  0.00  0.00    +0.121 A 
ATOM     26  C   UNL     1       0.768  -2.060   0.991  0.00  0.00    +0.047 A 
ATOM     27  C   UNL     1       0.732  -0.680   0.992  0.00  0.00    +0.027 A 
BRANCH  25  28
ATOM     28  O   UNL     1       0.128  -4.131   0.011  0.00  0.00    -0.489 OA
BRANCH  28  29
ATOM     29  C   UNL     1      -0.590  -4.799  -1.028  0.00  0.00    +0.260 C 
BRANCH  29  30
ATOM     30  C   UNL     1      -0.434  -6.312  -0.864  0.00  0.00    +0.156 C 
ATOM     31  C   UNL     1      -1.131  -7.054  -2.026  0.00  0.00    +0.037 C 
ATOM     32  C   UNL     1      -1.740  -8.308  -1.361  0.00  0.00    +0.031 C 
ATOM     33  C   UNL     1      -1.340  -8.176   0.126  0.00  0.00    +0.160 C 
ATOM     34  O   UNL     1      -1.119  -6.761   0.326  0.00  0.00    -0.373 OA
ENDBRANCH  29  30
ENDBRANCH  28  29
ENDBRANCH  25  28
ENDBRANCH  20  22
ENDBRANCH  18  20
ENDBRANCH   3  18
TORSDOF 11
