REMARK  Name = ZINC65815468
REMARK  4 active torsions:
REMARK  status: ('A' for Active; 'I' for Inactive)
REMARK    1  A    between atoms: C_1  and  C_2
REMARK    2  A    between atoms: C_2  and  C_3
REMARK    3  A    between atoms: C_2  and  C_4
REMARK    4  A    between atoms: C_5  and  C_15
REMARK                            x       y       z     vdW  Elec       q    Type
REMARK                         _______ _______ _______ _____ _____    ______ ____
ROOT
ATOM      1  C   UNL     1      -1.388  -1.371   0.343  0.00  0.00    +0.061 A 
ATOM      2  C   UNL     1      -1.877  -1.359  -0.947  0.00  0.00    +0.078 A 
ATOM      3  C   UNL     1      -3.079  -0.615  -0.931  0.00  0.00    +0.148 A 
ATOM      4  N   UNL     1      -3.290  -0.212   0.292  0.00  0.00    -0.172 NA
ATOM      5  N   UNL     1      -2.251  -0.676   1.107  0.00  0.00    -0.218 N 
ATOM      6  C   UNL     1      -2.128  -0.452   2.482  0.00  0.00    +0.154 A 
ATOM      7  C   UNL     1      -2.715   0.672   3.051  0.00  0.00    +0.048 A 
ATOM      8  C   UNL     1      -2.586   0.882   4.413  0.00  0.00    +0.005 A 
ATOM      9  C   UNL     1      -1.873  -0.044   5.161  0.00  0.00    +0.020 A 
ATOM     10  C   UNL     1      -1.317  -1.139   4.529  0.00  0.00    +0.113 A 
ATOM     11  N   UNL     1      -1.460  -1.315   3.229  0.00  0.00    -0.236 NA
ENDROOT
BRANCH   2  12
ATOM     12  C   UNL     1      -1.262  -2.000  -2.123  0.00  0.00    +0.250 C 
ATOM     13  O   UNL     1      -0.060  -1.931  -2.294  0.00  0.00    -0.270 OA
ATOM     14  N   UNL     1      -2.031  -2.664  -3.009  0.00  0.00    -0.294 N 
ATOM     15  C   UNL     1      -3.456  -2.613  -2.848  0.00  0.00    +0.112 C 
ATOM     16  C   UNL     1      -4.138  -3.882  -3.261  0.00  0.00    +0.007 C 
ATOM     17  C   UNL     1      -3.450  -5.126  -2.723  0.00  0.00    +0.008 C 
ATOM     18  C   UNL     1      -2.341  -5.658  -3.609  0.00  0.00    -0.009 C 
ATOM     19  C   UNL     1      -2.815  -5.794  -5.059  0.00  0.00    +0.007 C 
ATOM     20  C   UNL     1      -3.246  -4.402  -5.527  0.00  0.00    -0.009 C 
ATOM     21  C   UNL     1      -4.477  -3.984  -4.722  0.00  0.00    +0.008 C 
ATOM     22  C   UNL     1      -2.128  -3.394  -5.384  0.00  0.00    +0.026 C 
ATOM     23  C   UNL     1      -1.378  -3.390  -4.083  0.00  0.00    +0.077 C 
ATOM     24  C   UNL     1      -1.078  -4.810  -3.583  0.00  0.00    +0.026 C 
ENDBRANCH   2  12
BRANCH   1  26
ATOM     25  C   UNL     1      -0.126  -3.506   0.355  0.00  0.00    +0.014 C 
ATOM     26  C   UNL     1      -0.124  -2.045   0.811  0.00  0.00    +0.032 C 
ATOM     27  C   UNL     1       1.088  -1.326   0.216  0.00  0.00    +0.014 C 
ENDBRANCH   1  26
TORSDOF 2
