REMARK  Name = ZINC20804748
REMARK  7 active torsions:
REMARK  status: ('A' for Active; 'I' for Inactive)
REMARK    1  A    between atoms: C_1  and  C_2
REMARK    2  A    between atoms: C_5  and  N_9
REMARK    3  A    between atoms: C_6  and  C_8
REMARK    4  A    between atoms: C_10  and  C_12
REMARK    5  A    between atoms: C_13  and  C_30
REMARK    6  A    between atoms: C_17  and  C_29
REMARK    7  A    between atoms: C_20  and  C_22
REMARK                            x       y       z     vdW  Elec       q    Type
REMARK                         _______ _______ _______ _____ _____    ______ ____
ROOT
ATOM      1  C   UNL     1      -2.669   3.396   7.019  0.00  0.00    +0.060 C 
ATOM      2  C   UNL     1      -1.949   3.617   8.128  0.00  0.00    +0.018 C 
ATOM      3  N   UNL     1      -2.530   3.985   9.317  0.00  0.00    -0.287 N 
ATOM      4  C   UNL     1      -3.863   4.368   9.286  0.00  0.00    +0.219 A 
ATOM      5  N   UNL     1      -4.591   4.959  10.194  0.00  0.00    -0.198 NA
ATOM      6  C   UNL     1      -5.829   5.143   9.724  0.00  0.00    +0.150 A 
ATOM      7  N   UNL     1      -5.903   4.667   8.505  0.00  0.00    -0.153 NA
ATOM      8  N   UNL     1      -4.643   4.156   8.197  0.00  0.00    -0.221 N 
ATOM      9  C   UNL     1      -4.170   3.505   6.978  0.00  0.00    +0.177 C 
ATOM     10  C   UNL     1      -6.960   5.796  10.476  0.00  0.00    +0.090 C 
ATOM     11  C   UNL     1      -0.451   3.462   8.066  0.00  0.00    +0.061 C 
ATOM     12  H   UNL     1      -1.940   3.969  10.246  0.00  0.00    +0.155 HD
ENDROOT
BRANCH   9  13
ATOM     13  C   UNL     1      -4.772   2.127   6.878  0.00  0.00    -0.018 A 
ATOM     14  C   UNL     1      -4.527   1.193   7.867  0.00  0.00    +0.009 A 
ATOM     15  C   UNL     1      -5.082  -0.069   7.780  0.00  0.00    +0.039 A 
ATOM     16  C   UNL     1      -5.875  -0.402   6.694  0.00  0.00    +0.123 A 
ATOM     17  C   UNL     1      -6.115   0.533   5.701  0.00  0.00    +0.039 A 
ATOM     18  C   UNL     1      -5.564   1.796   5.795  0.00  0.00    +0.009 A 
ATOM     19  F   UNL     1      -6.414  -1.638   6.604  0.00  0.00    -0.205 F 
ENDBRANCH   9  13
BRANCH   1  21
ATOM     20  N   UNL     1      -2.668   2.910   4.676  0.00  0.00    -0.281 N 
ATOM     21  C   UNL     1      -1.987   3.038   5.832  0.00  0.00    +0.248 C 
ATOM     22  O   UNL     1      -0.785   2.845   5.856  0.00  0.00    -0.270 OA
ATOM     23  H   UNL     1      -3.735   3.174   4.634  0.00  0.00    +0.155 HD
BRANCH  20  28
ATOM     24  C   UNL     1      -0.030   1.009   0.028  0.00  0.00    +0.044 C 
ATOM     25  C   UNL     1      -0.731   1.514   1.263  0.00  0.00    -0.050 A 
ATOM     26  C   UNL     1      -0.247   1.182   2.515  0.00  0.00    +0.005 A 
ATOM     27  C   UNL     1      -0.887   1.643   3.649  0.00  0.00    +0.024 A 
ATOM     28  C   UNL     1      -2.018   2.441   3.530  0.00  0.00    +0.037 A 
ATOM     29  C   UNL     1      -2.501   2.773   2.271  0.00  0.00    -0.029 A 
ATOM     30  C   UNL     1      -1.853   2.313   1.141  0.00  0.00    +0.008 A 
ATOM     31  C   UNL     1      -3.727   3.639   2.138  0.00  0.00    +0.045 C 
ENDBRANCH  20  28
ENDBRANCH   1  21
TORSDOF 3
