REMARK  Name = ZINC64202200
REMARK  9 active torsions:
REMARK  status: ('A' for Active; 'I' for Inactive)
REMARK    1  A    between atoms: C_1  and  C_2
REMARK    2  A    between atoms: C_5  and  C_7
REMARK    3  A    between atoms: C_10  and  C_12
REMARK    4  A    between atoms: C_12  and  N_13
REMARK    5  A    between atoms: N_13  and  C_14
REMARK    6  A    between atoms: C_15  and  C_17
REMARK    7  A    between atoms: C_22  and  N_23
REMARK    8  A    between atoms: N_23  and  S_24
REMARK    9  A    between atoms: S_24  and  C_27
REMARK                            x       y       z     vdW  Elec       q    Type
REMARK                         _______ _______ _______ _____ _____    ______ ____
ROOT
ATOM      1  C   UNL     1      -4.217  -6.253   0.651  0.00  0.00    +0.059 A 
ATOM      2  C   UNL     1      -4.046  -6.272  -0.736  0.00  0.00    +0.015 A 
ATOM      3  C   UNL     1      -5.133  -6.467  -1.560  0.00  0.00    +0.001 A 
ATOM      4  C   UNL     1      -6.398  -6.644  -1.020  0.00  0.00    +0.002 A 
ATOM      5  C   UNL     1      -6.583  -6.627   0.347  0.00  0.00    +0.025 A 
ATOM      6  C   UNL     1      -5.498  -6.439   1.194  0.00  0.00    +0.060 A 
ENDROOT
BRANCH   1   9
ATOM      7  N   UNL     1      -2.143  -5.101   1.241  0.00  0.00    -0.293 N 
ATOM      8  C   UNL     1      -2.359  -4.204   0.103  0.00  0.00    +0.133 C 
ATOM      9  C   UNL     1      -3.058  -6.045   1.538  0.00  0.00    +0.249 C 
ATOM     10  O   UNL     1      -2.928  -6.725   2.538  0.00  0.00    -0.270 OA
BRANCH   7  11
ATOM     11  C   UNL     1      -0.932  -4.973   2.056  0.00  0.00    +0.182 C 
BRANCH  11  15
ATOM     12  C   UNL     1      -1.319  -2.146   4.334  0.00  0.00    +0.109 A 
ATOM     13  C   UNL     1      -1.740  -3.134   5.145  0.00  0.00    +0.045 A 
ATOM     14  C   UNL     1      -1.655  -4.335   4.405  0.00  0.00    +0.046 A 
ATOM     15  C   UNL     1      -1.187  -4.011   3.187  0.00  0.00    +0.122 A 
ATOM     16  O   UNL     1      -0.991  -2.683   3.147  0.00  0.00    -0.463 OA
BRANCH  12  20
ATOM     17  C   UNL     1      -2.663   1.504   4.589  0.00  0.00    +0.008 C 
ATOM     18  C   UNL     1      -2.068   0.295   3.865  0.00  0.00    -0.003 C 
ATOM     19  C   UNL     1      -0.548   0.250   3.697  0.00  0.00    +0.015 C 
ATOM     20  C   UNL     1      -1.236  -0.685   4.694  0.00  0.00    +0.058 C 
ENDBRANCH  12  20
ENDBRANCH  11  15
ENDBRANCH   7  11
ENDBRANCH   1   9
BRANCH   6  21
ATOM     21  N   UNL     1      -5.681  -6.428   2.570  0.00  0.00    -0.216 N 
ATOM     22  H   UNL     1      -5.151  -5.834   3.125  0.00  0.00    +0.174 HD
BRANCH  21  23
ATOM     23  S   UNL     1      -6.804  -7.427   3.265  0.00  0.00    +0.072 S 
ATOM     24  O   UNL     1      -6.650  -7.296   4.671  0.00  0.00    -0.150 OA
ATOM     25  O   UNL     1      -8.037  -7.172   2.606  0.00  0.00    -0.150 OA
BRANCH  23  26
ATOM     26  C   UNL     1      -6.350  -9.081   2.860  0.00  0.00    +0.110 A 
ATOM     27  C   UNL     1      -6.873  -9.679   1.638  0.00  0.00    +0.031 A 
ATOM     28  C   UNL     1      -6.565 -10.941   1.269  0.00  0.00    +0.027 A 
ATOM     29  C   UNL     1      -5.681 -11.743   2.113  0.00  0.00    +0.056 A 
ATOM     30  N   UNL     1      -5.197 -12.958   2.051  0.00  0.00    -0.268 N 
ATOM     31  C   UNL     1      -4.403 -13.165   3.154  0.00  0.00    +0.308 C 
ATOM     32  O   UNL     1      -3.804 -14.191   3.400  0.00  0.00    -0.252 OA
ATOM     33  N   UNL     1      -4.389 -12.035   3.938  0.00  0.00    -0.267 N 
ATOM     34  C   UNL     1      -5.143 -11.129   3.369  0.00  0.00    +0.058 A 
ATOM     35  C   UNL     1      -5.524  -9.755   3.689  0.00  0.00    +0.054 A 
ATOM     36  H   UNL     1      -3.904 -11.928   4.770  0.00  0.00    +0.156 HD
ATOM     37  H   UNL     1      -5.369 -13.602   1.347  0.00  0.00    +0.156 HD
ENDBRANCH  23  26
ENDBRANCH  21  23
ENDBRANCH   6  21
TORSDOF 7
