REMARK  Name = ZINC40548313
REMARK  7 active torsions:
REMARK  status: ('A' for Active; 'I' for Inactive)
REMARK    1  A    between atoms: C_1  and  C_2
REMARK    2  A    between atoms: C_2  and  C_3
REMARK    3  A    between atoms: C_2  and  C_4
REMARK    4  A    between atoms: C_7  and  C_10
REMARK    5  A    between atoms: C_13  and  C_29
REMARK    6  A    between atoms: N_20  and  C_21
REMARK    7  A    between atoms: C_34  and  O_35
REMARK                            x       y       z     vdW  Elec       q    Type
REMARK                         _______ _______ _______ _____ _____    ______ ____
ROOT
ATOM      1  C   UNL     1      -5.377  -2.009   0.024  0.00  0.00    +0.142 C 
ATOM      2  C   UNL     1      -5.406  -3.479   0.342  0.00  0.00    +0.035 A 
ATOM      3  C   UNL     1      -5.107  -4.494   1.258  0.00  0.00    +0.102 A 
ATOM      4  N   UNL     1      -5.489  -5.635   0.720  0.00  0.00    -0.173 NA
ATOM      5  N   UNL     1      -6.000  -5.442  -0.443  0.00  0.00    -0.272 N 
ATOM      6  H   UNL     1      -6.349  -6.139  -1.021  0.00  0.00    +0.189 HD
ATOM      7  C   UNL     1      -5.980  -4.110  -0.745  0.00  0.00    +0.126 A 
ATOM      8  C   UNL     1      -6.320  -3.095  -1.748  0.00  0.00    +0.266 C 
ATOM      9  O   UNL     1      -6.841  -3.327  -2.822  0.00  0.00    -0.268 OA
ATOM     10  N   UNL     1      -5.973  -1.869  -1.311  0.00  0.00    -0.280 N 
ENDROOT
BRANCH  10  11
ATOM     11  C   UNL     1      -6.159  -0.612  -2.040  0.00  0.00    +0.100 C 
ATOM     12  C   UNL     1      -5.396  -0.677  -3.373  0.00  0.00    +0.047 C 
ATOM     13  C   UNL     1      -5.858   0.518  -4.255  0.00  0.00    +0.168 C 
ATOM     14  S   UNL     1      -7.668   0.514  -3.907  0.00  0.00    -0.029 S 
ATOM     15  O   UNL     1      -8.325  -0.278  -4.886  0.00  0.00    -0.174 OA
ATOM     16  O   UNL     1      -8.098   1.850  -3.684  0.00  0.00    -0.174 OA
ATOM     17  C   UNL     1      -7.668  -0.391  -2.307  0.00  0.00    +0.188 C 
ENDBRANCH  10  11
BRANCH   3  18
ATOM     18  C   UNL     1      -4.474  -4.318   2.589  0.00  0.00    +0.045 A 
ATOM     19  C   UNL     1      -4.239  -3.039   3.087  0.00  0.00    +0.033 A 
ATOM     20  C   UNL     1      -3.650  -2.880   4.327  0.00  0.00    +0.042 A 
ATOM     21  C   UNL     1      -3.293  -3.989   5.075  0.00  0.00    +0.023 A 
ATOM     22  C   UNL     1      -3.522  -5.262   4.588  0.00  0.00    +0.047 A 
ATOM     23  C   UNL     1      -4.118  -5.434   3.349  0.00  0.00    +0.126 A 
ATOM     24 CL   UNL     1      -3.356  -1.286   4.947  0.00  0.00    -0.084 Cl
BRANCH  23  25
ATOM     25  O   UNL     1      -4.349  -6.686   2.873  0.00  0.00    -0.506 OA
ATOM     26  H   UNL     1      -3.618  -7.051   2.356  0.00  0.00    +0.292 HD
ENDBRANCH  23  25
ENDBRANCH   3  18
BRANCH   1  30
ATOM     27  C   UNL     1      -1.348  -0.591  -0.012  0.00  0.00    -0.045 A 
ATOM     28  C   UNL     1      -1.785  -1.454  -0.998  0.00  0.00    +0.004 A 
ATOM     29  C   UNL     1      -3.089  -1.913  -0.987  0.00  0.00    +0.006 A 
ATOM     30  C   UNL     1      -3.955  -1.510   0.012  0.00  0.00    -0.022 A 
ATOM     31  C   UNL     1      -3.518  -0.647   0.999  0.00  0.00    +0.006 A 
ATOM     32  C   UNL     1      -2.213  -0.191   0.990  0.00  0.00    +0.004 A 
BRANCH  27  34
ATOM     33  C   UNL     1       1.033  -1.278   0.065  0.00  0.00    +0.012 C 
ATOM     34  C   UNL     1       0.073  -0.090  -0.024  0.00  0.00    +0.013 C 
ATOM     35  C   UNL     1       0.332   0.678  -1.322  0.00  0.00    +0.012 C 
ENDBRANCH  27  34
ENDBRANCH   1  30
TORSDOF 5
