REMARK  Name = ZINC50364079
REMARK  9 active torsions:
REMARK  status: ('A' for Active; 'I' for Inactive)
REMARK    1  A    between atoms: C_1  and  C_2
REMARK    2  A    between atoms: C_5  and  C_7
REMARK    3  A    between atoms: C_7  and  C_9
REMARK    4  A    between atoms: C_7  and  N_10
REMARK    5  A    between atoms: N_10  and  C_11
REMARK    6  A    between atoms: C_14  and  C_20
REMARK    7  A    between atoms: CA_16  and  C_17
REMARK    8  A    between atoms: C_20  and  C_21
REMARK    9  A    between atoms: C_20  and  C_22
REMARK                            x       y       z     vdW  Elec       q    Type
REMARK                         _______ _______ _______ _____ _____    ______ ____
ROOT
ATOM      1  C   UNL     1       3.397  -4.011   1.671  0.00  0.00    +0.079 A 
ATOM      2  C   UNL     1       2.992  -5.337   1.480  0.00  0.00    +0.138 A 
ATOM      3  N   UNL     1       3.820  -6.312   1.800  0.00  0.00    -0.238 NA
ATOM      4  C   UNL     1       5.018  -6.056   2.295  0.00  0.00    +0.133 A 
ATOM      5  N   UNL     1       5.446  -4.831   2.495  0.00  0.00    -0.223 NA
ATOM      6  CA  UNL     1       4.680  -3.782   2.194  0.00  0.00    +0.176 A 
ENDROOT
BRANCH   6   7
ATOM      7  C   UNL     1       5.169  -2.405   2.413  0.00  0.00    +0.406 C 
ATOM      8  O   UNL     1       4.372  -1.485   2.532  0.00  0.00    -0.239 OA
ATOM      9  OXT UNL     1       6.370  -2.186   2.476  0.00  0.00    -0.239 OA
ENDBRANCH   6   7
BRANCH   4  10
ATOM     10  C   UNL     1       5.923  -7.210   2.644  0.00  0.00    +0.051 C 
ATOM     11  C   UNL     1       5.248  -8.086   3.701  0.00  0.00    +0.015 C 
ATOM     12  C   UNL     1       6.195  -8.042   1.389  0.00  0.00    +0.015 C 
ENDBRANCH   4  10
BRANCH   1  13
ATOM     13  N   UNL     1       2.559  -2.954   1.348  0.00  0.00    -0.331 N 
ATOM     14  H   UNL     1       2.885  -2.042   1.403  0.00  0.00    +0.147 HD
BRANCH  13  15
ATOM     15  C   UNL     1       1.182  -3.216   0.923  0.00  0.00    +0.134 C 
ATOM     16  C   UNL     1       1.157  -3.503  -0.580  0.00  0.00    +0.036 C 
BRANCH  15  21
ATOM     17  C   UNL     1      -0.301   1.584   1.379  0.00  0.00    +0.086 C 
ATOM     18  C   UNL     1      -0.317   0.077   1.417  0.00  0.00    +0.102 A 
ATOM     19  C   UNL     1      -1.347  -0.689   1.820  0.00  0.00    +0.045 A 
ATOM     20  C   UNL     1      -0.931  -2.034   1.692  0.00  0.00    +0.047 A 
ATOM     21  C   UNL     1       0.328  -2.010   1.218  0.00  0.00    +0.125 A 
ATOM     22  O   UNL     1       0.692  -0.729   1.048  0.00  0.00    -0.463 OA
ENDBRANCH  15  21
ENDBRANCH  13  15
ENDBRANCH   1  13
TORSDOF 5
