REMARK  Name = ZINC21998111
REMARK  9 active torsions:
REMARK  status: ('A' for Active; 'I' for Inactive)
REMARK    1  A    between atoms: C_1  and  C_2
REMARK    2  A    between atoms: C_2  and  C_4
REMARK    3  A    between atoms: C_2  and  O_23
REMARK    4  A    between atoms: N_6  and  C_7
REMARK    5  A    between atoms: O_23  and  C_24
REMARK    6  A    between atoms: C_24  and  C_26
REMARK    7  A    between atoms: C_26  and  N_34
REMARK    8  A    between atoms: C_27  and  C_28
REMARK    9  A    between atoms: C_35  and  C_37
REMARK                            x       y       z     vdW  Elec       q    Type
REMARK                         _______ _______ _______ _____ _____    ______ ____
ROOT
ATOM      1  C   UNL     1       4.580   4.143  -0.264  0.00  0.00    +0.258 C 
ATOM      2  O   UNL     1       3.846   4.971   0.232  0.00  0.00    -0.271 OA
ATOM      3  N   UNL     1       5.896   4.401  -0.398  0.00  0.00    -0.282 N 
ATOM      4  H   UNL     1       6.575   3.620  -0.768  0.00  0.00    +0.155 HD
ENDROOT
BRANCH   3   5
ATOM      5  C   UNL     1       6.395   5.657  -0.068  0.00  0.00    +0.045 A 
ATOM      6  C   UNL     1       5.564   6.776  -0.111  0.00  0.00    +0.024 A 
ATOM      7  C   UNL     1       6.054   8.022   0.216  0.00  0.00    +0.003 A 
ATOM      8  C   UNL     1       7.379   8.183   0.593  0.00  0.00    +0.012 A 
ATOM      9  C   UNL     1       8.226   7.082   0.642  0.00  0.00    +0.035 A 
ATOM     10  C   UNL     1       7.731   5.804   0.316  0.00  0.00    +0.054 A 
ATOM     11  C   UNL     1       8.629   4.635   0.375  0.00  0.00    +0.196 C 
ATOM     12  O   UNL     1       8.174   3.509   0.339  0.00  0.00    -0.287 OA
ATOM     13  C   UNL     1      10.089   4.850   0.480  0.00  0.00    +0.033 A 
ATOM     14  C   UNL     1      10.976   3.804   0.253  0.00  0.00    +0.012 A 
ATOM     15  C   UNL     1      12.339   4.023   0.353  0.00  0.00    +0.001 A 
ATOM     16  C   UNL     1      12.826   5.276   0.678  0.00  0.00    +0.001 A 
ATOM     17  C   UNL     1      11.957   6.329   0.908  0.00  0.00    +0.012 A 
ATOM     18  C   UNL     1      10.584   6.125   0.811  0.00  0.00    +0.033 A 
ATOM     19  C   UNL     1       9.642   7.239   1.039  0.00  0.00    +0.195 C 
ATOM     20  O   UNL     1      10.024   8.268   1.561  0.00  0.00    -0.287 OA
ENDBRANCH   3   5
BRANCH   1  22
ATOM     21  C   UNL     1       4.278   2.663  -2.231  0.00  0.00    +0.062 C 
ATOM     22  C   UNL     1       4.020   2.824  -0.732  0.00  0.00    +0.259 C 
BRANCH  22  23
ATOM     23  O   UNL     1       2.591   2.789  -0.480  0.00  0.00    -0.448 OA
BRANCH  23  24
ATOM     24  C   UNL     1       2.041   1.581  -0.237  0.00  0.00    +0.354 C 
ATOM     25  O   UNL     1       2.739   0.585  -0.235  0.00  0.00    -0.244 OA
BRANCH  24  26
ATOM     26  C   UNL     1       0.601   1.469   0.026  0.00  0.00    +0.119 C 
ATOM     27  C   UNL     1       0.050   0.257   0.270  0.00  0.00    +0.038 C 
BRANCH  27  28
ATOM     28  C   UNL     1      -1.359   0.159   0.682  0.00  0.00    -0.023 A 
ATOM     29  C   UNL     1      -1.998   1.258   1.266  0.00  0.00    +0.008 A 
ATOM     30  C   UNL     1      -3.321   1.160   1.645  0.00  0.00    +0.001 A 
ATOM     31  C   UNL     1      -4.012  -0.025   1.457  0.00  0.00    +0.000 A 
ATOM     32  C   UNL     1      -3.385  -1.118   0.885  0.00  0.00    +0.001 A 
ATOM     33  C   UNL     1      -2.065  -1.034   0.496  0.00  0.00    +0.008 A 
ENDBRANCH  27  28
BRANCH  26  34
ATOM     34  N   UNL     1      -0.203   2.614   0.018  0.00  0.00    -0.280 N 
ATOM     35  C   UNL     1       0.084   3.644   0.840  0.00  0.00    +0.214 C 
ATOM     36  O   UNL     1       1.090   3.618   1.516  0.00  0.00    -0.276 OA
ATOM     37  C   UNL     1      -0.846   4.827   0.917  0.00  0.00    +0.109 C 
ATOM     38  H   UNL     1      -1.068   2.675  -0.658  0.00  0.00    +0.155 HD
ENDBRANCH  26  34
ENDBRANCH  24  26
ENDBRANCH  23  24
ENDBRANCH  22  23
ENDBRANCH   1  22
TORSDOF 7
