REMARK  Name = ZINC60032153
REMARK  10 active torsions:
REMARK  status: ('A' for Active; 'I' for Inactive)
REMARK    1  A    between atoms: C_1  and  C_2
REMARK    2  A    between atoms: C_2  and  C_3
REMARK    3  A    between atoms: C_6  and  C_9
REMARK    4  A    between atoms: C_9  and  C_11
REMARK    5  A    between atoms: C_9  and  N_33
REMARK    6  A    between atoms: C_11  and  N_12
REMARK    7  A    between atoms: C_13  and  C_15
REMARK    8  A    between atoms: C_21  and  C_23
REMARK    9  A    between atoms: N_33  and  C_34
REMARK   10  A    between atoms: N_33  and  C_35
REMARK                            x       y       z     vdW  Elec       q    Type
REMARK                         _______ _______ _______ _____ _____    ______ ____
ROOT
ATOM      1  N   UNL     1       4.404  -1.321  -6.398  0.00  0.00    -0.315 N 
ATOM      2  C   UNL     1       5.255  -0.520  -7.069  0.00  0.00    +0.234 C 
ATOM      3  O   UNL     1       5.324   0.658  -6.792  0.00  0.00    -0.274 OA
ATOM      4  H   UNL     1       4.348  -2.264  -6.620  0.00  0.00    +0.149 HD
ENDROOT
BRANCH   2   5
ATOM      5  C   UNL     1       6.122  -1.089  -8.162  0.00  0.00    +0.173 C 
ATOM      6  C   UNL     1       6.992  -2.221  -7.561  0.00  0.00    +0.102 C 
ATOM      7  S   UNL     1       8.569  -1.934  -8.482  0.00  0.00    -0.139 S 
ATOM      8  C   UNL     1       8.352  -0.113  -8.702  0.00  0.00    +0.178 C 
ATOM      9  N   UNL     1       6.882  -0.005  -8.760  0.00  0.00    -0.276 N 
ATOM     10  C   UNL     1       6.276   1.049  -9.341  0.00  0.00    +0.250 C 
ATOM     11  O   UNL     1       5.065   1.064  -9.462  0.00  0.00    -0.270 OA
BRANCH  10  12
ATOM     12  C   UNL     1       7.076   2.180  -9.829  0.00  0.00    +0.062 A 
ATOM     13  C   UNL     1       8.309   2.560  -9.385  0.00  0.00    +0.096 A 
ATOM     14  N   UNL     1       8.730   3.647 -10.074  0.00  0.00    -0.360 N 
ATOM     15  H   UNL     1       9.578   4.097  -9.935  0.00  0.00    +0.165 HD
ATOM     16  C   UNL     1       7.782   4.025 -11.003  0.00  0.00    +0.047 A 
ATOM     17  C   UNL     1       6.709   3.125 -10.900  0.00  0.00    +0.012 A 
ATOM     18  C   UNL     1       5.600   3.262 -11.731  0.00  0.00    +0.011 A 
ATOM     19  C   UNL     1       5.563   4.282 -12.656  0.00  0.00    +0.001 A 
ATOM     20  C   UNL     1       6.624   5.169 -12.763  0.00  0.00    +0.002 A 
ATOM     21  C   UNL     1       7.724   5.051 -11.941  0.00  0.00    +0.026 A 
ENDBRANCH  10  12
ENDBRANCH   2   5
BRANCH   1  22
ATOM     22  C   UNL     1       3.561  -0.768  -5.335  0.00  0.00    +0.093 C 
BRANCH  22  23
ATOM     23  C   UNL     1       2.785  -1.900  -4.658  0.00  0.00    -0.021 C 
BRANCH  23  27
ATOM     24  C   UNL     1       0.054  -3.627  -7.452  0.00  0.00    -0.048 A 
ATOM     25  C   UNL     1       1.260  -4.249  -7.190  0.00  0.00    +0.004 A 
ATOM     26  C   UNL     1       2.144  -3.690  -6.286  0.00  0.00    +0.002 A 
ATOM     27  C   UNL     1       1.822  -2.509  -5.644  0.00  0.00    -0.059 A 
ATOM     28  C   UNL     1       0.616  -1.886  -5.907  0.00  0.00    +0.002 A 
ATOM     29  C   UNL     1      -0.266  -2.443  -6.814  0.00  0.00    +0.004 A 
BRANCH  24  31
ATOM     30  C   UNL     1      -0.614  -3.698  -9.839  0.00  0.00    +0.009 C 
ATOM     31  C   UNL     1      -0.910  -4.236  -8.438  0.00  0.00    +0.032 C 
ENDBRANCH  24  31
ENDBRANCH  23  27
BRANCH  23  32
ATOM     32  N   UNL     1       2.039  -1.365  -3.512  0.00  0.00    +0.382 N 
ATOM     33  C   UNL     1       1.375  -2.466  -2.802  0.00  0.00    -0.096 C 
ATOM     34  C   UNL     1       2.967  -0.683  -2.599  0.00  0.00    -0.096 C 
ATOM     35  H   UNL     1       1.346  -0.709  -3.838  0.00  0.00    -0.082 HD
ENDBRANCH  23  32
ENDBRANCH  22  23
ENDBRANCH   1  22
TORSDOF 7
