REMARK  Name = ZINC41001564
REMARK  9 active torsions:
REMARK  status: ('A' for Active; 'I' for Inactive)
REMARK    1  A    between atoms: C_1  and  C_2
REMARK    2  A    between atoms: C_2  and  C_3
REMARK    3  A    between atoms: C_3  and  C_5
REMARK    4  A    between atoms: C_3  and  O_26
REMARK    5  A    between atoms: C_10  and  C_25
REMARK    6  A    between atoms: C_11  and  C_13
REMARK    7  A    between atoms: C_15  and  C_18
REMARK    8  A    between atoms: C_21  and  C_24
REMARK    9  A    between atoms: O_26  and  C_27
REMARK                            x       y       z     vdW  Elec       q    Type
REMARK                         _______ _______ _______ _____ _____    ______ ____
ROOT
ATOM      1  C   UNL     1       0.965  -2.010   1.242  0.00  0.00    +0.259 C 
ATOM      2  O   UNL     1       0.449  -2.701   2.096  0.00  0.00    -0.271 OA
ATOM      3  N   UNL     1       1.729  -2.577   0.288  0.00  0.00    -0.262 N 
ATOM      4  C   UNL     1       1.925  -3.949   0.281  0.00  0.00    +0.165 A 
ATOM      5  N   UNL     1       1.443  -4.848   1.117  0.00  0.00    -0.229 NA
ATOM      6  C   UNL     1       1.718  -6.123   0.982  0.00  0.00    +0.060 A 
ATOM      7  C   UNL     1       2.531  -6.471  -0.072  0.00  0.00    +0.101 A 
ATOM      8  S   UNL     1       2.829  -4.868  -0.801  0.00  0.00    -0.047 S 
ATOM      9  C   UNL     1       1.172  -7.156   1.934  0.00  0.00    +0.067 C 
ATOM     10  H   UNL     1       2.142  -2.025  -0.395  0.00  0.00    +0.157 HD
ENDROOT
BRANCH   7  11
ATOM     11  C   UNL     1       3.015  -7.792  -0.485  0.00  0.00    +0.267 A 
ATOM     12  N   UNL     1       3.802  -8.040  -1.513  0.00  0.00    -0.187 NA
ATOM     13  C   UNL     1       4.043  -9.357  -1.595  0.00  0.00    +0.202 A 
ATOM     14  N   UNL     1       3.412  -9.966  -0.619  0.00  0.00    -0.056 NA
ATOM     15  O   UNL     1       2.738  -8.961   0.123  0.00  0.00    -0.332 OA
BRANCH  13  16
ATOM     16  C   UNL     1       4.885 -10.018  -2.623  0.00  0.00    +0.022 A 
ATOM     17  C   UNL     1       5.510  -9.258  -3.609  0.00  0.00    +0.012 A 
ATOM     18  C   UNL     1       6.292  -9.877  -4.562  0.00  0.00    +0.004 A 
ATOM     19  C   UNL     1       6.457 -11.250  -4.539  0.00  0.00    -0.050 A 
ATOM     20  C   UNL     1       5.839 -12.010  -3.562  0.00  0.00    +0.004 A 
ATOM     21  C   UNL     1       5.059 -11.400  -2.601  0.00  0.00    +0.012 A 
ATOM     22  C   UNL     1       7.313 -11.921  -5.583  0.00  0.00    +0.044 C 
ENDBRANCH  13  16
ENDBRANCH   7  11
BRANCH   1  23
ATOM     23  C   UNL     1       0.752  -0.518   1.250  0.00  0.00    +0.259 C 
BRANCH  23  25
ATOM     24  C   UNL     1      -0.136   1.417  -0.058  0.00  0.00    +0.008 C 
ATOM     25  C   UNL     1      -0.027  -0.108  -0.002  0.00  0.00    +0.051 C 
ENDBRANCH  23  25
BRANCH  23  26
ATOM     26  O   UNL     1       0.010  -0.149   2.414  0.00  0.00    -0.477 OA
BRANCH  26  27
ATOM     27  C   UNL     1       0.378   1.000   3.042  0.00  0.00    +0.157 A 
ATOM     28  C   UNL     1       1.350   1.816   2.483  0.00  0.00    +0.048 A 
ATOM     29  C   UNL     1       1.722   2.983   3.122  0.00  0.00    +0.004 A 
ATOM     30  C   UNL     1       1.127   3.338   4.318  0.00  0.00    +0.003 A 
ATOM     31  C   UNL     1       0.158   2.528   4.879  0.00  0.00    +0.042 A 
ATOM     32  C   UNL     1      -0.224   1.361   4.240  0.00  0.00    +0.165 A 
ATOM     33  F   UNL     1      -1.175   0.572   4.785  0.00  0.00    -0.202 F 
ENDBRANCH  26  27
ENDBRANCH  23  26
ENDBRANCH   1  23
TORSDOF 6
