REMARK  Name = ZINC22390244
REMARK  12 active torsions:
REMARK  status: ('A' for Active; 'I' for Inactive)
REMARK    1  A    between atoms: C_1  and  C_2
REMARK    2  A    between atoms: C_2  and  C_3
REMARK    3  A    between atoms: C_2  and  N_4
REMARK    4  A    between atoms: C_5  and  C_7
REMARK    5  A    between atoms: C_12  and  N_13
REMARK    6  A    between atoms: C_14  and  C_16
REMARK    7  A    between atoms: C_16  and  N_17
REMARK    8  A    between atoms: N_17  and  C_18
REMARK    9  A    between atoms: N_17  and  S_25
REMARK   10  A    between atoms: S_25  and  C_28
REMARK   11  A    between atoms: C_31  and  S_34
REMARK   12  A    between atoms: S_34  and  C_35
REMARK                            x       y       z     vdW  Elec       q    Type
REMARK                         _______ _______ _______ _____ _____    ______ ____
ROOT
ATOM      1  N   UNL     1      -6.048   5.596   0.681  0.00  0.00    -0.194 N 
ENDROOT
BRANCH   1   2
ATOM      2  C   UNL     1      -6.881   5.771  -0.425  0.00  0.00    +0.055 A 
ATOM      3  C   UNL     1      -6.783   4.913  -1.514  0.00  0.00    +0.025 A 
ATOM      4  C   UNL     1      -7.608   5.087  -2.607  0.00  0.00    +0.005 A 
ATOM      5  C   UNL     1      -8.533   6.115  -2.621  0.00  0.00    +0.038 A 
ATOM      6  C   UNL     1      -8.635   6.973  -1.538  0.00  0.00    +0.125 A 
ATOM      7  C   UNL     1      -7.814   6.800  -0.438  0.00  0.00    +0.063 A 
ATOM      8  F   UNL     1      -9.539   7.977  -1.554  0.00  0.00    -0.205 F 
ENDBRANCH   1   2
BRANCH   1   9
ATOM      9  S   UNL     1      -6.535   6.118   2.176  0.00  0.00    +0.075 S 
ATOM     10  O   UNL     1      -7.954   6.187   2.139  0.00  0.00    -0.150 OA
ATOM     11  O   UNL     1      -5.835   5.329   3.129  0.00  0.00    -0.150 OA
BRANCH   9  12
ATOM     12  C   UNL     1      -5.955   7.770   2.366  0.00  0.00    +0.109 A 
ATOM     13  C   UNL     1      -4.659   8.002   2.790  0.00  0.00    +0.030 A 
ATOM     14  C   UNL     1      -4.199   9.296   2.934  0.00  0.00    +0.016 A 
ATOM     15  C   UNL     1      -5.043  10.366   2.664  0.00  0.00    +0.008 A 
ATOM     16  C   UNL     1      -6.347  10.130   2.244  0.00  0.00    +0.016 A 
ATOM     17  C   UNL     1      -6.798   8.833   2.096  0.00  0.00    +0.030 A 
BRANCH  15  18
ATOM     18  S   UNL     1      -4.463  12.019   2.854  0.00  0.00    -0.129 S 
ATOM     19  C   UNL     1      -2.747  11.821   3.407  0.00  0.00    +0.090 C 
ENDBRANCH  15  18
ENDBRANCH   9  12
ENDBRANCH   1   9
BRANCH   1  20
ATOM     20  C   UNL     1      -4.742   4.952   0.520  0.00  0.00    +0.227 C 
BRANCH  20  22
ATOM     21  N   UNL     1      -3.833   2.652   0.467  0.00  0.00    -0.283 N 
ATOM     22  C   UNL     1      -4.908   3.456   0.591  0.00  0.00    +0.236 C 
ATOM     23  O   UNL     1      -6.009   2.975   0.759  0.00  0.00    -0.274 OA
ATOM     24  H   UNL     1      -2.827   3.088   0.386  0.00  0.00    +0.155 HD
BRANCH  21  30
ATOM     25  C   UNL     1      -3.154   0.473  -0.349  0.00  0.00    +0.058 A 
ATOM     26  C   UNL     1      -3.333  -0.912  -0.371  0.00  0.00    +0.015 A 
ATOM     27  C   UNL     1      -4.328  -1.488   0.389  0.00  0.00    +0.001 A 
ATOM     28  C   UNL     1      -5.159  -0.700   1.169  0.00  0.00    +0.002 A 
ATOM     29  C   UNL     1      -4.997   0.671   1.196  0.00  0.00    +0.024 A 
ATOM     30  C   UNL     1      -3.998   1.269   0.441  0.00  0.00    +0.046 A 
BRANCH  25  32
ATOM     31  N   UNL     1      -1.215   0.324  -1.831  0.00  0.00    -0.309 N 
ATOM     32  C   UNL     1      -2.089   1.097  -1.157  0.00  0.00    +0.246 C 
ATOM     33  O   UNL     1      -1.999   2.308  -1.214  0.00  0.00    -0.270 OA
ATOM     34  H   UNL     1      -1.294  -0.772  -1.776  0.00  0.00    +0.149 HD
BRANCH  31  36
ATOM     35  C   UNL     1       1.010  -0.032  -2.782  0.00  0.00    +0.027 C 
ATOM     36  C   UNL     1      -0.161   0.943  -2.639  0.00  0.00    +0.067 C 
ATOM     37  C   UNL     1      -0.713   1.284  -4.024  0.00  0.00    +0.027 C 
ENDBRANCH  31  36
ENDBRANCH  25  32
ENDBRANCH  21  30
ENDBRANCH  20  22
ENDBRANCH   1  20
TORSDOF 9
