REMARK  Name = ZINC46540871
REMARK  15 active torsions:
REMARK  status: ('A' for Active; 'I' for Inactive)
REMARK    1  A    between atoms: C_1  and  C_2
REMARK    2  A    between atoms: C_2  and  C_3
REMARK    3  A    between atoms: C_3  and  C_4
REMARK    4  A    between atoms: C_4  and  N_5
REMARK    5  A    between atoms: N_14  and  C_35
REMARK    6  A    between atoms: C_15  and  C_17
REMARK    7  A    between atoms: C_17  and  C_18
REMARK    8  A    between atoms: C_18  and  C_19
REMARK    9  A    between atoms: N_21  and  C_22
REMARK   10  A    between atoms: N_21  and  C_23
REMARK   11  A    between atoms: C_23  and  C_25
REMARK   12  A    between atoms: C_23  and  C_26
REMARK   13  A    between atoms: C_35  and  C_36
REMARK   14  A    between atoms: C_36  and  C_37
REMARK   15  A    between atoms: C_36  and  C_38
REMARK                            x       y       z     vdW  Elec       q    Type
REMARK                         _______ _______ _______ _____ _____    ______ ____
ROOT
ATOM      1  N   UNL     1      -2.551  -2.521   0.354  0.00  0.00    -0.277 N 
ATOM      2  C   UNL     1      -3.288  -2.802   1.493  0.00  0.00    +0.168 A 
ATOM      3  C   UNL     1      -4.597  -3.247   1.352  0.00  0.00    +0.151 A 
ATOM      4  C   UNL     1      -5.136  -3.399   0.056  0.00  0.00    +0.280 A 
ATOM      5  O   UNL     1      -6.280  -3.787  -0.093  0.00  0.00    -0.265 OA
ATOM      6  N   UNL     1      -4.368  -3.109  -1.015  0.00  0.00    -0.273 N 
ATOM      7  H   UNL     1      -4.734  -3.213  -1.907  0.00  0.00    +0.173 HD
ATOM      8  C   UNL     1      -3.105  -2.675  -0.864  0.00  0.00    +0.331 A 
ATOM      9  O   UNL     1      -2.444  -2.418  -1.852  0.00  0.00    -0.246 OA
ATOM     10  N   UNL     1      -5.078  -3.443   2.631  0.00  0.00    -0.322 N 
ATOM     11  C   UNL     1      -4.082  -3.123   3.480  0.00  0.00    +0.113 A 
ATOM     12  N   UNL     1      -3.028  -2.745   2.802  0.00  0.00    -0.214 NA
ENDROOT
BRANCH   1  13
ATOM     13  C   UNL     1      -1.169  -2.051   0.475  0.00  0.00    +0.128 C 
BRANCH  13  14
ATOM     14  C   UNL     1      -1.156  -0.523   0.558  0.00  0.00    +0.021 C 
BRANCH  14  16
ATOM     15  C   UNL     1       0.301   1.496   0.767  0.00  0.00    +0.004 C 
ATOM     16  C   UNL     1       0.288  -0.032   0.684  0.00  0.00    -0.002 C 
ENDBRANCH  14  16
ENDBRANCH  13  14
ENDBRANCH   1  13
BRANCH  11  17
ATOM     17  C   UNL     1      -4.168  -3.189   4.983  0.00  0.00    +0.083 C 
BRANCH  17  18
ATOM     18  C   UNL     1      -3.613  -4.530   5.467  0.00  0.00    +0.103 C 
BRANCH  18  19
ATOM     19  C   UNL     1      -3.809  -4.647   6.957  0.00  0.00    +0.216 C 
ATOM     20  O   UNL     1      -4.341  -3.746   7.571  0.00  0.00    -0.276 OA
ATOM     21  N   UNL     1      -3.395  -5.752   7.607  0.00  0.00    -0.295 N 
ATOM     22  C   UNL     1      -2.753  -6.841   6.865  0.00  0.00    +0.132 C 
BRANCH  21  23
ATOM     23  C   UNL     1      -3.586  -5.866   9.055  0.00  0.00    +0.139 C 
ATOM     24  C   UNL     1      -2.226  -6.027   9.737  0.00  0.00    +0.036 C 
BRANCH  23  25
ATOM     25  C   UNL     1      -4.444  -7.067   9.356  0.00  0.00    +0.126 A 
ATOM     26  C   UNL     1      -5.410  -7.107  10.284  0.00  0.00    +0.055 A 
ATOM     27  C   UNL     1      -5.975  -8.460  10.228  0.00  0.00    +0.020 A 
ATOM     28  C   UNL     1      -6.987  -9.123  10.921  0.00  0.00    +0.011 A 
ATOM     29  C   UNL     1      -7.275 -10.425  10.619  0.00  0.00    +0.001 A 
ATOM     30  C   UNL     1      -6.566 -11.089   9.628  0.00  0.00    +0.004 A 
ATOM     31  C   UNL     1      -5.563 -10.450   8.932  0.00  0.00    +0.047 A 
ATOM     32  C   UNL     1      -5.254  -9.127   9.224  0.00  0.00    +0.135 A 
ATOM     33  O   UNL     1      -4.355  -8.253   8.729  0.00  0.00    -0.458 OA
ENDBRANCH  23  25
ENDBRANCH  21  23
ENDBRANCH  18  19
ENDBRANCH  17  18
ENDBRANCH  11  17
BRANCH  10  34
ATOM     34  C   UNL     1      -6.417  -3.910   2.996  0.00  0.00    +0.126 C 
BRANCH  34  35
ATOM     35  C   UNL     1      -7.314  -2.707   3.294  0.00  0.00    +0.003 C 
ATOM     36  C   UNL     1      -7.515  -1.892   2.015  0.00  0.00    +0.009 C 
ATOM     37  C   UNL     1      -8.670  -3.196   3.806  0.00  0.00    +0.009 C 
ENDBRANCH  34  35
ENDBRANCH  10  34
TORSDOF 10
