REMARK  Name = ZINC57267416
REMARK  9 active torsions:
REMARK  status: ('A' for Active; 'I' for Inactive)
REMARK    1  A    between atoms: C_1  and  C_2
REMARK    2  A    between atoms: C_2  and  C_3
REMARK    3  A    between atoms: C_3  and  C_4
REMARK    4  A    between atoms: C_3  and  C_6
REMARK    5  A    between atoms: C_4  and  C_5
REMARK    6  A    between atoms: C_6  and  C_8
REMARK    7  A    between atoms: C_6  and  N_13
REMARK    8  A    between atoms: N_16  and  N_17
REMARK    9  A    between atoms: C_18  and  C_20
REMARK                            x       y       z     vdW  Elec       q    Type
REMARK                         _______ _______ _______ _____ _____    ______ ____
ROOT
ATOM      1  N   UNL     1      -2.371  -2.545  -0.378  0.00  0.00    -0.291 N 
ATOM      2  C   UNL     1      -2.507  -3.855  -0.091  0.00  0.00    +0.316 C 
ATOM      3  O   UNL     1      -1.580  -4.468   0.402  0.00  0.00    -0.251 OA
ATOM      4  N   UNL     1      -3.669  -4.485  -0.352  0.00  0.00    -0.218 N 
ATOM      5  H   UNL     1      -3.110  -2.055  -0.772  0.00  0.00    +0.151 HD
ATOM      6  H   UNL     1      -3.767  -5.427  -0.145  0.00  0.00    +0.174 HD
ENDROOT
BRANCH   4   7
ATOM      7  N   UNL     1      -4.737  -3.778  -0.920  0.00  0.00    -0.229 N 
ATOM      8  C   UNL     1      -5.900  -4.408  -1.181  0.00  0.00    +0.260 C 
ATOM      9  O   UNL     1      -6.022  -5.589  -0.922  0.00  0.00    -0.269 OA
ATOM     10  H   UNL     1      -4.639  -2.835  -1.127  0.00  0.00    +0.173 HD
BRANCH   8  11
ATOM     11  C   UNL     1      -7.026  -3.662  -1.781  0.00  0.00    +0.038 A 
ATOM     12  C   UNL     1      -6.887  -2.306  -2.084  0.00  0.00    +0.013 A 
ATOM     13  C   UNL     1      -7.942  -1.616  -2.645  0.00  0.00    +0.001 A 
ATOM     14  C   UNL     1      -9.136  -2.265  -2.906  0.00  0.00    +0.000 A 
ATOM     15  C   UNL     1      -9.281  -3.608  -2.607  0.00  0.00    +0.001 A 
ATOM     16  C   UNL     1      -8.232  -4.311  -2.052  0.00  0.00    +0.013 A 
ENDBRANCH   8  11
ENDBRANCH   4   7
BRANCH   1  17
ATOM     17  C   UNL     1      -1.107  -1.860  -0.095  0.00  0.00    +0.114 C 
BRANCH  17  18
ATOM     18  C   UNL     1      -0.172  -2.027  -1.265  0.00  0.00    +0.010 A 
ATOM     19  C   UNL     1       1.162  -2.262  -1.264  0.00  0.00    +0.013 A 
ATOM     20  C   UNL     1       1.823  -2.382  -2.473  0.00  0.00    +0.008 A 
ATOM     21  C   UNL     1       1.116  -2.260  -3.623  0.00  0.00    +0.045 A 
ATOM     22  S   UNL     1      -0.537  -1.974  -3.012  0.00  0.00    -0.100 S 
ENDBRANCH  17  18
BRANCH  17  23
ATOM     23  C   UNL     1      -1.374  -0.371   0.136  0.00  0.00    +0.014 C 
BRANCH  23  25
ATOM     24  C   UNL     1      -2.190   1.738  -0.925  0.00  0.00    +0.004 C 
ATOM     25  C   UNL     1      -2.037   0.227  -1.106  0.00  0.00    +0.002 C 
ENDBRANCH  23  25
BRANCH  23  26
ATOM     26  C   UNL     1      -2.302  -0.201   1.341  0.00  0.00    +0.002 C 
ATOM     27  C   UNL     1      -1.588  -0.678   2.607  0.00  0.00    +0.004 C 
ENDBRANCH  23  26
ENDBRANCH  17  23
ENDBRANCH   1  17
TORSDOF 7
