REMARK  Name = ZINC36244383
REMARK  7 active torsions:
REMARK  status: ('A' for Active; 'I' for Inactive)
REMARK    1  A    between atoms: C_1  and  C_2
REMARK    2  A    between atoms: C_7  and  C_13
REMARK    3  A    between atoms: C_8  and  C_11
REMARK    4  A    between atoms: C_11  and  O_12
REMARK    5  A    between atoms: C_13  and  C_14
REMARK    6  A    between atoms: C_13  and  C_15
REMARK    7  A    between atoms: C_13  and  C_16
REMARK                            x       y       z     vdW  Elec       q    Type
REMARK                         _______ _______ _______ _____ _____    ______ ____
ROOT
ATOM      1  C   UNL     1      -0.921   1.300  -0.220  0.00  0.00    +0.045 C 
ATOM      2  C   UNL     1      -0.620  -0.175  -0.159  0.00  0.00    -0.033 A 
ATOM      3  C   UNL     1      -0.550  -0.924  -1.345  0.00  0.00    +0.023 A 
ATOM      4  C   UNL     1      -0.278  -2.256  -1.287  0.00  0.00    +0.061 A 
ATOM      5  C   UNL     1      -0.069  -2.863  -0.031  0.00  0.00    +0.152 A 
ATOM      6  N   UNL     1       0.206  -4.111   0.322  0.00  0.00    -0.231 NA
ATOM      7  C   UNL     1       0.310  -4.177   1.651  0.00  0.00    +0.071 A 
ATOM      8  C   UNL     1       0.098  -2.945   2.163  0.00  0.00    +0.072 A 
ATOM      9  N   UNL     1      -0.143  -2.106   1.109  0.00  0.00    -0.300 N 
ATOM     10  C   UNL     1      -0.412  -0.769   1.035  0.00  0.00    +0.096 A 
ATOM     11 BR   UNL     1      -0.181  -3.282  -2.872  0.00  0.00    -0.047 Br
ENDROOT
BRANCH   7  12
ATOM     12  C   UNL     1       0.614  -5.419   2.449  0.00  0.00    +0.006 C 
ATOM     13  C   UNL     1       0.649  -6.630   1.514  0.00  0.00    +0.017 C 
ATOM     14  C   UNL     1       1.973  -5.265   3.135  0.00  0.00    +0.017 C 
ATOM     15  C   UNL     1      -0.471  -5.624   3.507  0.00  0.00    +0.017 C 
ENDBRANCH   7  12
BRANCH   8  16
ATOM     16  C   UNL     1       0.121  -2.565   3.621  0.00  0.00    +0.211 C 
BRANCH  16  17
ATOM     17  O   UNL     1      -1.212  -2.570   4.136  0.00  0.00    -0.389 OA
ATOM     18  H   UNL     1      -1.273  -2.334   5.071  0.00  0.00    +0.210 HD
ENDBRANCH  16  17
ENDBRANCH   8  16
TORSDOF 3
