REMARK  Name = ZINC01009253
REMARK  8 active torsions:
REMARK  status: ('A' for Active; 'I' for Inactive)
REMARK    1  A    between atoms: C_1  and  C_2
REMARK    2  A    between atoms: C_2  and  C_3
REMARK    3  A    between atoms: C_4  and  C_23
REMARK    4  A    between atoms: C_6  and  C_8
REMARK    5  A    between atoms: C_10  and  C_21
REMARK    6  A    between atoms: C_11  and  N_20
REMARK    7  A    between atoms: C_23  and  O_24
REMARK    8  A    between atoms: O_24  and  C_25
REMARK                            x       y       z     vdW  Elec       q    Type
REMARK                         _______ _______ _______ _____ _____    ______ ____
ROOT
ATOM      1  C   UNL     1       2.987   6.641  -0.463  0.00  0.00    -0.004 A 
ATOM      2  C   UNL     1       2.096   7.047  -1.400  0.00  0.00    +0.000 A 
ATOM      3  C   UNL     1       0.779   6.639  -1.295  0.00  0.00    +0.019 A 
ATOM      4  C   UNL     1       0.418   5.846  -0.257  0.00  0.00    +0.003 A 
ATOM      5  S   UNL     1       1.962   5.657   0.619  0.00  0.00    -0.097 S 
ENDROOT
BRANCH   4   6
ATOM      6  C   UNL     1      -0.937   5.276   0.075  0.00  0.00    +0.108 C 
ATOM      7  C   UNL     1      -1.372   5.778   1.423  0.00  0.00    +0.099 C 
ATOM      8  C   UNL     1      -1.274   4.983   2.516  0.00  0.00    +0.198 C 
ATOM      9  O   UNL     1      -0.787   3.735   2.430  0.00  0.00    -0.445 OA
ATOM     10  C   UNL     1      -0.797   3.093   1.246  0.00  0.00    +0.115 C 
ATOM     11  C   UNL     1      -0.858   3.768   0.084  0.00  0.00    +0.046 C 
ATOM     12  C   UNL     1      -0.854   3.097  -1.154  0.00  0.00    +0.163 C 
ATOM     13  O   UNL     1      -0.926   3.741  -2.181  0.00  0.00    -0.292 OA
ATOM     14  C   UNL     1      -0.762   1.597  -1.227  0.00  0.00    +0.080 C 
ATOM     15  C   UNL     1      -0.013   1.086   0.008  0.00  0.00    +0.016 C 
ATOM     16  C   UNL     1      -0.737   1.583   1.260  0.00  0.00    +0.075 C 
BRANCH   8  17
ATOM     17  N   UNL     1      -1.681   5.463   3.736  0.00  0.00    -0.328 N 
ATOM     18  H   UNL     1      -1.606   4.826   4.630  0.00  0.00    +0.145 HD
ATOM     19  H   UNL     1      -2.082   6.483   3.820  0.00  0.00    +0.145 HD
ENDBRANCH   8  17
BRANCH   7  20
ATOM     20  C   UNL     1      -1.893   7.106   1.554  0.00  0.00    +0.101 C 
ATOM     21  N   UNL     1      -2.307   8.159   1.658  0.00  0.00    -0.191 NA
ENDBRANCH   7  20
ENDBRANCH   4   6
BRANCH   1  23
ATOM     22  C   UNL     1       4.658   8.219   0.469  0.00  0.00    +0.009 C 
ATOM     23  C   UNL     1       4.459   6.946  -0.357  0.00  0.00    +0.039 C 
ENDBRANCH   1  23
BRANCH   2  24
ATOM     24  C   UNL     1       2.534   7.930  -2.540  0.00  0.00    +0.265 C 
BRANCH  24  25
ATOM     25  O   UNL     1       1.414   8.212  -3.382  0.00  0.00    -0.487 OA
BRANCH  25  26
ATOM     26  C   UNL     1       1.640   9.002  -4.465  0.00  0.00    +0.121 A 
ATOM     27  C   UNL     1       2.912   9.500  -4.708  0.00  0.00    +0.047 A 
ATOM     28  C   UNL     1       3.140  10.297  -5.813  0.00  0.00    +0.019 A 
ATOM     29  C   UNL     1       2.099  10.610  -6.669  0.00  0.00    +0.018 A 
ATOM     30  C   UNL     1       0.829  10.119  -6.424  0.00  0.00    +0.019 A 
ATOM     31  C   UNL     1       0.597   9.316  -5.324  0.00  0.00    +0.047 A 
ATOM     32 BR   UNL     1       2.413  11.707  -8.176  0.00  0.00    -0.050 Br
ENDBRANCH  25  26
ENDBRANCH  24  25
ENDBRANCH   2  24
TORSDOF 7
