REMARK  Name = ZINC45830262
REMARK  8 active torsions:
REMARK  status: ('A' for Active; 'I' for Inactive)
REMARK    1  A    between atoms: C_1  and  C_2
REMARK    2  A    between atoms: C_5  and  C_8
REMARK    3  A    between atoms: C_8  and  C_10
REMARK    4  A    between atoms: C_8  and  N_13
REMARK    5  A    between atoms: C_14  and  C_16
REMARK    6  A    between atoms: C_16  and  O_17
REMARK    7  A    between atoms: O_17  and  C_18
REMARK    8  A    between atoms: C_21  and  N_25
REMARK                            x       y       z     vdW  Elec       q    Type
REMARK                         _______ _______ _______ _____ _____    ______ ____
ROOT
ATOM      1  N   UNL     1      -0.816  -4.781   1.039  0.00  0.00    -0.305 N 
ATOM      2  C   UNL     1      -1.361  -6.009   0.935  0.00  0.00    +0.251 C 
ATOM      3  O   UNL     1      -1.125  -6.696  -0.037  0.00  0.00    -0.272 OA
ATOM      4  H   UNL     1      -1.004  -4.231   1.816  0.00  0.00    +0.149 HD
ENDROOT
BRANCH   1   5
ATOM      5  C   UNL     1       0.059  -4.275  -0.021  0.00  0.00    +0.106 C 
BRANCH   5  10
ATOM      6  C   UNL     1      -0.018   1.503   0.010  0.00  0.00    +0.044 C 
ATOM      7  C   UNL     1       0.002  -0.004   0.002  0.00  0.00    -0.050 A 
ATOM      8  C   UNL     1       0.006  -0.689  -1.199  0.00  0.00    +0.004 A 
ATOM      9  C   UNL     1       0.025  -2.071  -1.206  0.00  0.00    +0.006 A 
ATOM     10  C   UNL     1       0.040  -2.768  -0.013  0.00  0.00    -0.027 A 
ATOM     11  C   UNL     1       0.037  -2.084   1.188  0.00  0.00    +0.006 A 
ATOM     12  C   UNL     1       0.023  -0.702   1.195  0.00  0.00    +0.004 A 
ENDBRANCH   5  10
BRANCH   5  13
ATOM     13  C   UNL     1       1.488  -4.768   0.218  0.00  0.00    +0.014 C 
ATOM     14  C   UNL     1       2.203  -5.455  -0.947  0.00  0.00    +0.006 C 
ATOM     15  C   UNL     1       1.718  -6.281   0.246  0.00  0.00    +0.006 C 
ENDBRANCH   5  13
ENDBRANCH   1   5
BRANCH   2  16
ATOM     16  C   UNL     1      -2.261  -6.529   2.025  0.00  0.00    +0.324 C 
BRANCH  16  17
ATOM     17  O   UNL     1      -2.709  -7.843   1.687  0.00  0.00    -0.481 OA
BRANCH  17  18
ATOM     18  C   UNL     1      -3.536  -8.460   2.572  0.00  0.00    +0.140 A 
ATOM     19  C   UNL     1      -3.913  -7.812   3.739  0.00  0.00    +0.049 A 
ATOM     20  C   UNL     1      -4.754  -8.441   4.636  0.00  0.00    +0.036 A 
ATOM     21  C   UNL     1      -5.221  -9.716   4.373  0.00  0.00    +0.128 A 
ATOM     22  C   UNL     1      -4.847 -10.365   3.211  0.00  0.00    +0.056 A 
ATOM     23  C   UNL     1      -4.010  -9.738   2.307  0.00  0.00    +0.085 A 
ATOM     24 CL   UNL     1      -3.546 -10.550   0.844  0.00  0.00    -0.080 Cl
BRANCH  21  25
ATOM     25  N   UNL     1      -6.121 -10.387   5.337  0.00  0.00    +0.056 N 
ATOM     26  O   UNL     1      -6.448  -9.820   6.354  0.00  0.00    -0.126 OA
ATOM     27  O   UNL     1      -6.529 -11.501   5.108  0.00  0.00    -0.126 OA
ENDBRANCH  21  25
ENDBRANCH  17  18
ENDBRANCH  16  17
ENDBRANCH   2  16
TORSDOF 7
