REMARK  Name = ZINC20513342
REMARK  2 active torsions:
REMARK  status: ('A' for Active; 'I' for Inactive)
REMARK    1  A    between atoms: C_8  and  C_17
REMARK    2  A    between atoms: N_19  and  C_20
REMARK                            x       y       z     vdW  Elec       q    Type
REMARK                         _______ _______ _______ _____ _____    ______ ____
ROOT
ATOM      1  C   UNL     1      -4.379   4.474   4.074  0.00  0.00    +0.000 A 
ATOM      2  C   UNL     1      -4.746   3.739   5.187  0.00  0.00    +0.002 A 
ATOM      3  C   UNL     1      -4.619   2.365   5.188  0.00  0.00    +0.023 A 
ATOM      4  C   UNL     1      -4.119   1.707   4.066  0.00  0.00    +0.036 A 
ATOM      5  C   UNL     1      -3.753   2.457   2.954  0.00  0.00    -0.027 A 
ATOM      6  C   UNL     1      -3.881   3.828   2.956  0.00  0.00    +0.004 A 
ATOM      7  C   UNL     1      -3.259   1.468   1.931  0.00  0.00    +0.052 C 
ATOM      8  C   UNL     1      -1.792   1.746   1.567  0.00  0.00    +0.076 C 
ATOM      9  C   UNL     1      -1.743   1.411   0.052  0.00  0.00    -0.003 C 
ATOM     10  C   UNL     1      -3.140   1.879  -0.421  0.00  0.00    -0.066 C 
ATOM     11  N   UNL     1      -4.055   1.533   0.699  0.00  0.00    +0.394 N 
ATOM     12  C   UNL     1      -4.597   0.188   0.380  0.00  0.00    -0.077 C 
ATOM     13  C   UNL     1      -4.788   0.224  -1.155  0.00  0.00    -0.020 C 
ATOM     14  C   UNL     1      -3.569   1.042  -1.636  0.00  0.00    -0.017 C 
ATOM     15  C   UNL     1      -3.397   0.124   2.599  0.00  0.00    +0.212 C 
ATOM     16  O   UNL     1      -3.111  -0.953   2.122  0.00  0.00    -0.277 OA
ATOM     17  N   UNL     1      -3.900   0.349   3.827  0.00  0.00    -0.286 N 
ATOM     18  H   UNL     1      -4.136  -0.391   4.606  0.00  0.00    +0.155 HD
ATOM     19  H   UNL     1      -4.862   2.267   0.841  0.00  0.00    -0.079 HD
ENDROOT
BRANCH   8  20
ATOM     20  C   UNL     1      -1.448   3.195   1.804  0.00  0.00    +0.220 C 
ATOM     21  O   UNL     1      -1.950   4.058   1.115  0.00  0.00    -0.275 OA
ATOM     22  N   UNL     1      -0.584   3.531   2.782  0.00  0.00    -0.282 N 
ATOM     23  H   UNL     1      -0.087   2.746   3.371  0.00  0.00    +0.155 HD
BRANCH  22  24
ATOM     24  C   UNL     1      -0.317   4.881   3.048  0.00  0.00    +0.083 A 
ATOM     25  C   UNL     1       0.308   5.670   2.089  0.00  0.00    +0.148 A 
ATOM     26  C   UNL     1       0.569   7.002   2.354  0.00  0.00    +0.078 A 
ATOM     27  C   UNL     1       0.208   7.549   3.574  0.00  0.00    +0.127 A 
ATOM     28  C   UNL     1      -0.414   6.766   4.530  0.00  0.00    +0.055 A 
ATOM     29  C   UNL     1      -0.682   5.435   4.268  0.00  0.00    +0.045 A 
ATOM     30 BR   UNL     1      -1.539   4.367   5.573  0.00  0.00    -0.048 Br
ATOM     31  F   UNL     1       0.464   8.851   3.831  0.00  0.00    -0.205 F 
ATOM     32  F   UNL     1       0.660   5.136   0.899  0.00  0.00    -0.203 F 
ENDBRANCH  22  24
ENDBRANCH   8  20
TORSDOF 2
