REMARK  Name = ZINC18244474
REMARK  6 active torsions:
REMARK  status: ('A' for Active; 'I' for Inactive)
REMARK    1  A    between atoms: C_1  and  C_2
REMARK    2  A    between atoms: C_2  and  C_3
REMARK    3  A    between atoms: C_2  and  C_4
REMARK    4  A    between atoms: C_16  and  C_18
REMARK    5  A    between atoms: C_27  and  C_29
REMARK    6  A    between atoms: C_27  and  C_30
REMARK                            x       y       z     vdW  Elec       q    Type
REMARK                         _______ _______ _______ _____ _____    ______ ____
ROOT
ATOM      1  C   UNL     1       3.137  -0.294  -1.290  0.00  0.00    +0.223 C 
ATOM      2  O   UNL     1       3.665   0.444  -2.094  0.00  0.00    -0.275 OA
ATOM      3  N   UNL     1       2.527   0.218  -0.203  0.00  0.00    -0.258 N 
ATOM      4  C   UNL     1       1.923  -0.641   0.716  0.00  0.00    +0.058 A 
ATOM      5  C   UNL     1       2.672  -1.502   1.502  0.00  0.00    +0.025 A 
ATOM      6  C   UNL     1       2.042  -2.252   2.479  0.00  0.00    +0.002 A 
ATOM      7  C   UNL     1       0.676  -2.147   2.670  0.00  0.00    +0.002 A 
ATOM      8  C   UNL     1      -0.078  -1.306   1.871  0.00  0.00    +0.025 A 
ATOM      9  C   UNL     1       0.548  -0.568   0.881  0.00  0.00    +0.053 A 
ATOM     10  N   UNL     1      -0.153   0.259   0.013  0.00  0.00    -0.316 N 
ATOM     11  C   UNL     1      -0.033   1.610  -0.041  0.00  0.00    +0.017 C 
ATOM     12  C   UNL     1       1.135   2.275  -0.054  0.00  0.00    +0.037 C 
ATOM     13  C   UNL     1       2.509   1.652  -0.005  0.00  0.00    +0.147 C 
ATOM     14  C   UNL     1       1.149   3.689  -0.106  0.00  0.00    +0.163 C 
ATOM     15  O   UNL     1       2.219   4.263  -0.141  0.00  0.00    -0.292 OA
ATOM     16  C   UNL     1      -0.110   4.504  -0.119  0.00  0.00    +0.086 C 
ATOM     17  C   UNL     1      -1.211   3.714   0.600  0.00  0.00    -0.023 C 
ATOM     18  C   UNL     1      -1.350   2.365  -0.104  0.00  0.00    +0.058 C 
ATOM     19  C   UNL     1      -0.822   3.497   2.064  0.00  0.00    +0.011 C 
ATOM     20  C   UNL     1      -2.533   4.479   0.521  0.00  0.00    +0.011 C 
ATOM     21  H   UNL     1      -0.775  -0.161  -0.601  0.00  0.00    +0.152 HD
ENDROOT
BRANCH  13  22
ATOM     22  C   UNL     1       3.120   1.956   1.339  0.00  0.00    -0.019 A 
ATOM     23  C   UNL     1       2.580   1.425   2.500  0.00  0.00    +0.025 A 
ATOM     24  C   UNL     1       3.170   1.722   3.714  0.00  0.00    +0.111 A 
ATOM     25  N   UNL     1       4.226   2.509   3.776  0.00  0.00    -0.263 NA
ATOM     26  C   UNL     1       4.763   3.036   2.692  0.00  0.00    +0.111 A 
ATOM     27  C   UNL     1       4.231   2.779   1.443  0.00  0.00    +0.025 A 
ENDBRANCH  13  22
BRANCH   1  29
ATOM     28  C   UNL     1       1.730  -2.312  -1.604  0.00  0.00    +0.017 C 
ATOM     29  C   UNL     1       3.163  -1.786  -1.506  0.00  0.00    +0.069 C 
ATOM     30  C   UNL     1       3.912  -2.100  -2.803  0.00  0.00    +0.017 C 
ENDBRANCH   1  29
TORSDOF 2
