REMARK  Name = ZINC09135447
REMARK  10 active torsions:
REMARK  status: ('A' for Active; 'I' for Inactive)
REMARK    1  A    between atoms: C_1  and  C_2
REMARK    2  A    between atoms: C_7  and  N_8
REMARK    3  A    between atoms: C_9  and  C_11
REMARK    4  A    between atoms: N_13  and  C_14
REMARK    5  A    between atoms: C_14  and  C_15
REMARK    6  A    between atoms: C_15  and  C_17
REMARK    7  A    between atoms: C_15  and  N_59
REMARK    8  A    between atoms: N_26  and  C_27
REMARK    9  A    between atoms: C_28  and  N_59
REMARK   10  A    between atoms: C_29  and  N_59
REMARK                            x       y       z     vdW  Elec       q    Type
REMARK                         _______ _______ _______ _____ _____    ______ ____
ROOT
ATOM      1  C   UNL     1       2.490  -1.619   5.512  0.00  0.00    +0.094 C 
ENDROOT
BRANCH   1   4
ATOM      2  C   UNL     1       2.242  -2.283   7.843  0.00  0.00    +0.299 C 
ATOM      3  O   UNL     1       1.159  -1.735   7.854  0.00  0.00    -0.265 OA
ATOM      4  N   UNL     1       2.987  -2.282   6.720  0.00  0.00    -0.309 N 
ATOM      5  H   UNL     1       3.853  -2.719   6.712  0.00  0.00    +0.149 HD
BRANCH   2   7
ATOM      6  N   UNL     1       2.004  -2.959  10.198  0.00  0.00    -0.278 N 
ATOM      7  C   UNL     1       2.749  -2.958   9.075  0.00  0.00    +0.303 C 
ATOM      8  O   UNL     1       3.832  -3.506   9.065  0.00  0.00    -0.265 OA
ATOM      9  H   UNL     1       1.115  -2.571  10.191  0.00  0.00    +0.155 HD
BRANCH   6  16
ATOM     10  C   UNL     1       1.110  -1.905  12.685  0.00  0.00    +0.045 C 
ATOM     11  C   UNL     1       2.103  -3.036  12.609  0.00  0.00    -0.029 A 
ATOM     12  C   UNL     1       2.607  -3.593  13.768  0.00  0.00    +0.005 A 
ATOM     13  C   UNL     1       3.518  -4.631  13.700  0.00  0.00    +0.000 A 
ATOM     14  C   UNL     1       3.927  -5.115  12.471  0.00  0.00    +0.002 A 
ATOM     15  C   UNL     1       3.424  -4.566  11.308  0.00  0.00    +0.023 A 
ATOM     16  C   UNL     1       2.512  -3.520  11.373  0.00  0.00    +0.037 A 
ENDBRANCH   6  16
ENDBRANCH   2   7
ENDBRANCH   1   4
BRANCH   1  17
ATOM     17  C   UNL     1       3.520  -1.764   4.390  0.00  0.00    -0.021 C 
BRANCH  17  18
ATOM     18  C   UNL     1       2.958  -1.191   3.115  0.00  0.00    -0.059 A 
ATOM     19  C   UNL     1       1.753  -1.655   2.619  0.00  0.00    +0.004 A 
ATOM     20  C   UNL     1       1.242  -1.131   1.451  0.00  0.00    +0.023 A 
ATOM     21  C   UNL     1       1.933  -0.132   0.763  0.00  0.00    +0.033 A 
ATOM     22  C   UNL     1       3.135   0.333   1.267  0.00  0.00    -0.026 A 
ATOM     23  C   UNL     1       3.644  -0.201   2.440  0.00  0.00    +0.007 A 
ATOM     24  C   UNL     1       3.921   1.422   0.581  0.00  0.00    +0.038 C 
ATOM     25  C   UNL     1       3.413   1.600  -0.851  0.00  0.00    +0.024 C 
ATOM     26  C   UNL     1       1.881   1.666  -0.804  0.00  0.00    +0.105 C 
ATOM     27  N   UNL     1       1.367   0.352  -0.416  0.00  0.00    -0.333 N 
ATOM     28  C   UNL     1      -0.100   0.365  -0.329  0.00  0.00    +0.129 C 
ENDBRANCH  17  18
BRANCH  17  31
ATOM     29  C   UNL     1       2.672  -4.028   4.509  0.00  0.00    -0.096 C 
ATOM     30  C   UNL     1       4.306  -3.435   2.825  0.00  0.00    -0.096 C 
ATOM     31  N   UNL     1       3.854  -3.192   4.211  0.00  0.00    +0.382 N 
ATOM     32  H   UNL     1       4.611  -3.442   4.857  0.00  0.00    -0.082 HD
ENDBRANCH  17  31
ENDBRANCH   1  17
TORSDOF 6
