REMARK  Name = ZINC24089978
REMARK  10 active torsions:
REMARK  status: ('A' for Active; 'I' for Inactive)
REMARK    1  A    between atoms: C_1  and  O_2
REMARK    2  A    between atoms: O_2  and  C_3
REMARK    3  A    between atoms: C_6  and  O_9
REMARK    4  A    between atoms: O_9  and  C_10
REMARK    5  A    between atoms: C_10  and  C_11
REMARK    6  A    between atoms: C_11  and  C_13
REMARK    7  A    between atoms: C_11  and  O_31
REMARK    8  A    between atoms: C_13  and  S_14
REMARK    9  A    between atoms: S_14  and  C_15
REMARK   10  A    between atoms: N_24  and  C_25
REMARK                            x       y       z     vdW  Elec       q    Type
REMARK                         _______ _______ _______ _____ _____    ______ ____
ROOT
ATOM      1  C   UNL     1      -0.225   0.397  -2.934  0.00  0.00    +0.177 A 
ATOM      2  N   UNL     1       0.818  -0.338  -2.607  0.00  0.00    -0.216 NA
ATOM      3  C   UNL     1       1.923  -0.319  -3.343  0.00  0.00    +0.116 A 
ATOM      4  C   UNL     1       2.042   0.485  -4.493  0.00  0.00    +0.073 A 
ATOM      5  C   UNL     1       3.320   0.391  -5.177  0.00  0.00    +0.023 A 
ATOM      6  C   UNL     1       4.266  -0.424  -4.688  0.00  0.00    +0.048 A 
ATOM      7  S   UNL     1       3.495  -1.137  -3.248  0.00  0.00    -0.077 S 
ATOM      8  C   UNL     1       0.895   1.276  -4.821  0.00  0.00    +0.267 A 
ATOM      9  O   UNL     1       0.907   2.003  -5.799  0.00  0.00    -0.267 OA
ATOM     10  N   UNL     1      -0.195   1.206  -4.035  0.00  0.00    -0.255 N 
ENDROOT
BRANCH  10  11
ATOM     11  C   UNL     1      -1.321   1.978  -4.352  0.00  0.00    +0.052 A 
ATOM     12  C   UNL     1      -2.305   1.463  -5.185  0.00  0.00    +0.026 A 
ATOM     13  C   UNL     1      -3.417   2.224  -5.490  0.00  0.00    +0.002 A 
ATOM     14  C   UNL     1      -3.544   3.502  -4.978  0.00  0.00    +0.000 A 
ATOM     15  C   UNL     1      -2.562   4.020  -4.153  0.00  0.00    +0.002 A 
ATOM     16  C   UNL     1      -1.451   3.262  -3.839  0.00  0.00    +0.026 A 
ENDBRANCH  10  11
BRANCH   1  17
ATOM     17  S   UNL     1      -1.676   0.340  -1.936  0.00  0.00    -0.085 S 
BRANCH  17  18
ATOM     18  C   UNL     1      -1.147  -0.852  -0.681  0.00  0.00    +0.112 C 
BRANCH  18  19
ATOM     19  C   UNL     1      -2.279  -1.068   0.326  0.00  0.00    +0.162 C 
BRANCH  19  20
ATOM     20  O   UNL     1      -2.600   0.175   0.955  0.00  0.00    -0.388 OA
ATOM     21  H   UNL     1      -2.944   1.026   0.347  0.00  0.00    +0.210 HD
ENDBRANCH  19  20
BRANCH  19  22
ATOM     22  C   UNL     1      -1.832  -2.075   1.388  0.00  0.00    +0.261 C 
BRANCH  22  23
ATOM     23  O   UNL     1      -2.925  -2.365   2.260  0.00  0.00    -0.489 OA
BRANCH  23  27
ATOM     24  C   UNL     1      -2.225  -5.050   5.316  0.00  0.00    +0.120 A 
ATOM     25  C   UNL     1      -3.478  -4.474   5.173  0.00  0.00    +0.049 A 
ATOM     26  C   UNL     1      -3.713  -3.575   4.151  0.00  0.00    +0.049 A 
ATOM     27  C   UNL     1      -2.695  -3.249   3.267  0.00  0.00    +0.121 A 
ATOM     28  C   UNL     1      -1.443  -3.829   3.407  0.00  0.00    +0.049 A 
ATOM     29  C   UNL     1      -1.207  -4.724   4.433  0.00  0.00    +0.049 A 
BRANCH  24  31
ATOM     30  C   UNL     1      -0.680  -6.489   6.411  0.00  0.00    +0.277 C 
ATOM     31  O   UNL     1      -1.994  -5.934   6.323  0.00  0.00    -0.495 OA
ENDBRANCH  24  31
ENDBRANCH  23  27
ENDBRANCH  22  23
ENDBRANCH  19  22
ENDBRANCH  18  19
ENDBRANCH  17  18
ENDBRANCH   1  17
TORSDOF 9
