REMARK  Name = ZINC08873004
REMARK  4 active torsions:
REMARK  status: ('A' for Active; 'I' for Inactive)
REMARK    1  A    between atoms: C_5  and  N_7
REMARK    2  A    between atoms: C_13  and  C_26
REMARK    3  A    between atoms: N_15  and  N_16
REMARK    4  A    between atoms: C_17  and  C_18
REMARK                            x       y       z     vdW  Elec       q    Type
REMARK                         _______ _______ _______ _____ _____    ______ ____
ROOT
ATOM      1  N   UNL     1      -2.147   4.267   0.036  0.00  0.00    -0.268 N 
ATOM      2  C   UNL     1      -1.041   3.497   0.020  0.00  0.00    +0.310 C 
ATOM      3  O   UNL     1       0.059   4.014   0.021  0.00  0.00    -0.252 OA
ATOM      4  N   UNL     1      -1.155   2.155   0.003  0.00  0.00    -0.238 N 
ATOM      5  C   UNL     1      -0.015   1.361  -0.014  0.00  0.00    +0.224 A 
ATOM      6  N   UNL     1       1.220   1.799  -0.020  0.00  0.00    -0.213 NA
ATOM      7  C   UNL     1       2.067   0.741  -0.042  0.00  0.00    +0.093 A 
ATOM      8  C   UNL     1       1.321  -0.393  -0.050  0.00  0.00    +0.144 A 
ATOM      9  N   UNL     1       0.004  -0.003  -0.032  0.00  0.00    -0.207 N 
ATOM     10  H   UNL     1      -3.024   3.858  -0.031  0.00  0.00    +0.156 HD
ATOM     11  H   UNL     1      -2.033   1.742   0.002  0.00  0.00    +0.159 HD
ENDROOT
BRANCH   1  16
ATOM     12  C   UNL     1      -0.853   7.689  -0.336  0.00  0.00    +0.002 A 
ATOM     13  C   UNL     1      -1.800   8.407   0.371  0.00  0.00    +0.002 A 
ATOM     14  C   UNL     1      -2.863   7.754   0.968  0.00  0.00    +0.022 A 
ATOM     15  C   UNL     1      -2.981   6.381   0.859  0.00  0.00    +0.062 A 
ATOM     16  C   UNL     1      -2.031   5.658   0.148  0.00  0.00    +0.053 A 
ATOM     17  C   UNL     1      -0.962   6.317  -0.444  0.00  0.00    +0.025 A 
ATOM     18 CL   UNL     1      -4.315   5.561   1.609  0.00  0.00    -0.082 Cl
ENDBRANCH   1  16
BRANCH   7  19
ATOM     19  C   UNL     1       3.549   0.810  -0.056  0.00  0.00    +0.002 A 
ATOM     20  C   UNL     1       4.303  -0.362  -0.074  0.00  0.00    +0.013 A 
ATOM     21  C   UNL     1       5.681  -0.293  -0.093  0.00  0.00    +0.039 A 
ATOM     22  C   UNL     1       6.315   0.939  -0.083  0.00  0.00    +0.123 A 
ATOM     23  C   UNL     1       5.569   2.107  -0.059  0.00  0.00    +0.039 A 
ATOM     24  C   UNL     1       4.191   2.047  -0.046  0.00  0.00    +0.013 A 
ATOM     25  F   UNL     1       7.665   1.002  -0.095  0.00  0.00    -0.205 F 
ENDBRANCH   7  19
BRANCH   9  26
ATOM     26  N   UNL     1      -1.113  -0.849  -0.033  0.00  0.00    -0.172 NA
ATOM     27  C   UNL     1      -0.952  -2.137  -0.051  0.00  0.00    +0.142 C 
BRANCH  27  28
ATOM     28  C   UNL     1      -2.127  -3.027  -0.052  0.00  0.00    +0.013 A 
ATOM     29  C   UNL     1      -1.956  -4.414  -0.072  0.00  0.00    +0.012 A 
ATOM     30  C   UNL     1      -3.059  -5.241  -0.073  0.00  0.00    +0.021 A 
ATOM     31  C   UNL     1      -4.335  -4.700  -0.053  0.00  0.00    +0.042 A 
ATOM     32  C   UNL     1      -4.512  -3.328  -0.034  0.00  0.00    +0.040 A 
ATOM     33  C   UNL     1      -3.416  -2.488  -0.027  0.00  0.00    +0.051 A 
ATOM     34 CL   UNL     1      -3.639  -0.766   0.005  0.00  0.00    -0.083 Cl
ATOM     35 CL   UNL     1      -5.718  -5.750  -0.054  0.00  0.00    -0.083 Cl
ENDBRANCH  27  28
ENDBRANCH   9  26
TORSDOF 4
