REMARK  Name = ZINC00886326
REMARK  11 active torsions:
REMARK  status: ('A' for Active; 'I' for Inactive)
REMARK    1  A    between atoms: C_1  and  C_2
REMARK    2  A    between atoms: C_5  and  C_7
REMARK    3  A    between atoms: N_10  and  C_12
REMARK    4  A    between atoms: C_12  and  C_13
REMARK    5  A    between atoms: N_15  and  C_16
REMARK    6  A    between atoms: N_15  and  C_28
REMARK    7  A    between atoms: C_21  and  C_22
REMARK    8  A    between atoms: C_21  and  N_79
REMARK    9  A    between atoms: C_28  and  C_30
REMARK   10  A    between atoms: C_28  and  C_35
REMARK   11  A    between atoms: N_37  and  C_38
REMARK                            x       y       z     vdW  Elec       q    Type
REMARK                         _______ _______ _______ _____ _____    ______ ____
ROOT
ATOM      1  C   UNL     1      -2.670   2.920  -1.914  0.00  0.00    +0.240 C 
ATOM      2  O   UNL     1      -3.533   2.486  -2.647  0.00  0.00    -0.273 OA
ATOM      3  N   UNL     1      -2.249   2.190  -0.862  0.00  0.00    -0.281 N 
ENDROOT
BRANCH   3   4
ATOM      4  C   UNL     1      -2.835   0.872  -0.604  0.00  0.00    +0.074 C 
ATOM      5  C   UNL     1      -2.594  -0.040  -1.810  0.00  0.00    +0.004 C 
ATOM      6  C   UNL     1      -3.261  -1.394  -1.560  0.00  0.00    -0.077 C 
ATOM      7  C   UNL     1      -4.957  -0.367  -0.167  0.00  0.00    -0.077 C 
ATOM      8  C   UNL     1      -4.342   1.018  -0.376  0.00  0.00    +0.004 C 
ATOM      9  N   UNL     1      -4.713  -1.188  -1.373  0.00  0.00    +0.382 N 
ATOM     10  H   UNL     1      -5.088  -0.695  -2.192  0.00  0.00    -0.081 HD
BRANCH   9  11
ATOM     11  C   UNL     1      -5.396  -2.491  -1.242  0.00  0.00    -0.043 C 
BRANCH  11  12
ATOM     12  C   UNL     1      -4.921  -3.409  -2.339  0.00  0.00    -0.064 A 
ATOM     13  C   UNL     1      -5.574  -3.426  -3.558  0.00  0.00    +0.002 A 
ATOM     14  C   UNL     1      -5.135  -4.264  -4.566  0.00  0.00    +0.000 A 
ATOM     15  C   UNL     1      -4.049  -5.093  -4.352  0.00  0.00    +0.000 A 
ATOM     16  C   UNL     1      -3.400  -5.080  -3.131  0.00  0.00    +0.000 A 
ATOM     17  C   UNL     1      -3.835  -4.238  -2.126  0.00  0.00    +0.002 A 
ENDBRANCH  11  12
ENDBRANCH   9  11
ENDBRANCH   3   4
BRANCH   1  18
ATOM     18  C   UNL     1      -2.067   4.276  -2.180  0.00  0.00    +0.264 C 
BRANCH  18  22
ATOM     19  C   UNL     1      -3.080   5.387  -5.373  0.00  0.00    +0.239 A 
ATOM     20  N   UNL     1      -4.011   5.947  -4.585  0.00  0.00    -0.105 NA
ATOM     21  N   UNL     1      -3.740   5.605  -3.371  0.00  0.00    -0.045 NA
ATOM     22  N   UNL     1      -2.689   4.862  -3.370  0.00  0.00    -0.154 N 
ATOM     23  N   UNL     1      -2.265   4.718  -4.579  0.00  0.00    -0.127 NA
BRANCH  19  28
ATOM     24  C   UNL     1      -1.440   4.805 -10.082  0.00  0.00    +0.086 C 
ATOM     25  C   UNL     1      -2.271   5.249  -8.906  0.00  0.00    +0.103 A 
ATOM     26  C   UNL     1      -3.366   6.032  -8.968  0.00  0.00    +0.045 A 
ATOM     27  C   UNL     1      -3.833   6.193  -7.648  0.00  0.00    +0.053 A 
ATOM     28  C   UNL     1      -2.984   5.500  -6.845  0.00  0.00    +0.175 A 
ATOM     29  O   UNL     1      -2.043   4.930  -7.621  0.00  0.00    -0.457 OA
ENDBRANCH  19  28
ENDBRANCH  18  22
ENDBRANCH   1  18
BRANCH   3  30
ATOM     30  C   UNL     1      -1.206   2.714   0.023  0.00  0.00    +0.199 C 
BRANCH  30  31
ATOM     31  C   UNL     1      -0.022   1.781   0.012  0.00  0.00    +0.019 A 
ATOM     32  C   UNL     1       1.300   2.079   0.001  0.00  0.00    +0.013 A 
ATOM     33  C   UNL     1       2.220   1.048  -0.013  0.00  0.00    +0.008 A 
ATOM     34  C   UNL     1       1.773  -0.232  -0.016  0.00  0.00    +0.045 A 
ATOM     35  S   UNL     1       0.002  -0.004   0.002  0.00  0.00    -0.099 S 
ENDBRANCH  30  31
BRANCH  30  36
ATOM     36  C   UNL     1      -1.745   2.824   1.425  0.00  0.00    +0.239 C 
ATOM     37  O   UNL     1      -2.723   2.184   1.751  0.00  0.00    -0.273 OA
ATOM     38  N   UNL     1      -1.142   3.634   2.318  0.00  0.00    -0.311 N 
ATOM     39  H   UNL     1      -0.360   4.145   2.058  0.00  0.00    +0.149 HD
BRANCH  38  40
ATOM     40  C   UNL     1      -1.667   3.740   3.682  0.00  0.00    +0.073 C 
ATOM     41  C   UNL     1      -2.749   4.838   3.747  0.00  0.00    +0.022 C 
ATOM     42  C   UNL     1      -2.531   5.506   5.127  0.00  0.00    +0.002 C 
ATOM     43  C   UNL     1      -0.988   5.514   5.262  0.00  0.00    +0.002 C 
ATOM     44  C   UNL     1      -0.547   4.171   4.645  0.00  0.00    +0.022 C 
ENDBRANCH  38  40
ENDBRANCH  30  36
ENDBRANCH   3  30
TORSDOF 10
