REMARK  Name = ZINC07363972
REMARK  6 active torsions:
REMARK  status: ('A' for Active; 'I' for Inactive)
REMARK    1  A    between atoms: C_1  and  O_2
REMARK    2  A    between atoms: O_2  and  C_3
REMARK    3  A    between atoms: C_8  and  N_9
REMARK    4  A    between atoms: C_10  and  C_21
REMARK    5  A    between atoms: C_25  and  O_27
REMARK    6  A    between atoms: O_27  and  C_28
REMARK                            x       y       z     vdW  Elec       q    Type
REMARK                         _______ _______ _______ _____ _____    ______ ____
ROOT
ATOM      1  N   UNL     1       0.063  -2.795  -0.095  0.00  0.00    -0.241 N 
ATOM      2  C   UNL     1       0.941  -3.258   0.980  0.00  0.00    +0.198 C 
ATOM      3  N   UNL     1       0.204  -3.326   2.247  0.00  0.00    -0.321 N 
ATOM      4  C   UNL     1      -1.079  -3.864   2.247  0.00  0.00    +0.041 A 
ATOM      5  C   UNL     1      -1.604  -4.496   3.361  0.00  0.00    +0.024 A 
ATOM      6  C   UNL     1      -2.888  -5.005   3.317  0.00  0.00    +0.002 A 
ATOM      7  C   UNL     1      -3.653  -4.887   2.168  0.00  0.00    +0.001 A 
ATOM      8  C   UNL     1      -3.144  -4.264   1.048  0.00  0.00    +0.015 A 
ATOM      9  C   UNL     1      -1.849  -3.750   1.076  0.00  0.00    +0.058 A 
ATOM     10  C   UNL     1      -1.252  -3.093  -0.099  0.00  0.00    +0.254 C 
ATOM     11  O   UNL     1      -1.938  -2.827  -1.066  0.00  0.00    -0.270 OA
ATOM     12  H   UNL     1       0.604  -3.002   3.069  0.00  0.00    +0.148 HD
ENDROOT
BRANCH   2  13
ATOM     13  C   UNL     1       1.470  -4.627   0.636  0.00  0.00    -0.002 A 
ATOM     14  C   UNL     1       2.832  -4.862   0.647  0.00  0.00    +0.057 A 
ATOM     15  C   UNL     1       3.324  -6.120   0.336  0.00  0.00    +0.170 A 
ATOM     16  C   UNL     1       2.443  -7.145   0.003  0.00  0.00    +0.208 A 
ATOM     17  C   UNL     1       1.075  -6.902  -0.012  0.00  0.00    +0.166 A 
ATOM     18  C   UNL     1       0.592  -5.642   0.306  0.00  0.00    +0.056 A 
ATOM     19  O   UNL     1       3.166  -8.273  -0.265  0.00  0.00    -0.449 OA
ATOM     20  C   UNL     1       4.468  -8.038   0.304  0.00  0.00    +0.467 C 
ATOM     21  O   UNL     1       4.599  -6.604   0.278  0.00  0.00    -0.452 OA
BRANCH  17  22
ATOM     22  O   UNL     1       0.211  -7.901  -0.336  0.00  0.00    -0.491 OA
ATOM     23  C   UNL     1      -1.182  -7.580  -0.330  0.00  0.00    +0.277 C 
ENDBRANCH  17  22
ENDBRANCH   2  13
BRANCH   1  29
ATOM     24  C   UNL     1       0.549  -0.631  -1.065  0.00  0.00    +0.141 A 
ATOM     25  C   UNL     1       1.073   0.128  -2.099  0.00  0.00    +0.047 A 
ATOM     26  C   UNL     1       1.650  -0.494  -3.190  0.00  0.00    +0.004 A 
ATOM     27  C   UNL     1       1.697  -1.875  -3.259  0.00  0.00    +0.002 A 
ATOM     28  C   UNL     1       1.171  -2.639  -2.235  0.00  0.00    +0.027 A 
ATOM     29  C   UNL     1       0.596  -2.022  -1.134  0.00  0.00    +0.080 A 
BRANCH  24  31
ATOM     30  C   UNL     1      -0.026   1.409   0.014  0.00  0.00    +0.277 C 
ATOM     31  O   UNL     1      -0.013  -0.020   0.012  0.00  0.00    -0.493 OA
ENDBRANCH  24  31
ENDBRANCH   1  29
TORSDOF 4
