REMARK  Name = ZINC11557948
REMARK  7 active torsions:
REMARK  status: ('A' for Active; 'I' for Inactive)
REMARK    1  A    between atoms: C_1  and  C_2
REMARK    2  A    between atoms: C_5  and  N_9
REMARK    3  A    between atoms: C_10  and  C_12
REMARK    4  A    between atoms: C_12  and  C_13
REMARK    5  A    between atoms: C_14  and  C_27
REMARK    6  A    between atoms: C_18  and  C_23
REMARK    7  A    between atoms: C_21  and  C_22
REMARK                            x       y       z     vdW  Elec       q    Type
REMARK                         _______ _______ _______ _____ _____    ______ ____
ROOT
ATOM      1  C   UNL     1       3.275   3.038  -0.014  0.00  0.00    +0.004 A 
ATOM      2  C   UNL     1       4.033   1.861  -0.037  0.00  0.00    +0.047 A 
ATOM      3  N   UNL     1       3.438   0.689  -0.036  0.00  0.00    -0.216 NA
ATOM      4  C   UNL     1       2.104   0.597  -0.014  0.00  0.00    +0.254 A 
ATOM      5  N   UNL     1       1.276  -0.442  -0.009  0.00  0.00    -0.186 NA
ATOM      6  C   UNL     1       0.021  -0.015   0.016  0.00  0.00    +0.257 A 
ATOM      7  N   UNL     1       0.002   1.297   0.028  0.00  0.00    -0.139 NA
ATOM      8  N   UNL     1       1.335   1.727   0.009  0.00  0.00    -0.200 N 
ATOM      9  C   UNL     1       1.920   2.954   0.009  0.00  0.00    +0.049 A 
ATOM     10  C   UNL     1       1.077   4.203   0.035  0.00  0.00    +0.066 C 
ATOM     11  C   UNL     1       5.538   1.938  -0.061  0.00  0.00    +0.066 C 
ENDROOT
BRANCH   6  12
ATOM     12  C   UNL     1      -1.198  -0.901   0.028  0.00  0.00    +0.454 C 
ATOM     13  F   UNL     1      -1.395  -1.440  -1.248  0.00  0.00    -0.163 F 
ATOM     14  F   UNL     1      -1.011  -1.938   0.949  0.00  0.00    -0.163 F 
ATOM     15  F   UNL     1      -2.319  -0.148   0.394  0.00  0.00    -0.163 F 
ENDBRANCH   6  12
BRANCH   1  16
ATOM     16  C   UNL     1       3.955   4.383  -0.015  0.00  0.00    +0.134 C 
BRANCH  16  18
ATOM     17  N   UNL     1       4.751   6.027  -1.682  0.00  0.00    -0.284 N 
ATOM     18  C   UNL     1       4.157   4.842  -1.435  0.00  0.00    +0.222 C 
ATOM     19  O   UNL     1       3.785   4.147  -2.357  0.00  0.00    -0.275 OA
ATOM     20  H   UNL     1       4.976   6.619  -0.948  0.00  0.00    +0.155 HD
BRANCH  17  25
ATOM     21  C   UNL     1       5.936   7.548  -7.019  0.00  0.00    +0.044 C 
ATOM     22  C   UNL     1       5.621   7.144  -5.601  0.00  0.00    -0.049 A 
ATOM     23  C   UNL     1       5.506   5.805  -5.274  0.00  0.00    +0.005 A 
ATOM     24  C   UNL     1       5.218   5.432  -3.977  0.00  0.00    +0.024 A 
ATOM     25  C   UNL     1       5.043   6.402  -2.999  0.00  0.00    +0.047 A 
ATOM     26  C   UNL     1       5.154   7.747  -3.331  0.00  0.00    +0.039 A 
ATOM     27  C   UNL     1       5.447   8.113  -4.631  0.00  0.00    +0.020 A 
ATOM     28 BR   UNL     1       4.909   9.073  -2.006  0.00  0.00    -0.048 Br
ENDBRANCH  17  25
ENDBRANCH  16  18
ENDBRANCH   1  16
TORSDOF 4
