REMARK  Name = ZINC35544641
REMARK  5 active torsions:
REMARK  status: ('A' for Active; 'I' for Inactive)
REMARK    1  A    between atoms: C_1  and  C_2
REMARK    2  A    between atoms: C_2  and  N_3
REMARK    3  A    between atoms: N_3  and  C_4
REMARK    4  A    between atoms: C_4  and  C_6
REMARK    5  A    between atoms: C_4  and  C_13
REMARK                            x       y       z     vdW  Elec       q    Type
REMARK                         _______ _______ _______ _____ _____    ______ ____
ROOT
ATOM      1  C   UNL     1       0.710  -1.947  -1.215  0.00  0.00    -0.004 C 
ENDROOT
BRANCH   1   2
ATOM      2  C   UNL     1       1.520  -2.432  -2.389  0.00  0.00    +0.013 A 
ATOM      3  C   UNL     1       1.347  -1.855  -3.635  0.00  0.00    +0.131 A 
ATOM      4  C   UNL     1       2.091  -2.300  -4.714  0.00  0.00    +0.077 A 
ATOM      5  C   UNL     1       3.010  -3.322  -4.546  0.00  0.00    +0.129 A 
ATOM      6  C   UNL     1       3.184  -3.898  -3.300  0.00  0.00    +0.077 A 
ATOM      7  C   UNL     1       2.442  -3.450  -2.220  0.00  0.00    +0.131 A 
ATOM      8  F   UNL     1       2.616  -4.009  -1.002  0.00  0.00    -0.205 F 
ATOM      9  F   UNL     1       3.736  -3.757  -5.599  0.00  0.00    -0.205 F 
ATOM     10  F   UNL     1       0.450  -0.857  -3.799  0.00  0.00    -0.205 F 
ENDBRANCH   1   2
BRANCH   1  11
ATOM     11  C   UNL     1      -0.700  -2.467  -1.328  0.00  0.00    -0.057 A 
ATOM     12  C   UNL     1      -1.601  -1.844  -2.170  0.00  0.00    +0.003 A 
ATOM     13  C   UNL     1      -2.894  -2.322  -2.274  0.00  0.00    +0.014 A 
ATOM     14  C   UNL     1      -3.286  -3.423  -1.536  0.00  0.00    +0.013 A 
ATOM     15  C   UNL     1      -2.384  -4.047  -0.693  0.00  0.00    +0.014 A 
ATOM     16  C   UNL     1      -1.090  -3.572  -0.594  0.00  0.00    +0.003 A 
ATOM     17  I   UNL     1      -5.246  -4.147  -1.692  0.00  0.00    -0.044 I 
ENDBRANCH   1  11
BRANCH   1  18
ATOM     18  N   UNL     1       0.690  -0.478  -1.207  0.00  0.00    +0.386 N 
ATOM     19  H   UNL     1       0.202  -0.144  -2.024  0.00  0.00    -0.085 HD
ATOM     20  H   UNL     1       1.636  -0.129  -1.214  0.00  0.00    -0.085 HD
BRANCH  18  22
ATOM     21  C   UNL     1      -0.019   1.526   0.010  0.00  0.00    -0.017 C 
ATOM     22  C   UNL     1       0.002  -0.004   0.002  0.00  0.00    -0.085 C 
ENDBRANCH  18  22
ENDBRANCH   1  18
TORSDOF 4
