REMARK  Name = ZINC39449000
REMARK  6 active torsions:
REMARK  status: ('A' for Active; 'I' for Inactive)
REMARK    1  A    between atoms: C_4  and  C_7
REMARK    2  A    between atoms: C_7  and  C_8
REMARK    3  A    between atoms: C_18  and  C_21
REMARK    4  A    between atoms: C_26  and  O_27
REMARK    5  A    between atoms: N_30  and  C_31
REMARK    6  A    between atoms: C_31  and  C_32
REMARK                            x       y       z     vdW  Elec       q    Type
REMARK                         _______ _______ _______ _____ _____    ______ ____
ROOT
ATOM      1  C   UNL     1       4.285  -0.859   1.775  0.00  0.00    +0.082 C 
ATOM      2  C   UNL     1       5.577  -1.684   1.777  0.00  0.00    +0.103 C 
ATOM      3  C   UNL     1       6.665  -0.910   1.079  0.00  0.00    +0.183 C 
ATOM      4  O   UNL     1       7.546  -1.507   0.493  0.00  0.00    -0.290 OA
ATOM      5  C   UNL     1       6.669   0.503   1.097  0.00  0.00    +0.111 A 
ATOM      6  C   UNL     1       5.634   1.185   1.712  0.00  0.00    +0.081 A 
ATOM      7  C   UNL     1       5.642   2.653   1.739  0.00  0.00    +0.099 A 
ATOM      8  C   UNL     1       6.718   3.325   1.117  0.00  0.00    +0.067 A 
ATOM      9  C   UNL     1       6.750   4.718   1.126  0.00  0.00    +0.025 A 
ATOM     10  C   UNL     1       5.703   5.391   1.759  0.00  0.00    +0.004 A 
ATOM     11  C   UNL     1       4.673   4.653   2.353  0.00  0.00    +0.120 A 
ATOM     12  N   UNL     1       4.670   3.340   2.327  0.00  0.00    -0.252 NA
ATOM     13  C   UNL     1       7.776   2.532   0.475  0.00  0.00    +0.261 A 
ATOM     14  O   UNL     1       8.711   3.091  -0.068  0.00  0.00    -0.267 OA
ATOM     15  N   UNL     1       7.713   1.188   0.489  0.00  0.00    -0.299 N 
ATOM     16  N   UNL     1       4.595   0.482   2.294  0.00  0.00    -0.337 N 
ATOM     17  H   UNL     1       4.083   0.863   3.025  0.00  0.00    +0.146 HD
ENDROOT
BRANCH  10  18
ATOM     18  C   UNL     1       5.683   6.872   1.800  0.00  0.00    +0.025 A 
ATOM     19  C   UNL     1       6.812   7.577   2.215  0.00  0.00    +0.012 A 
ATOM     20  C   UNL     1       6.788   8.956   2.252  0.00  0.00    +0.001 A 
ATOM     21  C   UNL     1       5.647   9.643   1.878  0.00  0.00    +0.004 A 
ATOM     22  C   UNL     1       4.521   8.956   1.465  0.00  0.00    +0.046 A 
ATOM     23  C   UNL     1       4.533   7.571   1.419  0.00  0.00    +0.125 A 
BRANCH  23  24
ATOM     24  O   UNL     1       3.429   6.893   1.008  0.00  0.00    -0.506 OA
ATOM     25  H   UNL     1       2.816   6.670   1.722  0.00  0.00    +0.292 HD
ENDBRANCH  23  24
ENDBRANCH  10  18
BRANCH   1  26
ATOM     26  C   UNL     1       3.745  -0.749   0.348  0.00  0.00    +0.057 C 
BRANCH  26  30
ATOM     27  C   UNL     1      -0.010   1.288   0.399  0.00  0.00    +0.000 A 
ATOM     28  C   UNL     1       1.163   2.005   0.258  0.00  0.00    +0.000 A 
ATOM     29  C   UNL     1       2.378   1.346   0.242  0.00  0.00    +0.004 A 
ATOM     30  C   UNL     1       2.420  -0.030   0.367  0.00  0.00    -0.046 A 
ATOM     31  C   UNL     1       1.247  -0.748   0.509  0.00  0.00    +0.004 A 
ATOM     32  C   UNL     1       0.032  -0.089   0.523  0.00  0.00    +0.000 A 
ENDBRANCH  26  30
ENDBRANCH   1  26
BRANCH  15  33
ATOM     33  C   UNL     1       8.780   0.422  -0.159  0.00  0.00    +0.160 C 
BRANCH  33  34
ATOM     34  C   UNL     1       9.869   0.132   0.842  0.00  0.00    -0.028 A 
ATOM     35  C   UNL     1      10.831   1.088   1.113  0.00  0.00    +0.005 A 
ATOM     36  C   UNL     1      11.830   0.822   2.031  0.00  0.00    +0.000 A 
ATOM     37  C   UNL     1      11.867  -0.398   2.678  0.00  0.00    +0.000 A 
ATOM     38  C   UNL     1      10.905  -1.353   2.408  0.00  0.00    +0.000 A 
ATOM     39  C   UNL     1       9.903  -1.086   1.493  0.00  0.00    +0.005 A 
ENDBRANCH  33  34
ENDBRANCH  15  33
TORSDOF 6
