REMARK  Name = ZINC39663216
REMARK  5 active torsions:
REMARK  status: ('A' for Active; 'I' for Inactive)
REMARK    1  A    between atoms: C_4  and  S_7
REMARK    2  A    between atoms: S_7  and  C_8
REMARK    3  A    between atoms: C_9  and  C_14
REMARK    4  A    between atoms: C_18  and  C_27
REMARK    5  A    between atoms: N_29  and  C_30
REMARK                            x       y       z     vdW  Elec       q    Type
REMARK                         _______ _______ _______ _____ _____    ______ ____
ROOT
ATOM      1  C   UNL     1       5.877  -2.977   0.191  0.00  0.00    +0.249 C 
ATOM      2  O   UNL     1       6.193  -1.803   0.157  0.00  0.00    -0.270 OA
ATOM      3  N   UNL     1       6.828  -3.931   0.213  0.00  0.00    -0.296 N 
ATOM      4  C   UNL     1       6.641  -5.397   0.326  0.00  0.00    +0.121 C 
ATOM      5  C   UNL     1       7.693  -5.999  -0.633  0.00  0.00    +0.100 C 
ATOM      6  C   UNL     1       8.778  -4.916  -0.756  0.00  0.00    -0.004 C 
ATOM      7  C   UNL     1       8.297  -3.752   0.123  0.00  0.00    +0.115 C 
ATOM      8  C   UNL     1      10.115  -5.447  -0.247  0.00  0.00    -0.010 C 
ATOM      9  C   UNL     1      11.189  -4.372  -0.433  0.00  0.00    -0.082 C 
ATOM     10  N   UNL     1      11.289  -4.019  -1.854  0.00  0.00    +0.379 N 
ATOM     11  C   UNL     1      10.028  -3.423  -2.312  0.00  0.00    -0.082 C 
ATOM     12  C   UNL     1       8.905  -4.458  -2.205  0.00  0.00    -0.010 C 
ATOM     13  H   UNL     1      12.039  -3.355  -1.983  0.00  0.00    -0.086 HD
ATOM     14  H   UNL     1      11.483  -4.849  -2.393  0.00  0.00    -0.086 HD
ENDROOT
BRANCH   1  16
ATOM     15  C   UNL     1       3.506  -2.615  -0.522  0.00  0.00    +0.114 A 
ATOM     16  C   UNL     1       4.452  -3.356   0.207  0.00  0.00    +0.069 A 
ATOM     17  C   UNL     1       4.017  -4.459   0.950  0.00  0.00    +0.017 A 
ATOM     18  C   UNL     1       2.669  -4.773   0.932  0.00  0.00    +0.020 A 
ATOM     19  C   UNL     1       1.798  -3.996   0.190  0.00  0.00    +0.112 A 
ATOM     20  N   UNL     1       2.226  -2.957  -0.499  0.00  0.00    -0.248 NA
BRANCH  15  21
ATOM     21  S   UNL     1       4.023  -1.220  -1.467  0.00  0.00    -0.069 S 
BRANCH  21  25
ATOM     22  C   UNL     1       0.154   0.554  -3.013  0.00  0.00    +0.000 A 
ATOM     23  C   UNL     1       0.615   0.896  -1.754  0.00  0.00    +0.001 A 
ATOM     24  C   UNL     1       1.794   0.356  -1.280  0.00  0.00    +0.015 A 
ATOM     25  C   UNL     1       2.517  -0.530  -2.068  0.00  0.00    +0.014 A 
ATOM     26  C   UNL     1       2.051  -0.871  -3.332  0.00  0.00    +0.015 A 
ATOM     27  C   UNL     1       0.871  -0.328  -3.800  0.00  0.00    +0.001 A 
ENDBRANCH  21  25
ENDBRANCH  15  21
ENDBRANCH   1  16
BRANCH   5  28
ATOM     28  C   UNL     1       7.076  -6.282  -1.978  0.00  0.00    +0.218 C 
ATOM     29  O   UNL     1       6.218  -5.547  -2.418  0.00  0.00    -0.275 OA
ATOM     30  N   UNL     1       7.477  -7.353  -2.692  0.00  0.00    -0.314 N 
ATOM     31  H   UNL     1       8.164  -7.941  -2.339  0.00  0.00    +0.149 HD
BRANCH  30  32
ATOM     32  C   UNL     1       6.877  -7.628  -4.000  0.00  0.00    +0.059 C 
ATOM     33  C   UNL     1       7.610  -6.827  -5.079  0.00  0.00    -0.056 C 
ATOM     34  N   UNL     1       8.196  -7.736  -6.067  0.00  0.00    +0.381 N 
ATOM     35  C   UNL     1       9.178  -8.621  -5.435  0.00  0.00    -0.078 C 
ATOM     36  C   UNL     1       8.497  -9.481  -4.368  0.00  0.00    -0.014 C 
ATOM     37  C   UNL     1       7.003  -9.124  -4.319  0.00  0.00    +0.004 C 
ATOM     38  C   UNL     1       6.401  -9.375  -5.707  0.00  0.00    -0.014 C 
ATOM     39  C   UNL     1       7.151  -8.517  -6.733  0.00  0.00    -0.078 C 
ATOM     40  H   UNL     1       8.675  -7.185  -6.763  0.00  0.00    -0.082 HD
ENDBRANCH  30  32
ENDBRANCH   5  28
TORSDOF 5
