REMARK  Name = ZINC59824896
REMARK  10 active torsions:
REMARK  status: ('A' for Active; 'I' for Inactive)
REMARK    1  A    between atoms: C_1  and  C_2
REMARK    2  A    between atoms: C_5  and  S_23
REMARK    3  A    between atoms: C_7  and  C_8
REMARK    4  A    between atoms: N_10  and  C_11
REMARK    5  A    between atoms: C_11  and  C_12
REMARK    6  A    between atoms: C_12  and  C_13
REMARK    7  A    between atoms: C_13  and  N_14
REMARK    8  A    between atoms: N_14  and  C_15
REMARK    9  A    between atoms: N_14  and  C_16
REMARK   10  A    between atoms: S_23  and  N_26
REMARK                            x       y       z     vdW  Elec       q    Type
REMARK                         _______ _______ _______ _____ _____    ______ ____
ROOT
ATOM      1  C   UNL     1      -0.501   1.454   0.081  0.00  0.00    +0.044 C 
ATOM      2  C   UNL     1      -0.229  -0.027   0.036  0.00  0.00    -0.038 A 
ATOM      3  C   UNL     1      -0.329  -0.712  -1.158  0.00  0.00    +0.006 A 
ATOM      4  C   UNL     1      -0.080  -2.073  -1.201  0.00  0.00    +0.029 A 
ATOM      5  C   UNL     1       0.270  -2.755  -0.049  0.00  0.00    +0.106 A 
ATOM      6  C   UNL     1       0.373  -2.082   1.151  0.00  0.00    +0.041 A 
ATOM      7  C   UNL     1       0.128  -0.708   1.200  0.00  0.00    +0.041 A 
ENDROOT
BRANCH   7   8
ATOM      8  C   UNL     1       0.242   0.021   2.481  0.00  0.00    +0.244 C 
ATOM      9  O   UNL     1       0.140   1.232   2.503  0.00  0.00    -0.270 OA
ATOM     10  N   UNL     1       0.460  -0.658   3.626  0.00  0.00    -0.311 N 
ATOM     11  H   UNL     1       0.542  -1.624   3.608  0.00  0.00    +0.149 HD
BRANCH  10  12
ATOM     12  C   UNL     1       0.573   0.065   4.895  0.00  0.00    +0.106 C 
BRANCH  12  13
ATOM     13  C   UNL     1       0.817  -0.933   6.029  0.00  0.00    +0.037 C 
BRANCH  13  14
ATOM     14  C   UNL     1       0.935  -0.178   7.355  0.00  0.00    +0.106 C 
BRANCH  14  15
ATOM     15  N   UNL     1       1.169  -1.133   8.441  0.00  0.00    -0.331 N 
ATOM     16  C   UNL     1       2.538  -1.502   8.811  0.00  0.00    +0.129 C 
BRANCH  15  17
ATOM     17  C   UNL     1       0.086  -1.693   9.125  0.00  0.00    +0.065 A 
ATOM     18  C   UNL     1      -0.480  -2.880   8.680  0.00  0.00    +0.026 A 
ATOM     19  C   UNL     1      -1.550  -3.431   9.358  0.00  0.00    +0.002 A 
ATOM     20  C   UNL     1      -2.059  -2.803  10.479  0.00  0.00    +0.003 A 
ATOM     21  C   UNL     1      -1.499  -1.620  10.927  0.00  0.00    +0.040 A 
ATOM     22  C   UNL     1      -0.424  -1.066  10.257  0.00  0.00    +0.144 A 
ATOM     23  F   UNL     1       0.127   0.086  10.698  0.00  0.00    -0.204 F 
ENDBRANCH  15  17
ENDBRANCH  14  15
ENDBRANCH  13  14
ENDBRANCH  12  13
ENDBRANCH  10  12
ENDBRANCH   7   8
BRANCH   5  24
ATOM     24  S   UNL     1       0.583  -4.488  -0.114  0.00  0.00    +0.061 S 
ATOM     25  O   UNL     1       0.359  -4.991   1.196  0.00  0.00    -0.153 OA
ATOM     26  O   UNL     1      -0.112  -4.984  -1.250  0.00  0.00    -0.153 OA
BRANCH  24  27
ATOM     27  N   UNL     1       2.198  -4.681  -0.426  0.00  0.00    -0.177 NA
ATOM     28  C   UNL     1       2.690  -4.759  -1.808  0.00  0.00    +0.109 C 
ATOM     29  C   UNL     1       3.796  -3.716  -1.997  0.00  0.00    +0.017 C 
ATOM     30  C   UNL     1       4.876  -3.924  -0.933  0.00  0.00    +0.003 C 
ATOM     31  C   UNL     1       4.267  -3.736   0.458  0.00  0.00    +0.017 C 
ATOM     32  C   UNL     1       3.167  -4.773   0.675  0.00  0.00    +0.109 C 
ENDBRANCH  24  27
ENDBRANCH   5  24
TORSDOF 8
