REMARK  Name = ZINC38596009
REMARK  8 active torsions:
REMARK  status: ('A' for Active; 'I' for Inactive)
REMARK    1  A    between atoms: C_1  and  C_2
REMARK    2  A    between atoms: C_2  and  C_4
REMARK    3  A    between atoms: C_2  and  N_24
REMARK    4  A    between atoms: C_4  and  C_6
REMARK    5  A    between atoms: C_4  and  N_11
REMARK    6  A    between atoms: N_14  and  C_17
REMARK    7  A    between atoms: C_17  and  C_18
REMARK    8  A    between atoms: C_25  and  C_27
REMARK                            x       y       z     vdW  Elec       q    Type
REMARK                         _______ _______ _______ _____ _____    ______ ____
ROOT
ATOM      1  C   UNL     1      -1.393  -0.630  -0.028  0.00  0.00    +0.030 C 
ATOM      2  C   UNL     1      -0.022   0.046   0.032  0.00  0.00    +0.092 C 
ENDROOT
BRANCH   2   3
ATOM      3  N   UNL     1       0.761  -0.332  -1.147  0.00  0.00    -0.310 N 
ATOM      4  C   UNL     1       0.617   0.353  -2.299  0.00  0.00    +0.225 C 
ATOM      5  O   UNL     1      -0.160   1.282  -2.360  0.00  0.00    -0.275 OA
ATOM      6  H   UNL     1       1.383  -1.075  -1.099  0.00  0.00    +0.149 HD
BRANCH   4   7
ATOM      7  C   UNL     1       1.423  -0.036  -3.512  0.00  0.00    +0.142 C 
ATOM      8  C   UNL     1       2.889   0.060  -3.188  0.00  0.00    +0.011 A 
ATOM      9  C   UNL     1       3.487  -0.946  -2.450  0.00  0.00    +0.008 A 
ATOM     10  C   UNL     1       4.833  -0.876  -2.142  0.00  0.00    +0.001 A 
ATOM     11  C   UNL     1       5.586   0.201  -2.571  0.00  0.00    +0.004 A 
ATOM     12  C   UNL     1       4.994   1.208  -3.307  0.00  0.00    +0.046 A 
ATOM     13  C   UNL     1       3.640   1.141  -3.619  0.00  0.00    +0.133 A 
ATOM     14  O   UNL     1       3.077   2.137  -4.343  0.00  0.00    -0.455 OA
ATOM     15  C   UNL     1       1.919   1.919  -5.011  0.00  0.00    +0.133 A 
ATOM     16  C   UNL     1       1.075   0.880  -4.654  0.00  0.00    +0.011 A 
ATOM     17  C   UNL     1      -0.102   0.678  -5.352  0.00  0.00    +0.008 A 
ATOM     18  C   UNL     1      -0.438   1.508  -6.404  0.00  0.00    +0.001 A 
ATOM     19  C   UNL     1       0.402   2.546  -6.763  0.00  0.00    +0.004 A 
ATOM     20  C   UNL     1       1.578   2.753  -6.070  0.00  0.00    +0.046 A 
ENDBRANCH   4   7
ENDBRANCH   2   3
BRANCH   2  21
ATOM     21  C   UNL     1       0.713  -0.402   1.297  0.00  0.00    +0.113 C 
BRANCH  21  22
ATOM     22  N   UNL     1       2.048   0.211   1.331  0.00  0.00    -0.297 NA
ATOM     23  C   UNL     1       1.955   1.678   1.306  0.00  0.00    +0.066 C 
ATOM     24  C   UNL     1       3.364   2.275   1.282  0.00  0.00    -0.063 C 
ATOM     25  N   UNL     1       4.103   1.834   2.472  0.00  0.00    +0.384 N 
ATOM     26  C   UNL     1       4.208   0.369   2.471  0.00  0.00    -0.063 C 
ATOM     27  C   UNL     1       2.807  -0.244   2.505  0.00  0.00    +0.066 C 
ATOM     28  H   UNL     1       3.613   2.135   3.302  0.00  0.00    -0.081 HD
BRANCH  25  29
ATOM     29  C   UNL     1       5.449   2.422   2.458  0.00  0.00    -0.043 C 
BRANCH  29  30
ATOM     30  C   UNL     1       6.164   2.071   3.737  0.00  0.00    -0.064 A 
ATOM     31  C   UNL     1       6.058   2.901   4.838  0.00  0.00    +0.002 A 
ATOM     32  C   UNL     1       6.714   2.579   6.012  0.00  0.00    +0.000 A 
ATOM     33  C   UNL     1       7.475   1.427   6.085  0.00  0.00    +0.000 A 
ATOM     34  C   UNL     1       7.580   0.597   4.984  0.00  0.00    +0.000 A 
ATOM     35  C   UNL     1       6.920   0.917   3.812  0.00  0.00    +0.002 A 
ENDBRANCH  29  30
ENDBRANCH  25  29
ENDBRANCH  21  22
BRANCH  21  36
ATOM     36  C   UNL     1       0.850  -1.903   1.294  0.00  0.00    +0.009 A 
ATOM     37  C   UNL     1       0.104  -2.829   1.946  0.00  0.00    +0.013 A 
ATOM     38  C   UNL     1       0.415  -4.167   1.793  0.00  0.00    +0.008 A 
ATOM     39  C   UNL     1       1.455  -4.514   0.997  0.00  0.00    +0.045 A 
ATOM     40  S   UNL     1       2.030  -2.922   0.425  0.00  0.00    -0.100 S 
ENDBRANCH  21  36
ENDBRANCH   2  21
TORSDOF 7
