REMARK  Name = ZINC13351494
REMARK  6 active torsions:
REMARK  status: ('A' for Active; 'I' for Inactive)
REMARK    1  A    between atoms: C_1  and  O_2
REMARK    2  A    between atoms: O_2  and  C_3
REMARK    3  A    between atoms: C_3  and  C_5
REMARK    4  A    between atoms: C_9  and  N_11
REMARK    5  A    between atoms: N_14  and  C_15
REMARK    6  A    between atoms: C_20  and  C_21
REMARK                            x       y       z     vdW  Elec       q    Type
REMARK                         _______ _______ _______ _____ _____    ______ ____
ROOT
ATOM      1  N   UNL     1      -3.620   5.247   2.440  0.00  0.00    -0.269 N 
ATOM      2  C   UNL     1      -3.946   4.228   1.621  0.00  0.00    +0.308 C 
ATOM      3  O   UNL     1      -5.018   4.228   1.047  0.00  0.00    -0.252 OA
ATOM      4  N   UNL     1      -3.084   3.208   1.438  0.00  0.00    -0.269 N 
ATOM      5  H   UNL     1      -2.737   5.285   2.839  0.00  0.00    +0.156 HD
ATOM      6  H   UNL     1      -2.258   3.174   1.946  0.00  0.00    +0.156 HD
ENDROOT
BRANCH   1  11
ATOM      7  C   UNL     1      -6.834   6.945   3.059  0.00  0.00    +0.061 A 
ATOM      8  C   UNL     1      -6.397   8.257   3.259  0.00  0.00    +0.015 A 
ATOM      9  C   UNL     1      -5.053   8.555   3.187  0.00  0.00    +0.003 A 
ATOM     10  C   UNL     1      -4.132   7.558   2.921  0.00  0.00    +0.023 A 
ATOM     11  C   UNL     1      -4.556   6.251   2.714  0.00  0.00    +0.036 A 
ATOM     12  C   UNL     1      -5.905   5.941   2.785  0.00  0.00    +0.038 A 
BRANCH   7  13
ATOM     13  C   UNL     1      -8.273   6.622   3.136  0.00  0.00    +0.339 C 
ATOM     14  O   UNL     1      -8.650   5.481   2.962  0.00  0.00    -0.245 OA
BRANCH  13  16
ATOM     15  C   UNL     1     -10.565   7.205   3.462  0.00  0.00    +0.280 C 
ATOM     16  O   UNL     1      -9.168   7.594   3.401  0.00  0.00    -0.464 OA
ENDBRANCH  13  16
ENDBRANCH   7  13
ENDBRANCH   1  11
BRANCH   4  17
ATOM     17  C   UNL     1      -3.380   2.200   0.517  0.00  0.00    +0.044 A 
ATOM     18  C   UNL     1      -4.695   1.817   0.302  0.00  0.00    +0.024 A 
ATOM     19  C   UNL     1      -4.986   0.820  -0.610  0.00  0.00    +0.002 A 
ATOM     20  C   UNL     1      -3.970   0.197  -1.314  0.00  0.00    +0.001 A 
ATOM     21  C   UNL     1      -2.656   0.569  -1.115  0.00  0.00    +0.012 A 
ATOM     22  C   UNL     1      -2.348   1.571  -0.193  0.00  0.00    +0.020 A 
BRANCH  22  23
ATOM     23  C   UNL     1      -0.943   1.971   0.028  0.00  0.00    +0.049 A 
ATOM     24  C   UNL     1       0.112   1.120   0.089  0.00  0.00    +0.036 A 
ATOM     25  C   UNL     1       1.305   1.936   0.313  0.00  0.00    +0.000 A 
ATOM     26  C   UNL     1       2.664   1.644   0.458  0.00  0.00    +0.010 A 
ATOM     27  C   UNL     1       3.558   2.657   0.662  0.00  0.00    +0.001 A 
ATOM     28  C   UNL     1       3.126   3.975   0.727  0.00  0.00    +0.002 A 
ATOM     29  C   UNL     1       1.791   4.286   0.588  0.00  0.00    +0.026 A 
ATOM     30  C   UNL     1       0.863   3.271   0.379  0.00  0.00    +0.047 A 
ATOM     31  N   UNL     1      -0.504   3.262   0.206  0.00  0.00    -0.354 N 
ATOM     32  H   UNL     1      -1.071   4.049   0.206  0.00  0.00    +0.166 HD
ENDBRANCH  22  23
ENDBRANCH   4  17
TORSDOF 5
