REMARK  Name = ZINC28059784
REMARK  9 active torsions:
REMARK  status: ('A' for Active; 'I' for Inactive)
REMARK    1  A    between atoms: C_1  and  C_2
REMARK    2  A    between atoms: C_10  and  C_13
REMARK    3  A    between atoms: C_16  and  N_19
REMARK    4  A    between atoms: C_20  and  C_22
REMARK    5  A    between atoms: C_23  and  C_31
REMARK    6  A    between atoms: C_34  and  O_39
REMARK    7  A    between atoms: C_35  and  O_37
REMARK    8  A    between atoms: O_37  and  C_38
REMARK    9  A    between atoms: O_39  and  C_40
REMARK                            x       y       z     vdW  Elec       q    Type
REMARK                         _______ _______ _______ _____ _____    ______ ____
ROOT
ATOM      1  C   UNL     1       0.014   3.295   0.113  0.00  0.00    +0.044 C 
ATOM      2  C   UNL     1       0.308   1.817   0.075  0.00  0.00    -0.050 A 
ATOM      3  C   UNL     1      -0.735   0.908   0.028  0.00  0.00    +0.007 A 
ATOM      4  C   UNL     1      -0.481  -0.451  -0.009  0.00  0.00    +0.046 A 
ATOM      5  C   UNL     1       0.825  -0.906   0.002  0.00  0.00    +0.131 A 
ATOM      6  C   UNL     1       1.881   0.013   0.051  0.00  0.00    +0.038 A 
ATOM      7  C   UNL     1       1.618   1.377   0.086  0.00  0.00    +0.016 A 
ATOM      8  C   UNL     1       3.268  -0.509   0.066  0.00  0.00    +0.050 C 
ATOM      9  C   UNL     1       3.474  -1.776  -0.302  0.00  0.00    +0.025 C 
ATOM     10  C   UNL     1       2.297  -2.616  -0.740  0.00  0.00    +0.234 C 
ATOM     11  O   UNL     1       1.116  -2.231  -0.037  0.00  0.00    -0.479 OA
ATOM     12  C   UNL     1       4.848  -2.400  -0.311  0.00  0.00    +0.174 C 
ATOM     13  N   UNL     1       5.790  -1.548   0.400  0.00  0.00    -0.201 N 
ATOM     14  C   UNL     1       5.530  -0.263   0.757  0.00  0.00    +0.240 A 
ATOM     15  N   UNL     1       6.589   0.195   1.359  0.00  0.00    -0.092 NA
ATOM     16  N   UNL     1       7.500  -0.716   1.415  0.00  0.00    -0.021 NA
ATOM     17  N   UNL     1       7.084  -1.804   0.853  0.00  0.00    -0.042 NA
ATOM     18  N   UNL     1       4.312   0.331   0.471  0.00  0.00    -0.282 N 
ATOM     19  H   UNL     1       4.146   1.415   0.550  0.00  0.00    +0.155 HD
ENDROOT
BRANCH  10  20
ATOM     20  C   UNL     1       2.076  -2.431  -2.219  0.00  0.00    -0.003 A 
ATOM     21  C   UNL     1       2.422  -3.440  -3.100  0.00  0.00    +0.009 A 
ATOM     22  C   UNL     1       2.217  -3.275  -4.456  0.00  0.00    +0.024 A 
ATOM     23  C   UNL     1       1.672  -2.091  -4.935  0.00  0.00    +0.033 A 
ATOM     24  C   UNL     1       1.331  -1.078  -4.049  0.00  0.00    +0.024 A 
ATOM     25  C   UNL     1       1.534  -1.251  -2.694  0.00  0.00    +0.009 A 
BRANCH  23  26
ATOM     26  N   UNL     1       1.467  -1.919  -6.309  0.00  0.00    -0.286 N 
ATOM     27  C   UNL     1       1.592  -0.697  -6.861  0.00  0.00    +0.214 C 
ATOM     28  O   UNL     1       1.981   0.235  -6.189  0.00  0.00    -0.276 OA
ATOM     29  C   UNL     1       1.249  -0.487  -8.313  0.00  0.00    +0.109 C 
ATOM     30  H   UNL     1       1.204  -2.783  -6.938  0.00  0.00    +0.155 HD
ENDBRANCH  23  26
ENDBRANCH  10  20
BRANCH  12  31
ATOM     31  C   UNL     1       5.307  -2.571  -1.736  0.00  0.00    -0.015 A 
ATOM     32  C   UNL     1       5.440  -1.466  -2.556  0.00  0.00    +0.010 A 
ATOM     33  C   UNL     1       5.866  -1.617  -3.862  0.00  0.00    +0.050 A 
ATOM     34  C   UNL     1       6.150  -2.880  -4.356  0.00  0.00    +0.162 A 
ATOM     35  C   UNL     1       6.011  -3.994  -3.533  0.00  0.00    +0.162 A 
ATOM     36  C   UNL     1       5.589  -3.834  -2.223  0.00  0.00    +0.055 A 
BRANCH  35  37
ATOM     37  O   UNL     1       6.289  -5.235  -4.013  0.00  0.00    -0.491 OA
ATOM     38  C   UNL     1       6.124  -6.332  -3.112  0.00  0.00    +0.277 C 
ENDBRANCH  35  37
BRANCH  34  39
ATOM     39  O   UNL     1       6.564  -3.032  -5.643  0.00  0.00    -0.491 OA
ATOM     40  C   UNL     1       6.684  -1.845  -6.430  0.00  0.00    +0.277 C 
ENDBRANCH  34  39
ENDBRANCH  12  31
TORSDOF 5
