REMARK  Name = ZINC13810194
REMARK  7 active torsions:
REMARK  status: ('A' for Active; 'I' for Inactive)
REMARK    1  A    between atoms: C_1  and  C_2
REMARK    2  A    between atoms: C_5  and  C_8
REMARK    3  A    between atoms: C_10  and  C_33
REMARK    4  A    between atoms: C_11  and  N_13
REMARK    5  A    between atoms: N_13  and  N_14
REMARK    6  A    between atoms: N_22  and  C_25
REMARK    7  A    between atoms: C_25  and  C_26
REMARK                            x       y       z     vdW  Elec       q    Type
REMARK                         _______ _______ _______ _____ _____    ______ ____
ROOT
ATOM      1  N   UNL     1       0.102  -7.304   2.760  0.00  0.00    -0.174 NA
ATOM      2  C   UNL     1       0.117  -8.369   3.529  0.00  0.00    +0.153 C 
ATOM      3  C   UNL     1       0.112  -8.412   5.010  0.00  0.00    +0.028 A 
ATOM      4  C   UNL     1       0.092  -7.427   5.991  0.00  0.00    +0.012 A 
ATOM      5  C   UNL     1       0.094  -7.788   7.324  0.00  0.00    +0.001 A 
ATOM      6  C   UNL     1       0.115  -9.126   7.680  0.00  0.00    +0.002 A 
ATOM      7  C   UNL     1       0.136 -10.111   6.713  0.00  0.00    +0.024 A 
ATOM      8  C   UNL     1       0.134  -9.767   5.366  0.00  0.00    +0.046 A 
ATOM      9  N   UNL     1       0.151 -10.543   4.213  0.00  0.00    -0.261 N 
ATOM     10  C   UNL     1       0.136  -9.780   3.107  0.00  0.00    +0.272 C 
ATOM     11  O   UNL     1       0.140 -10.184   1.959  0.00  0.00    -0.268 OA
ENDROOT
BRANCH   1  12
ATOM     12  N   UNL     1       0.104  -7.435   1.476  0.00  0.00    -0.204 N 
ATOM     13  H   UNL     1       0.116  -8.320   1.079  0.00  0.00    +0.178 HD
BRANCH  12  17
ATOM     14  C   UNL     1       0.060  -4.251  -0.021  0.00  0.00    +0.231 A 
ATOM     15  N   UNL     1       0.070  -5.000  -1.094  0.00  0.00    -0.196 NA
ATOM     16  C   UNL     1       0.088  -6.298  -0.717  0.00  0.00    +0.203 A 
ATOM     17  C   UNL     1       0.088  -6.318   0.669  0.00  0.00    +0.244 A 
ATOM     18  O   UNL     1       0.076  -5.034   1.073  0.00  0.00    -0.419 OA
BRANCH  14  23
ATOM     19  C   UNL     1      -0.018   1.503   0.010  0.00  0.00    +0.044 C 
ATOM     20  C   UNL     1       0.002  -0.004   0.002  0.00  0.00    -0.050 A 
ATOM     21  C   UNL     1       0.006  -0.686  -1.202  0.00  0.00    +0.004 A 
ATOM     22  C   UNL     1       0.024  -2.066  -1.216  0.00  0.00    +0.013 A 
ATOM     23  C   UNL     1       0.040  -2.773  -0.013  0.00  0.00    +0.037 A 
ATOM     24  C   UNL     1       0.037  -2.079   1.198  0.00  0.00    +0.013 A 
ATOM     25  C   UNL     1       0.023  -0.699   1.198  0.00  0.00    +0.004 A 
ENDBRANCH  14  23
BRANCH  16  26
ATOM     26  C   UNL     1       0.103  -7.437  -1.585  0.00  0.00    +0.124 C 
ATOM     27  N   UNL     1       0.115  -8.340  -2.273  0.00  0.00    -0.189 NA
ENDBRANCH  16  26
ENDBRANCH  12  17
ENDBRANCH   1  12
BRANCH   9  28
ATOM     28  C   UNL     1       0.176 -12.008   4.206  0.00  0.00    +0.152 C 
BRANCH  28  29
ATOM     29  C   UNL     1      -1.236 -12.535   4.198  0.00  0.00    +0.005 A 
ATOM     30  C   UNL     1      -1.817 -12.972   5.373  0.00  0.00    +0.008 A 
ATOM     31  C   UNL     1      -3.112 -13.455   5.366  0.00  0.00    +0.000 A 
ATOM     32  C   UNL     1      -3.828 -13.501   4.184  0.00  0.00    +0.003 A 
ATOM     33  C   UNL     1      -3.249 -13.064   3.008  0.00  0.00    +0.038 A 
ATOM     34  C   UNL     1      -1.953 -12.575   3.014  0.00  0.00    +0.128 A 
ATOM     35  F   UNL     1      -1.388 -12.143   1.866  0.00  0.00    -0.205 F 
ENDBRANCH  28  29
ENDBRANCH   9  28
TORSDOF 6
