REMARK  Name = ZINC12804572
REMARK  7 active torsions:
REMARK  status: ('A' for Active; 'I' for Inactive)
REMARK    1  A    between atoms: C_1  and  C_2
REMARK    2  A    between atoms: C_3  and  C_15
REMARK    3  A    between atoms: C_4  and  N_14
REMARK    4  A    between atoms: N_5  and  C_7
REMARK    5  A    between atoms: C_15  and  O_27
REMARK    6  A    between atoms: C_18  and  O_25
REMARK    7  A    between atoms: O_25  and  C_26
REMARK                            x       y       z     vdW  Elec       q    Type
REMARK                         _______ _______ _______ _____ _____    ______ ____
ROOT
ATOM      1  C   UNL     1       2.526   1.381   2.810  0.00  0.00    +0.068 C 
ATOM      2  C   UNL     1       3.918   1.842   2.462  0.00  0.00    +0.069 A 
ATOM      3  C   UNL     1       4.335   2.310   1.213  0.00  0.00    +0.060 A 
ATOM      4  C   UNL     1       5.658   2.621   1.303  0.00  0.00    +0.127 A 
ATOM      5  N   UNL     1       6.052   2.360   2.579  0.00  0.00    -0.218 N 
ATOM      6  N   UNL     1       4.941   1.871   3.278  0.00  0.00    -0.170 NA
ENDROOT
BRANCH   3   7
ATOM      7  C   UNL     1       3.474   2.442  -0.018  0.00  0.00    +0.199 C 
ATOM      8  C   UNL     1       2.381   1.398  -0.013  0.00  0.00    +0.022 A 
ATOM      9  C   UNL     1       2.402   0.022  -0.020  0.00  0.00    +0.054 A 
ATOM     10  C   UNL     1       1.209  -0.688  -0.013  0.00  0.00    +0.121 A 
ATOM     11  C   UNL     1       0.002  -0.004   0.002  0.00  0.00    +0.047 A 
ATOM     12  C   UNL     1      -0.017   1.375   0.010  0.00  0.00    +0.027 A 
ATOM     13  C   UNL     1       1.178   2.092   0.002  0.00  0.00    +0.040 A 
ATOM     14  N   UNL     1       1.415   3.469   0.007  0.00  0.00    -0.282 N 
ATOM     15  C   UNL     1       2.728   3.759  -0.004  0.00  0.00    +0.258 C 
ATOM     16  O   UNL     1       3.221   4.867  -0.002  0.00  0.00    -0.272 OA
ATOM     17  H   UNL     1       0.714   4.139   0.017  0.00  0.00    +0.155 HD
BRANCH  10  18
ATOM     18  O   UNL     1       1.224  -2.048  -0.020  0.00  0.00    -0.495 OA
ATOM     19  C   UNL     1      -0.043  -2.710  -0.012  0.00  0.00    +0.277 C 
ENDBRANCH  10  18
BRANCH   7  20
ATOM     20  O   UNL     1       4.269   2.330  -1.200  0.00  0.00    -0.371 OA
ATOM     21  H   UNL     1       3.769   2.437  -2.021  0.00  0.00    +0.212 HD
ENDBRANCH   7  20
ENDBRANCH   3   7
BRANCH   5  22
ATOM     22  C   UNL     1       7.341   2.543   3.099  0.00  0.00    +0.068 A 
ATOM     23  C   UNL     1       8.452   2.317   2.298  0.00  0.00    +0.030 A 
ATOM     24  C   UNL     1       9.721   2.502   2.811  0.00  0.00    +0.040 A 
ATOM     25  C   UNL     1       9.886   2.903   4.126  0.00  0.00    +0.124 A 
ATOM     26  C   UNL     1       8.779   3.123   4.928  0.00  0.00    +0.040 A 
ATOM     27  C   UNL     1       7.508   2.944   4.418  0.00  0.00    +0.030 A 
ATOM     28  F   UNL     1      11.128   3.079   4.628  0.00  0.00    -0.205 F 
ENDBRANCH   5  22
BRANCH   4  29
ATOM     29  N   UNL     1       6.459   3.117   0.278  0.00  0.00    -0.343 N 
ATOM     30  H   UNL     1       6.081   3.272  -0.601  0.00  0.00    +0.144 HD
ATOM     31  H   UNL     1       7.395   3.308   0.444  0.00  0.00    +0.144 HD
ENDBRANCH   4  29
TORSDOF 5
