REMARK  Name = ZINC39687467
REMARK  6 active torsions:
REMARK  status: ('A' for Active; 'I' for Inactive)
REMARK    1  A    between atoms: C_4  and  C_7
REMARK    2  A    between atoms: C_7  and  C_8
REMARK    3  A    between atoms: C_8  and  C_9
REMARK    4  A    between atoms: C_9  and  C_10
REMARK    5  A    between atoms: C_14  and  C_23
REMARK    6  A    between atoms: N_25  and  C_26
REMARK                            x       y       z     vdW  Elec       q    Type
REMARK                         _______ _______ _______ _____ _____    ______ ____
ROOT
ATOM      1  C   UNL     1       5.986  -2.011   2.806  0.00  0.00    +0.216 C 
ATOM      2  O   UNL     1       5.294  -1.622   3.722  0.00  0.00    -0.276 OA
ATOM      3  N   UNL     1       7.152  -2.638   3.061  0.00  0.00    -0.300 N 
ATOM      4  C   UNL     1       8.127  -3.175   2.083  0.00  0.00    +0.121 C 
ATOM      5  C   UNL     1       9.509  -2.838   2.686  0.00  0.00    +0.100 C 
ATOM      6  C   UNL     1       9.254  -2.692   4.196  0.00  0.00    -0.004 C 
ATOM      7  C   UNL     1       7.750  -2.941   4.383  0.00  0.00    +0.115 C 
ATOM      8  C   UNL     1      10.062  -3.727   4.972  0.00  0.00    -0.010 C 
ATOM      9  C   UNL     1       9.837  -3.524   6.473  0.00  0.00    -0.082 C 
ATOM     10  N   UNL     1      10.249  -2.167   6.852  0.00  0.00    +0.379 N 
ATOM     11  C   UNL     1       9.403  -1.178   6.171  0.00  0.00    -0.082 C 
ATOM     12  C   UNL     1       9.611  -1.282   4.658  0.00  0.00    -0.010 C 
ATOM     13  H   UNL     1      10.156  -2.056   7.851  0.00  0.00    -0.086 HD
ATOM     14  H   UNL     1      11.212  -2.023   6.588  0.00  0.00    -0.086 HD
ENDROOT
BRANCH   5  15
ATOM     15  C   UNL     1      10.032  -1.547   2.112  0.00  0.00    +0.218 C 
ATOM     16  O   UNL     1       9.259  -0.717   1.683  0.00  0.00    -0.275 OA
ATOM     17  N   UNL     1      11.359  -1.314   2.076  0.00  0.00    -0.312 N 
ATOM     18  H   UNL     1      11.978  -1.977   2.419  0.00  0.00    +0.149 HD
BRANCH  17  19
ATOM     19  C   UNL     1      11.867  -0.058   1.518  0.00  0.00    +0.076 C 
ATOM     20  C   UNL     1      11.996  -0.190  -0.001  0.00  0.00    +0.041 C 
ATOM     21  C   UNL     1      12.494   1.136  -0.584  0.00  0.00    +0.108 C 
ATOM     22  N   UNL     1      13.741   1.513   0.096  0.00  0.00    -0.317 N 
ATOM     23  C   UNL     1      13.752   1.581   1.564  0.00  0.00    +0.108 C 
ATOM     24  C   UNL     1      13.239   0.251   2.123  0.00  0.00    +0.041 C 
ATOM     25  C   UNL     1      14.888   1.799  -0.635  0.00  0.00    +0.099 A 
ATOM     26  C   UNL     1      16.091   2.020   0.029  0.00  0.00    +0.042 A 
ATOM     27  C   UNL     1      17.224   2.304  -0.711  0.00  0.00    +0.005 A 
ATOM     28  C   UNL     1      17.117   2.358  -2.095  0.00  0.00    +0.018 A 
ATOM     29  C   UNL     1      15.892   2.128  -2.687  0.00  0.00    +0.084 A 
ATOM     30  N   UNL     1      14.827   1.854  -1.956  0.00  0.00    -0.350 N 
ATOM     31  H   UNL     1      13.979   1.693  -2.398  0.00  0.00    +0.166 HD
ENDBRANCH  17  19
ENDBRANCH   5  15
BRANCH   1  32
ATOM     32  C   UNL     1       5.543  -1.794   1.382  0.00  0.00    +0.096 C 
BRANCH  32  33
ATOM     33  C   UNL     1       4.197  -1.066   1.372  0.00  0.00    +0.014 C 
BRANCH  33  34
ATOM     34  C   UNL     1       3.748  -0.846  -0.074  0.00  0.00    +0.035 C 
BRANCH  34  38
ATOM     35  C   UNL     1      -0.009   1.188  -0.105  0.00  0.00    +0.000 A 
ATOM     36  C   UNL     1       1.169   1.911  -0.116  0.00  0.00    +0.000 A 
ATOM     37  C   UNL     1       2.385   1.253  -0.106  0.00  0.00    +0.003 A 
ATOM     38  C   UNL     1       2.422  -0.128  -0.084  0.00  0.00    -0.047 A 
ATOM     39  C   UNL     1       1.245  -0.852  -0.072  0.00  0.00    +0.003 A 
ATOM     40  C   UNL     1       0.029  -0.194  -0.084  0.00  0.00    +0.000 A 
ENDBRANCH  34  38
ENDBRANCH  33  34
ENDBRANCH  32  33
ENDBRANCH   1  32
TORSDOF 6
