REMARK  Name = ZINC33312770
REMARK  8 active torsions:
REMARK  status: ('A' for Active; 'I' for Inactive)
REMARK    1  A    between atoms: C_1  and  C_2
REMARK    2  A    between atoms: C_2  and  C_3
REMARK    3  A    between atoms: C_2  and  C_4
REMARK    4  A    between atoms: C_7  and  C_10
REMARK    5  A    between atoms: C_10  and  N_11
REMARK    6  A    between atoms: C_12  and  C_14
REMARK    7  A    between atoms: C_14  and  N_15
REMARK    8  A    between atoms: C_24  and  C_26
REMARK                            x       y       z     vdW  Elec       q    Type
REMARK                         _______ _______ _______ _____ _____    ______ ____
ROOT
ATOM      1  N   UNL     1      -2.104   5.263   0.476  0.00  0.00    +0.396 N 
ATOM      2  C   UNL     1      -1.081   5.784  -0.444  0.00  0.00    -0.072 C 
ATOM      3  C   UNL     1       0.190   4.950  -0.278  0.00  0.00    +0.017 C 
ATOM      4  C   UNL     1      -0.142   3.483  -0.370  0.00  0.00    -0.047 A 
ATOM      5  C   UNL     1       0.889   2.584  -0.597  0.00  0.00    +0.004 A 
ATOM      6  C   UNL     1       0.629   1.231  -0.684  0.00  0.00    +0.000 A 
ATOM      7  C   UNL     1      -0.666   0.769  -0.543  0.00  0.00    +0.000 A 
ATOM      8  C   UNL     1      -1.694   1.663  -0.322  0.00  0.00    +0.003 A 
ATOM      9  C   UNL     1      -1.434   3.023  -0.231  0.00  0.00    -0.049 A 
ATOM     10  C   UNL     1      -2.589   3.960   0.010  0.00  0.00    +0.051 C 
ATOM     11  H   UNL     1      -1.648   5.127   1.467  0.00  0.00    -0.080 HD
ENDROOT
BRANCH  10  12
ATOM     12  C   UNL     1      -3.500   3.366   1.054  0.00  0.00    +0.206 C 
ATOM     13  O   UNL     1      -3.255   3.520   2.231  0.00  0.00    -0.277 OA
ATOM     14  N   UNL     1      -4.588   2.665   0.678  0.00  0.00    -0.303 N 
ATOM     15  C   UNL     1      -4.956   2.329  -0.706  0.00  0.00    +0.108 C 
ATOM     16  C   UNL     1      -6.283   1.544  -0.650  0.00  0.00    +0.020 C 
ATOM     17  C   UNL     1      -6.884   1.979   0.713  0.00  0.00    +0.020 C 
ATOM     18  C   UNL     1      -5.611   2.114   1.586  0.00  0.00    +0.108 C 
ENDBRANCH  10  12
BRANCH   1  19
ATOM     19  C   UNL     1      -3.213   6.215   0.623  0.00  0.00    +0.020 C 
BRANCH  19  21
ATOM     20  N   UNL     1      -3.538   8.516   1.471  0.00  0.00    -0.313 N 
ATOM     21  C   UNL     1      -2.725   7.449   1.336  0.00  0.00    +0.197 C 
ATOM     22  O   UNL     1      -1.601   7.482   1.790  0.00  0.00    -0.278 OA
ATOM     23  H   UNL     1      -4.557   8.486   1.060  0.00  0.00    +0.149 HD
BRANCH  20  24
ATOM     24  C   UNL     1      -3.062   9.716   2.165  0.00  0.00    +0.139 C 
BRANCH  24  28
ATOM     25  C   UNL     1      -6.158  12.659   2.201  0.00  0.00    -0.045 A 
ATOM     26  C   UNL     1      -6.062  11.743   3.233  0.00  0.00    +0.004 A 
ATOM     27  C   UNL     1      -5.061  10.791   3.221  0.00  0.00    +0.005 A 
ATOM     28  C   UNL     1      -4.155  10.754   2.178  0.00  0.00    -0.030 A 
ATOM     29  C   UNL     1      -4.247  11.673   1.149  0.00  0.00    +0.005 A 
ATOM     30  C   UNL     1      -5.251  12.623   1.159  0.00  0.00    +0.004 A 
BRANCH  25  32
ATOM     31  C   UNL     1      -6.626  15.094   2.218  0.00  0.00    +0.012 C 
ATOM     32  C   UNL     1      -7.250  13.697   2.214  0.00  0.00    +0.013 C 
ATOM     33  C   UNL     1      -8.125  13.533   0.970  0.00  0.00    +0.012 C 
ENDBRANCH  25  32
ENDBRANCH  24  28
ENDBRANCH  20  24
ENDBRANCH  19  21
ENDBRANCH   1  19
TORSDOF 6
