REMARK  Name = ZINC64407879
REMARK  7 active torsions:
REMARK  status: ('A' for Active; 'I' for Inactive)
REMARK    1  A    between atoms: C_1  and  C_2
REMARK    2  A    between atoms: C_2  and  C_3
REMARK    3  A    between atoms: C_2  and  C_4
REMARK    4  A    between atoms: C_12  and  N_21
REMARK    5  A    between atoms: C_14  and  C_16
REMARK    6  A    between atoms: C_22  and  C_24
REMARK    7  A    between atoms: C_24  and  C_25
REMARK                            x       y       z     vdW  Elec       q    Type
REMARK                         _______ _______ _______ _____ _____    ______ ____
ROOT
ATOM      1  C   UNL     1       0.731  -0.503   1.223  0.00  0.00    +0.034 C 
ATOM      2  N   UNL     1       1.309   0.320   2.046  0.00  0.00    -0.221 NA
ATOM      3  C   UNL     1       1.966  -0.099   3.144  0.00  0.00    +0.245 C 
ATOM      4  N   UNL     1       2.101  -1.355   3.510  0.00  0.00    -0.143 NA
ATOM      5  C   UNL     1       1.578  -2.357   2.796  0.00  0.00    +0.245 C 
ATOM      6  O   UNL     1       1.707  -3.515   3.140  0.00  0.00    -0.273 OA
ATOM      7  C   UNL     1       0.811  -1.985   1.540  0.00  0.00    +0.149 C 
ATOM      8  N   UNL     1       2.542   0.862   3.945  0.00  0.00    -0.185 N 
ATOM      9  C   UNL     1       3.250   0.634   5.092  0.00  0.00    +0.132 A 
ATOM     10  C   UNL     1       3.644   1.837   5.580  0.00  0.00    +0.074 A 
ATOM     11  C   UNL     1       3.163   2.835   4.705  0.00  0.00    +0.102 A 
ATOM     12  N   UNL     1       2.509   2.245   3.726  0.00  0.00    -0.162 NA
ENDROOT
BRANCH  11  13
ATOM     13  C   UNL     1       3.364   4.291   4.859  0.00  0.00    +0.039 A 
ATOM     14  C   UNL     1       2.924   5.312   4.059  0.00  0.00    +0.018 A 
ATOM     15  C   UNL     1       3.238   6.608   4.407  0.00  0.00    +0.008 A 
ATOM     16  C   UNL     1       3.970   6.833   5.528  0.00  0.00    +0.046 A 
ATOM     17  S   UNL     1       4.236   5.178   6.141  0.00  0.00    -0.095 S 
ENDBRANCH  11  13
BRANCH   9  18
ATOM     18  N   UNL     1       3.519  -0.610   5.659  0.00  0.00    -0.270 N 
ATOM     19  C   UNL     1       4.234  -0.691   6.798  0.00  0.00    +0.223 C 
ATOM     20  O   UNL     1       4.643   0.319   7.331  0.00  0.00    -0.275 OA
ATOM     21  H   UNL     1       3.191  -1.417   5.233  0.00  0.00    +0.156 HD
BRANCH  19  22
ATOM     22  C   UNL     1       4.524  -2.037   7.411  0.00  0.00    +0.131 C 
BRANCH  22  23
ATOM     23  C   UNL     1       5.333  -1.852   8.669  0.00  0.00    -0.039 A 
ATOM     24  C   UNL     1       6.714  -1.835   8.607  0.00  0.00    +0.005 A 
ATOM     25  C   UNL     1       7.456  -1.665   9.760  0.00  0.00    +0.020 A 
ATOM     26  C   UNL     1       6.817  -1.513  10.977  0.00  0.00    +0.041 A 
ATOM     27  C   UNL     1       5.435  -1.530  11.040  0.00  0.00    +0.020 A 
ATOM     28  C   UNL     1       4.693  -1.694   9.885  0.00  0.00    +0.005 A 
ATOM     29 CL   UNL     1       7.749  -1.300  12.427  0.00  0.00    -0.084 Cl
ENDBRANCH  22  23
ENDBRANCH  19  22
ENDBRANCH   9  18
BRANCH   1  31
ATOM     30  C   UNL     1      -0.019   1.526   0.010  0.00  0.00    +0.013 C 
ATOM     31  C   UNL     1       0.002  -0.004   0.002  0.00  0.00    +0.028 C 
ATOM     32  C   UNL     1       0.718  -0.497  -1.257  0.00  0.00    +0.013 C 
ENDBRANCH   1  31
TORSDOF 5
