REMARK  Name = ZINC14712749
REMARK  13 active torsions:
REMARK  status: ('A' for Active; 'I' for Inactive)
REMARK    1  A    between atoms: C_1  and  C_2
REMARK    2  A    between atoms: C_4  and  C_16
REMARK    3  A    between atoms: C_6  and  C_11
REMARK    4  A    between atoms: C_16  and  O_18
REMARK    5  A    between atoms: O_18  and  C_19
REMARK    6  A    between atoms: C_19  and  C_20
REMARK    7  A    between atoms: C_21  and  C_30
REMARK    8  A    between atoms: C_22  and  N_29
REMARK    9  A    between atoms: C_24  and  C_25
REMARK   10  A    between atoms: C_25  and  O_27
REMARK   11  A    between atoms: O_27  and  C_28
REMARK   12  A    between atoms: C_30  and  O_32
REMARK   13  A    between atoms: O_32  and  C_33
REMARK                            x       y       z     vdW  Elec       q    Type
REMARK                         _______ _______ _______ _____ _____    ______ ____
ROOT
ATOM      1  O   UNL     1      -1.524  -1.330  -1.368  0.00  0.00    -0.456 OA
ENDROOT
BRANCH   1   2
ATOM      2  C   UNL     1      -2.609  -2.108  -1.544  0.00  0.00    +0.340 C 
ATOM      3  O   UNL     1      -3.150  -2.621  -0.586  0.00  0.00    -0.245 OA
BRANCH   2   7
ATOM      4  C   UNL     1      -5.291  -3.620  -0.698  0.00  0.00    +0.070 C 
ATOM      5  C   UNL     1      -5.361  -3.589  -2.203  0.00  0.00    +0.091 A 
ATOM      6  C   UNL     1      -4.367  -3.010  -3.104  0.00  0.00    +0.077 A 
ATOM      7  C   UNL     1      -3.140  -2.339  -2.905  0.00  0.00    +0.075 A 
ATOM      8  C   UNL     1      -2.445  -1.906  -4.029  0.00  0.00    +0.044 A 
ATOM      9  C   UNL     1      -2.986  -2.145  -5.299  0.00  0.00    +0.082 A 
ATOM     10  N   UNL     1      -4.144  -2.775  -5.447  0.00  0.00    -0.209 NA
ATOM     11  C   UNL     1      -4.844  -3.207  -4.411  0.00  0.00    +0.260 A 
ATOM     12  O   UNL     1      -6.021  -3.857  -4.304  0.00  0.00    -0.334 OA
ATOM     13  N   UNL     1      -6.312  -4.079  -2.939  0.00  0.00    -0.080 NA
BRANCH   9  14
ATOM     14  C   UNL     1      -2.253  -1.688  -6.494  0.00  0.00    +0.038 A 
ATOM     15  C   UNL     1      -2.593  -1.815  -7.817  0.00  0.00    +0.017 A 
ATOM     16  C   UNL     1      -1.742  -1.304  -8.770  0.00  0.00    +0.008 A 
ATOM     17  C   UNL     1      -0.595  -0.692  -8.374  0.00  0.00    +0.046 A 
ATOM     18  S   UNL     1      -0.697  -0.820  -6.596  0.00  0.00    -0.095 S 
ENDBRANCH   9  14
ENDBRANCH   2   7
ENDBRANCH   1   2
BRANCH   1  19
ATOM     19  C   UNL     1      -1.058  -1.148  -0.005  0.00  0.00    +0.270 C 
BRANCH  19  20
ATOM     20  C   UNL     1       0.156  -0.254  -0.004  0.00  0.00    +0.027 A 
ATOM     21  C   UNL     1       1.434  -0.779  -0.117  0.00  0.00    +0.094 A 
ATOM     22  C   UNL     1       2.509   0.119  -0.108  0.00  0.00    +0.078 A 
ATOM     23  S   UNL     1       1.728   1.658   0.054  0.00  0.00    -0.066 S 
ATOM     24  C   UNL     1       0.034   1.105   0.107  0.00  0.00    +0.105 A 
BRANCH  22  25
ATOM     25  N   UNL     1       3.854  -0.153  -0.205  0.00  0.00    -0.352 N 
ATOM     26  H   UNL     1       4.158  -1.070  -0.292  0.00  0.00    +0.143 HD
ATOM     27  H   UNL     1       4.498   0.572  -0.185  0.00  0.00    +0.143 HD
ENDBRANCH  22  25
BRANCH  24  28
ATOM     28  C   UNL     1      -1.183   1.905   0.232  0.00  0.00    +0.346 C 
ATOM     29  O   UNL     1      -2.270   1.360   0.246  0.00  0.00    -0.244 OA
BRANCH  28  30
ATOM     30  O   UNL     1      -1.100   3.248   0.331  0.00  0.00    -0.464 OA
ATOM     31  C   UNL     1      -2.330   3.967   0.451  0.00  0.00    +0.280 C 
ENDBRANCH  28  30
ENDBRANCH  24  28
BRANCH  21  32
ATOM     32  C   UNL     1       1.652  -2.223  -0.240  0.00  0.00    +0.342 C 
ATOM     33  O   UNL     1       1.684  -2.742  -1.339  0.00  0.00    -0.245 OA
BRANCH  32  34
ATOM     34  O   UNL     1       1.819  -2.977   0.866  0.00  0.00    -0.464 OA
ATOM     35  C   UNL     1       2.030  -4.399   0.669  0.00  0.00    +0.280 C 
ENDBRANCH  32  34
ENDBRANCH  21  32
ENDBRANCH  19  20
ENDBRANCH   1  19
TORSDOF 10
