REMARK  Name = ZINC13693067
REMARK  6 active torsions:
REMARK  status: ('A' for Active; 'I' for Inactive)
REMARK    1  A    between atoms: C_1  and  C_2
REMARK    2  A    between atoms: C_2  and  C_3
REMARK    3  A    between atoms: C_6  and  N_9
REMARK    4  A    between atoms: C_14  and  C_17
REMARK    5  A    between atoms: C_17  and  C_18
REMARK    6  A    between atoms: N_20  and  C_21
REMARK                            x       y       z     vdW  Elec       q    Type
REMARK                         _______ _______ _______ _____ _____    ______ ____
ROOT
ATOM      1  N   UNL     1      -5.283   2.853  -3.004  0.00  0.00    -0.289 N 
ATOM      2  C   UNL     1      -4.943   2.416  -1.757  0.00  0.00    +0.177 C 
ATOM      3  N   UNL     1      -5.720   1.665  -1.007  0.00  0.00    -0.150 NA
ATOM      4  C   UNL     1      -5.166   1.371   0.166  0.00  0.00    +0.260 C 
ATOM      5  O   UNL     1      -5.650   0.698   1.055  0.00  0.00    -0.272 OA
ATOM      6  C   UNL     1      -3.809   2.046   0.168  0.00  0.00    +0.169 C 
ATOM      7  N   UNL     1      -3.761   2.709  -1.148  0.00  0.00    -0.307 N 
ATOM      8  H   UNL     1      -4.703   3.470  -3.477  0.00  0.00    +0.155 HD
ATOM      9  H   UNL     1      -3.035   3.244  -1.507  0.00  0.00    +0.149 HD
ENDROOT
BRANCH   1  13
ATOM     10  C   UNL     1      -8.814   1.536  -4.780  0.00  0.00    -0.048 A 
ATOM     11  C   UNL     1      -8.330   2.800  -5.061  0.00  0.00    +0.005 A 
ATOM     12  C   UNL     1      -7.159   3.240  -4.474  0.00  0.00    +0.023 A 
ATOM     13  C   UNL     1      -6.469   2.410  -3.600  0.00  0.00    +0.033 A 
ATOM     14  C   UNL     1      -6.954   1.139  -3.324  0.00  0.00    +0.023 A 
ATOM     15  C   UNL     1      -8.128   0.708  -3.910  0.00  0.00    +0.005 A 
BRANCH  10  17
ATOM     16  C   UNL     1      -9.769   0.363  -6.745  0.00  0.00    +0.009 C 
ATOM     17  C   UNL     1     -10.091   1.060  -5.422  0.00  0.00    +0.032 C 
ENDBRANCH  10  17
ENDBRANCH   1  13
BRANCH   6  18
ATOM     18  C   UNL     1      -2.690   1.009   0.291  0.00  0.00    +0.127 C 
BRANCH  18  19
ATOM     19  C   UNL     1      -1.354   1.706   0.261  0.00  0.00    +0.215 C 
ATOM     20  O   UNL     1      -1.302   2.913   0.150  0.00  0.00    -0.276 OA
ATOM     21  N   UNL     1      -0.218   0.988   0.355  0.00  0.00    -0.312 N 
ATOM     22  H   UNL     1      -0.259   0.023   0.444  0.00  0.00    +0.149 HD
BRANCH  21  23
ATOM     23  C   UNL     1       1.081   1.665   0.319  0.00  0.00    +0.073 C 
ATOM     24  C   UNL     1       1.504   1.879  -1.135  0.00  0.00    +0.022 C 
ATOM     25  C   UNL     1       2.861   2.586  -1.173  0.00  0.00    +0.002 C 
ATOM     26  C   UNL     1       3.905   1.724  -0.460  0.00  0.00    +0.000 C 
ATOM     27  C   UNL     1       3.482   1.509   0.994  0.00  0.00    +0.002 C 
ATOM     28  C   UNL     1       2.125   0.802   1.032  0.00  0.00    +0.022 C 
ENDBRANCH  21  23
ENDBRANCH  18  19
ENDBRANCH   6  18
TORSDOF 5
