REMARK  Name = ZINC17953162
REMARK  15 active torsions:
REMARK  status: ('A' for Active; 'I' for Inactive)
REMARK    1  A    between atoms: C_1  and  C_2
REMARK    2  A    between atoms: C_2  and  C_3
REMARK    3  A    between atoms: C_2  and  N_4
REMARK    4  A    between atoms: N_4  and  C_5
REMARK    5  A    between atoms: C_5  and  C_6
REMARK    6  A    between atoms: C_5  and  C_7
REMARK    7  A    between atoms: C_8  and  C_10
REMARK    8  A    between atoms: C_10  and  S_11
REMARK    9  A    between atoms: S_11  and  C_12
REMARK   10  A    between atoms: C_15  and  C_21
REMARK   11  A    between atoms: N_16  and  C_17
REMARK   12  A    between atoms: C_17  and  C_18
REMARK   13  A    between atoms: C_18  and  O_19
REMARK   14  A    between atoms: O_19  and  C_20
REMARK   15  A    between atoms: C_30  and  O_31
REMARK                            x       y       z     vdW  Elec       q    Type
REMARK                         _______ _______ _______ _____ _____    ______ ____
ROOT
ATOM      1  C   UNL     1      -0.260  -1.980   6.053  0.00  0.00    +0.192 A 
ATOM      2  N   UNL     1       0.930  -1.567   6.427  0.00  0.00    -0.122 NA
ATOM      3  N   UNL     1       1.141  -1.878   7.656  0.00  0.00    -0.128 NA
ATOM      4  C   UNL     1       0.097  -2.510   8.143  0.00  0.00    +0.168 A 
ATOM      5  N   UNL     1      -0.834  -2.589   7.133  0.00  0.00    -0.300 N 
ENDROOT
BRANCH   4   6
ATOM      6  C   UNL     1      -0.050  -3.031   9.517  0.00  0.00    +0.061 A 
ATOM      7  C   UNL     1      -1.198  -2.752  10.239  0.00  0.00    +0.023 A 
ATOM      8  C   UNL     1      -1.333  -3.250  11.543  0.00  0.00    -0.017 A 
ATOM      9  C   UNL     1      -2.486  -2.986  12.305  0.00  0.00    +0.008 A 
ATOM     10  C   UNL     1      -2.587  -3.484  13.568  0.00  0.00    +0.001 A 
ATOM     11  C   UNL     1      -1.564  -4.253  14.120  0.00  0.00    +0.001 A 
ATOM     12  C   UNL     1      -0.434  -4.529  13.413  0.00  0.00    +0.008 A 
ATOM     13  C   UNL     1      -0.292  -4.033  12.105  0.00  0.00    -0.014 A 
ATOM     14  C   UNL     1       0.864  -4.301  11.351  0.00  0.00    +0.054 A 
ATOM     15  C   UNL     1       0.977  -3.816  10.083  0.00  0.00    +0.128 A 
BRANCH  15  16
ATOM     16  O   UNL     1       2.094  -4.084   9.358  0.00  0.00    -0.506 OA
ATOM     17  H   UNL     1       2.826  -3.476   9.524  0.00  0.00    +0.292 HD
ENDBRANCH  15  16
ENDBRANCH   4   6
BRANCH   1  18
ATOM     18  S   UNL     1      -0.984  -1.780   4.460  0.00  0.00    -0.077 S 
BRANCH  18  19
ATOM     19  C   UNL     1       0.287  -0.902   3.508  0.00  0.00    +0.173 C 
BRANCH  19  21
ATOM     20  N   UNL     1       0.621  -0.164   1.171  0.00  0.00    -0.296 N 
ATOM     21  C   UNL     1      -0.211  -0.664   2.105  0.00  0.00    +0.226 C 
ATOM     22  O   UNL     1      -1.360  -0.923   1.818  0.00  0.00    -0.275 OA
BRANCH  20  24
ATOM     23  C   UNL     1       0.345   1.679  -0.413  0.00  0.00    +0.028 C 
ATOM     24  C   UNL     1       0.107   0.190  -0.154  0.00  0.00    +0.070 C 
ATOM     25  C   UNL     1       0.831  -0.635  -1.220  0.00  0.00    +0.028 C 
ENDBRANCH  20  24
BRANCH  20  26
ATOM     26  C   UNL     1       2.041   0.027   1.480  0.00  0.00    +0.070 C 
ATOM     27  C   UNL     1       2.177   0.838   2.770  0.00  0.00    +0.028 C 
ATOM     28  C   UNL     1       2.710  -1.337   1.662  0.00  0.00    +0.028 C 
ENDBRANCH  20  26
ENDBRANCH  19  21
ENDBRANCH  18  19
ENDBRANCH   1  18
BRANCH   5  29
ATOM     29  C   UNL     1      -2.163  -3.203   7.201  0.00  0.00    +0.154 C 
BRANCH  29  30
ATOM     30  C   UNL     1      -2.046  -4.705   6.935  0.00  0.00    +0.181 C 
BRANCH  30  31
ATOM     31  O   UNL     1      -3.351  -5.283   6.887  0.00  0.00    -0.381 OA
ATOM     32  C   UNL     1      -3.355  -6.691   6.642  0.00  0.00    +0.194 C 
ENDBRANCH  30  31
ENDBRANCH  29  30
ENDBRANCH   5  29
TORSDOF 10
