REMARK  Name = ZINC17730015
REMARK  10 active torsions:
REMARK  status: ('A' for Active; 'I' for Inactive)
REMARK    1  A    between atoms: C_1  and  C_2
REMARK    2  A    between atoms: N_9  and  N_10
REMARK    3  A    between atoms: C_11  and  C_13
REMARK    4  A    between atoms: C_13  and  O_14
REMARK    5  A    between atoms: O_14  and  C_15
REMARK    6  A    between atoms: C_18  and  C_22
REMARK    7  A    between atoms: C_20  and  C_21
REMARK    8  A    between atoms: C_22  and  C_23
REMARK    9  A    between atoms: C_22  and  C_24
REMARK   10  A    between atoms: N_27  and  C_28
REMARK                            x       y       z     vdW  Elec       q    Type
REMARK                         _______ _______ _______ _____ _____    ______ ____
ROOT
ATOM      1  N   UNL     1       0.077  -4.009   4.423  0.00  0.00    -0.203 N 
ATOM      2  C   UNL     1       0.080  -3.804   5.755  0.00  0.00    +0.270 C 
ATOM      3  O   UNL     1       0.067  -2.675   6.195  0.00  0.00    -0.270 OA
ATOM      4  H   UNL     1       0.087  -4.913   4.071  0.00  0.00    +0.177 HD
ENDROOT
BRANCH   1  13
ATOM      5  C   UNL     1      -0.018   1.503   0.010  0.00  0.00    +0.044 C 
ATOM      6  C   UNL     1       0.002  -0.004   0.002  0.00  0.00    -0.050 A 
ATOM      7  C   UNL     1       0.006  -0.689  -1.201  0.00  0.00    +0.005 A 
ATOM      8  C   UNL     1       0.024  -2.069  -1.225  0.00  0.00    +0.024 A 
ATOM      9  C   UNL     1       0.039  -2.787  -0.034  0.00  0.00    +0.046 A 
ATOM     10  C   UNL     1       0.035  -2.090   1.181  0.00  0.00    +0.029 A 
ATOM     11  C   UNL     1       0.023  -0.700   1.194  0.00  0.00    +0.015 A 
ATOM     12  C   UNL     1       0.054  -3.115   2.251  0.00  0.00    +0.153 C 
ATOM     13  N   UNL     1       0.058  -2.916   3.547  0.00  0.00    -0.174 NA
ATOM     14  C   UNL     1       0.069  -4.409   1.539  0.00  0.00    +0.271 C 
ATOM     15  O   UNL     1       0.086  -5.511   2.056  0.00  0.00    -0.268 OA
ATOM     16  N   UNL     1       0.059  -4.154   0.220  0.00  0.00    -0.269 N 
ATOM     17  C   UNL     1       0.068  -5.186  -0.820  0.00  0.00    +0.138 C 
ENDBRANCH   1  13
BRANCH   2  18
ATOM     18  C   UNL     1       0.101  -4.980   6.698  0.00  0.00    +0.326 C 
BRANCH  18  19
ATOM     19  O   UNL     1       0.101  -4.509   8.047  0.00  0.00    -0.482 OA
BRANCH  19  20
ATOM     20  C   UNL     1       0.118  -5.449   9.028  0.00  0.00    +0.124 A 
ATOM     21  C   UNL     1       0.140  -6.796   8.700  0.00  0.00    +0.046 A 
ATOM     22  C   UNL     1       0.159  -7.749   9.700  0.00  0.00    +0.007 A 
ATOM     23  C   UNL     1       0.154  -7.361  11.027  0.00  0.00    -0.044 A 
ATOM     24  C   UNL     1       0.131  -6.019  11.357  0.00  0.00    +0.010 A 
ATOM     25  C   UNL     1       0.119  -5.062  10.361  0.00  0.00    -0.009 A 
ATOM     26  C   UNL     1       0.100  -3.598  10.721  0.00  0.00    +0.047 C 
BRANCH  23  27
ATOM     27  C   UNL     1       0.174  -8.403  12.115  0.00  0.00    +0.013 C 
ATOM     28  C   UNL     1      -1.060  -9.298  11.987  0.00  0.00    +0.012 C 
ATOM     29  C   UNL     1       1.438  -9.255  11.983  0.00  0.00    +0.012 C 
ENDBRANCH  23  27
ENDBRANCH  19  20
ENDBRANCH  18  19
ENDBRANCH   2  18
TORSDOF 5
