REMARK  Name = ZINC33936804
REMARK  15 active torsions:
REMARK  status: ('A' for Active; 'I' for Inactive)
REMARK    1  A    between atoms: C_1  and  C_2
REMARK    2  A    between atoms: C_2  and  O_3
REMARK    3  A    between atoms: O_3  and  C_4
REMARK    4  A    between atoms: C_7  and  C_10
REMARK    5  A    between atoms: C_10  and  N_11
REMARK    6  A    between atoms: N_11  and  C_12
REMARK    7  A    between atoms: N_11  and  C_19
REMARK    8  A    between atoms: C_12  and  C_13
REMARK    9  A    between atoms: C_19  and  C_21
REMARK   10  A    between atoms: C_19  and  C_34
REMARK   11  A    between atoms: C_25  and  C_33
REMARK   12  A    between atoms: N_38  and  C_39
REMARK   13  A    between atoms: C_39  and  C_40
REMARK   14  A    between atoms: C_39  and  C_41
REMARK   15  A    between atoms: C_39  and  C_42
REMARK                            x       y       z     vdW  Elec       q    Type
REMARK                         _______ _______ _______ _____ _____    ______ ____
ROOT
ATOM      1  C   UNL     1      -0.472  -7.954  -2.955  0.00  0.00    +0.163 C 
ENDROOT
BRANCH   1   2
ATOM      2  C   UNL     1      -1.826  -8.261  -3.541  0.00  0.00    +0.042 A 
ATOM      3  C   UNL     1      -2.699  -9.038  -2.853  0.00  0.00    +0.021 A 
ATOM      4  C   UNL     1      -4.006  -9.318  -3.450  0.00  0.00    -0.001 A 
ATOM      5  C   UNL     1      -4.948 -10.113  -2.788  0.00  0.00    +0.013 A 
ATOM      6  C   UNL     1      -6.159 -10.354  -3.371  0.00  0.00    -0.050 A 
ATOM      7  C   UNL     1      -6.464  -9.819  -4.615  0.00  0.00    +0.005 A 
ATOM      8  C   UNL     1      -5.551  -9.033  -5.285  0.00  0.00    +0.026 A 
ATOM      9  C   UNL     1      -4.311  -8.773  -4.711  0.00  0.00    +0.049 A 
ATOM     10  N   UNL     1      -3.380  -7.990  -5.358  0.00  0.00    -0.322 N 
ATOM     11  H   UNL     1      -3.592  -7.615  -6.228  0.00  0.00    +0.169 HD
ATOM     12  C   UNL     1      -2.183  -7.734  -4.801  0.00  0.00    +0.254 A 
ATOM     13  O   UNL     1      -1.386  -7.033  -5.399  0.00  0.00    -0.268 OA
ATOM     14  C   UNL     1      -7.174 -11.211  -2.658  0.00  0.00    +0.044 C 
ENDBRANCH   1   2
BRANCH   1  15
ATOM     15  C   UNL     1       0.596  -8.243  -3.979  0.00  0.00    +0.174 A 
ATOM     16  N   UNL     1       0.525  -8.019  -5.269  0.00  0.00    -0.111 NA
ATOM     17  N   UNL     1       1.635  -8.400  -5.801  0.00  0.00    -0.023 NA
ATOM     18  N   UNL     1       2.412  -8.861  -4.884  0.00  0.00    -0.043 NA
ATOM     19  N   UNL     1       1.809  -8.776  -3.746  0.00  0.00    -0.222 N 
BRANCH  19  20
ATOM     20  C   UNL     1       2.344  -9.187  -2.445  0.00  0.00    +0.059 C 
ATOM     21  C   UNL     1       1.530 -10.367  -1.909  0.00  0.00    +0.036 C 
ATOM     22  C   UNL     1       3.807  -9.607  -2.605  0.00  0.00    +0.036 C 
ATOM     23  C   UNL     1       2.253  -8.017  -1.464  0.00  0.00    +0.036 C 
ENDBRANCH  19  20
ENDBRANCH   1  15
BRANCH   1  24
ATOM     24  N   UNL     1      -0.413  -6.536  -2.575  0.00  0.00    -0.282 NA
BRANCH  24  25
ATOM     25  C   UNL     1      -0.254  -5.679  -3.757  0.00  0.00    +0.120 C 
BRANCH  25  29
ATOM     26  C   UNL     1       1.542  -1.977  -2.603  0.00  0.00    +0.121 A 
ATOM     27  C   UNL     1       2.338  -3.047  -2.983  0.00  0.00    +0.046 A 
ATOM     28  C   UNL     1       1.756  -4.243  -3.356  0.00  0.00    +0.008 A 
ATOM     29  C   UNL     1       0.379  -4.374  -3.350  0.00  0.00    -0.033 A 
ATOM     30  C   UNL     1      -0.417  -3.308  -2.972  0.00  0.00    +0.008 A 
ATOM     31  C   UNL     1       0.161  -2.113  -2.593  0.00  0.00    +0.046 A 
BRANCH  26  32
ATOM     32  O   UNL     1       2.113  -0.800  -2.236  0.00  0.00    -0.492 OA
BRANCH  32  34
ATOM     33  C   UNL     1       3.995   0.660  -1.828  0.00  0.00    +0.048 C 
ATOM     34  C   UNL     1       3.540  -0.732  -2.271  0.00  0.00    +0.225 C 
ENDBRANCH  32  34
ENDBRANCH  26  32
ENDBRANCH  25  29
ENDBRANCH  24  25
BRANCH  24  35
ATOM     35  C   UNL     1      -1.601  -6.149  -1.801  0.00  0.00    +0.117 C 
BRANCH  35  36
ATOM     36  C   UNL     1      -1.421  -6.577  -0.343  0.00  0.00    +0.132 C 
ATOM     37  C   UNL     1      -2.666  -6.183   0.491  0.00  0.00    +0.035 C 
ATOM     38  C   UNL     1      -2.583  -7.214   1.650  0.00  0.00    +0.031 C 
ATOM     39  C   UNL     1      -2.002  -8.457   0.942  0.00  0.00    +0.160 C 
ATOM     40  O   UNL     1      -1.341  -8.008  -0.249  0.00  0.00    -0.375 OA
ENDBRANCH  35  36
ENDBRANCH  24  35
ENDBRANCH   1  24
TORSDOF 10
