REMARK  Name = ZINC51999595
REMARK  4 active torsions:
REMARK  status: ('A' for Active; 'I' for Inactive)
REMARK    1  A    between atoms: C_5  and  N_8
REMARK    2  A    between atoms: C_6  and  N_7
REMARK    3  A    between atoms: N_8  and  C_9
REMARK    4  A    between atoms: C_15  and  O_17
REMARK                            x       y       z     vdW  Elec       q    Type
REMARK                         _______ _______ _______ _____ _____    ______ ____
ROOT
ATOM      1  C   UNL     1      -0.017   1.382   0.010  0.00  0.00    +0.030 A 
ATOM      2  C   UNL     1       1.170   2.091   0.002  0.00  0.00    -0.024 A 
ATOM      3  C   UNL     1       2.384   1.417  -0.013  0.00  0.00    +0.038 A 
ATOM      4  C   UNL     1       2.409   0.029  -0.021  0.00  0.00    +0.048 A 
ATOM      5  C   UNL     1       1.220  -0.684  -0.013  0.00  0.00    +0.050 A 
ATOM      6  C   UNL     1       0.002  -0.004   0.002  0.00  0.00    +0.046 A 
ATOM      7  N   UNL     1       3.584   2.140  -0.021  0.00  0.00    -0.285 N 
ATOM      8  C   UNL     1       3.604   3.432   0.356  0.00  0.00    +0.218 C 
ATOM      9  O   UNL     1       4.648   4.048   0.330  0.00  0.00    -0.275 OA
ATOM     10  C   UNL     1       2.345   4.121   0.808  0.00  0.00    +0.101 C 
ATOM     11  C   UNL     1       1.149   3.598   0.010  0.00  0.00    +0.046 C 
ATOM     12  H   UNL     1       4.406   1.707  -0.300  0.00  0.00    +0.155 HD
ENDROOT
BRANCH   6  13
ATOM     13  N   UNL     1      -1.202  -0.722   0.009  0.00  0.00    -0.357 N 
ATOM     14  H   UNL     1      -2.049  -0.249   0.020  0.00  0.00    +0.142 HD
ATOM     15  H   UNL     1      -1.189  -1.692   0.004  0.00  0.00    +0.142 HD
ENDBRANCH   6  13
BRANCH   5  16
ATOM     16  N   UNL     1       1.242  -2.084  -0.020  0.00  0.00    -0.337 N 
ATOM     17  H   UNL     1       0.410  -2.582  -0.014  0.00  0.00    +0.146 HD
BRANCH  16  18
ATOM     18  C   UNL     1       2.522  -2.796  -0.037  0.00  0.00    +0.099 C 
ATOM     19  C   UNL     1       3.014  -2.927  -1.480  0.00  0.00    +0.025 C 
ATOM     20  C   UNL     1       4.351  -3.671  -1.497  0.00  0.00    +0.002 C 
ATOM     21  C   UNL     1       4.167  -5.065  -0.893  0.00  0.00    +0.003 C 
ATOM     22  C   UNL     1       3.674  -4.934   0.550  0.00  0.00    +0.033 C 
ATOM     23  C   UNL     1       2.338  -4.190   0.567  0.00  0.00    +0.135 C 
BRANCH  23  24
ATOM     24  O   UNL     1       1.878  -4.068   1.915  0.00  0.00    -0.390 OA
ATOM     25  H   UNL     1       1.739  -4.914   2.361  0.00  0.00    +0.210 HD
ENDBRANCH  23  24
ENDBRANCH  16  18
ENDBRANCH   5  16
TORSDOF 4
