REMARK  Name = ZINC56231211
REMARK  7 active torsions:
REMARK  status: ('A' for Active; 'I' for Inactive)
REMARK    1  A    between atoms: C_6  and  N_7
REMARK    2  A    between atoms: C_11  and  C_14
REMARK    3  A    between atoms: C_14  and  O_16
REMARK    4  A    between atoms: O_16  and  C_17
REMARK    5  A    between atoms: C_17  and  C_18
REMARK    6  A    between atoms: C_18  and  C_19
REMARK    7  A    between atoms: C_24  and  C_25
REMARK                            x       y       z     vdW  Elec       q    Type
REMARK                         _______ _______ _______ _____ _____    ______ ____
ROOT
ATOM      1  C   UNL     1       5.982   0.790  -0.052  0.00  0.00    +0.356 C 
ATOM      2  O   UNL     1       6.616  -0.247  -0.065  0.00  0.00    -0.243 OA
ENDROOT
BRANCH   1  10
ATOM      3  C   UNL     1      -0.017   1.385   0.010  0.00  0.00    +0.035 A 
ATOM      4  C   UNL     1       1.158   2.103   0.002  0.00  0.00    +0.028 A 
ATOM      5  C   UNL     1       2.378   1.433  -0.013  0.00  0.00    +0.047 A 
ATOM      6  C   UNL     1       2.395   0.024  -0.021  0.00  0.00    +0.003 A 
ATOM      7  C   UNL     1       1.186  -0.683  -0.013  0.00  0.00    +0.042 A 
ATOM      8  C   UNL     1       0.002  -0.004   0.002  0.00  0.00    +0.127 A 
ATOM      9  C   UNL     1       3.753  -0.373  -0.036  0.00  0.00    +0.043 A 
ATOM     10  C   UNL     1       4.514   0.754  -0.038  0.00  0.00    +0.125 A 
ATOM     11  N   UNL     1       3.685   1.860  -0.024  0.00  0.00    -0.349 N 
ATOM     12  H   UNL     1       3.978   2.785  -0.022  0.00  0.00    +0.166 HD
BRANCH   8  13
ATOM     13  N   UNL     1      -1.274  -0.755   0.011  0.00  0.00    +0.056 N 
ATOM     14  O   UNL     1      -2.325  -0.159   0.024  0.00  0.00    -0.126 OA
ATOM     15  O   UNL     1      -1.264  -1.964   0.004  0.00  0.00    -0.126 OA
ENDBRANCH   8  13
ENDBRANCH   1  10
BRANCH   1  16
ATOM     16  O   UNL     1       6.628   1.974  -0.052  0.00  0.00    -0.460 OA
BRANCH  16  17
ATOM     17  C   UNL     1       8.056   1.935  -0.067  0.00  0.00    +0.237 C 
BRANCH  17  18
ATOM     18  C   UNL     1       8.606   3.363  -0.065  0.00  0.00    +0.080 C 
BRANCH  18  19
ATOM     19  C   UNL     1      10.112   3.321  -0.080  0.00  0.00    +0.005 A 
ATOM     20  C   UNL     1      10.921   3.382   1.002  0.00  0.00    +0.109 A 
ATOM     21  N   UNL     1      12.197   3.315   0.567  0.00  0.00    -0.284 N 
ATOM     22  H   UNL     1      12.992   3.336   1.123  0.00  0.00    +0.188 HD
ATOM     23  N   UNL     1      12.171   3.208  -0.830  0.00  0.00    -0.170 NA
ATOM     24  C   UNL     1      10.921   3.206  -1.216  0.00  0.00    +0.168 A 
BRANCH  24  25
ATOM     25  C   UNL     1      10.435   3.102  -2.639  0.00  0.00    +0.436 C 
ATOM     26  F   UNL     1      10.321   4.384  -3.187  0.00  0.00    -0.164 F 
ATOM     27  F   UNL     1      11.349   2.354  -3.389  0.00  0.00    -0.164 F 
ATOM     28  F   UNL     1       9.187   2.472  -2.661  0.00  0.00    -0.164 F 
ENDBRANCH  24  25
ENDBRANCH  18  19
ENDBRANCH  17  18
ENDBRANCH  16  17
ENDBRANCH   1  16
TORSDOF 7
