REMARK  Name = ZINC60340312
REMARK  8 active torsions:
REMARK  status: ('A' for Active; 'I' for Inactive)
REMARK    1  A    between atoms: C_1  and  C_2
REMARK    2  A    between atoms: C_6  and  N_9
REMARK    3  A    between atoms: C_7  and  C_8
REMARK    4  A    between atoms: C_22  and  S_23
REMARK    5  A    between atoms: S_23  and  C_24
REMARK    6  A    between atoms: C_24  and  C_25
REMARK    7  A    between atoms: C_25  and  C_26
REMARK    8  A    between atoms: C_26  and  C_27
REMARK                            x       y       z     vdW  Elec       q    Type
REMARK                         _______ _______ _______ _____ _____    ______ ____
ROOT
ATOM      1  N   UNL     1       0.051  -2.798   2.393  0.00  0.00    -0.245 N 
ATOM      2  C   UNL     1      -1.116  -3.155   2.969  0.00  0.00    +0.268 A 
ATOM      3  O   UNL     1      -2.176  -2.865   2.448  0.00  0.00    -0.267 OA
ATOM      4  C   UNL     1      -1.086  -3.901   4.240  0.00  0.00    +0.064 A 
ATOM      5  C   UNL     1      -2.262  -4.293   4.877  0.00  0.00    +0.015 A 
ATOM      6  C   UNL     1      -2.194  -4.990   6.065  0.00  0.00    +0.001 A 
ATOM      7  C   UNL     1      -0.965  -5.300   6.626  0.00  0.00    +0.002 A 
ATOM      8  C   UNL     1       0.207  -4.917   6.005  0.00  0.00    +0.027 A 
ATOM      9  C   UNL     1       0.159  -4.215   4.810  0.00  0.00    +0.064 A 
ATOM     10  N   UNL     1       1.320  -3.816   4.161  0.00  0.00    -0.255 N 
ATOM     11  C   UNL     1       1.264  -3.128   2.977  0.00  0.00    +0.245 A 
ATOM     12  N   UNL     1       2.503  -2.901   2.610  0.00  0.00    -0.109 NA
ATOM     13  N   UNL     1       3.317  -3.398   3.471  0.00  0.00    -0.120 NA
ATOM     14  C   UNL     1       2.650  -3.964   4.448  0.00  0.00    +0.198 A 
ENDROOT
BRANCH   1  20
ATOM     15  C   UNL     1      -0.018   1.503   0.010  0.00  0.00    +0.044 C 
ATOM     16  C   UNL     1       0.002  -0.004   0.002  0.00  0.00    -0.046 A 
ATOM     17  C   UNL     1       0.006  -0.688  -1.200  0.00  0.00    +0.004 A 
ATOM     18  C   UNL     1       0.024  -2.071  -1.212  0.00  0.00    +0.002 A 
ATOM     19  C   UNL     1       0.039  -2.773  -0.023  0.00  0.00    +0.026 A 
ATOM     20  C   UNL     1       0.036  -2.089   1.186  0.00  0.00    +0.056 A 
ATOM     21  C   UNL     1       0.023  -0.700   1.194  0.00  0.00    -0.024 A 
ATOM     22  C   UNL     1       0.026   0.046   2.504  0.00  0.00    +0.046 C 
ENDBRANCH   1  20
BRANCH  14  23
ATOM     23  S   UNL     1       3.336  -4.779   5.852  0.00  0.00    -0.086 S 
BRANCH  23  24
ATOM     24  C   UNL     1       5.128  -4.616   5.622  0.00  0.00    +0.078 C 
BRANCH  24  25
ATOM     25  C   UNL     1       5.855  -5.290   6.787  0.00  0.00    +0.020 C 
BRANCH  25  26
ATOM     26  C   UNL     1       7.366  -5.153   6.593  0.00  0.00    +0.097 C 
BRANCH  26  27
ATOM     27  C   UNL     1       8.082  -5.816   7.742  0.00  0.00    +0.220 C 
ATOM     28  O   UNL     1       7.447  -6.346   8.627  0.00  0.00    -0.275 OA
ATOM     29  N   UNL     1       9.430  -5.820   7.784  0.00  0.00    -0.240 N 
ATOM     30  C   UNL     1      10.070  -6.413   8.810  0.00  0.00    +0.303 C 
ATOM     31  O   UNL     1       9.433  -6.945   9.698  0.00  0.00    -0.253 OA
ATOM     32  N   UNL     1      11.417  -6.418   8.852  0.00  0.00    -0.313 N 
ATOM     33  H   UNL     1       9.938  -5.396   7.075  0.00  0.00    +0.159 HD
ATOM     34  H   UNL     1      11.926  -5.994   8.144  0.00  0.00    +0.146 HD
ATOM     35  H   UNL     1      11.878  -6.845   9.591  0.00  0.00    +0.146 HD
ENDBRANCH  26  27
ENDBRANCH  25  26
ENDBRANCH  24  25
ENDBRANCH  23  24
ENDBRANCH  14  23
TORSDOF 6
