REMARK  Name = ZINC29504855
REMARK  4 active torsions:
REMARK  status: ('A' for Active; 'I' for Inactive)
REMARK    1  A    between atoms: C_1  and  C_2
REMARK    2  A    between atoms: C_4  and  C_24
REMARK    3  A    between atoms: C_12  and  C_14
REMARK    4  A    between atoms: C_17  and  C_19
REMARK                            x       y       z     vdW  Elec       q    Type
REMARK                         _______ _______ _______ _____ _____    ______ ____
ROOT
ATOM      1  C   UNL     1      -0.013   1.086   0.008  0.00  0.00    +0.044 C 
ATOM      2  C   UNL     1      -0.718   1.572   1.248  0.00  0.00    -0.049 A 
ATOM      3  C   UNL     1      -2.088   1.792   1.234  0.00  0.00    +0.009 A 
ATOM      4  C   UNL     1      -2.754   2.229   2.349  0.00  0.00    -0.024 A 
ATOM      5  C   UNL     1      -2.058   2.481   3.554  0.00  0.00    +0.083 A 
ATOM      6  C   UNL     1      -0.664   2.251   3.530  0.00  0.00    +0.041 A 
ATOM      7  C   UNL     1      -0.006   1.808   2.409  0.00  0.00    +0.020 A 
ATOM      8  S   UNL     1      -0.182   2.673   5.186  0.00  0.00    -0.052 S 
ATOM      9  C   UNL     1      -1.806   3.114   5.788  0.00  0.00    +0.166 A 
ATOM     10  N   UNL     1      -2.559   2.916   4.731  0.00  0.00    -0.224 NA
ATOM     11  N   UNL     1      -2.176   3.553   7.047  0.00  0.00    -0.259 N 
ATOM     12  C   UNL     1      -1.245   3.695   8.012  0.00  0.00    +0.269 C 
ATOM     13  O   UNL     1      -0.081   3.437   7.775  0.00  0.00    -0.268 OA
ATOM     14  C   UNL     1      -4.244   2.449   2.288  0.00  0.00    +0.046 C 
ATOM     15  H   UNL     1      -3.230   3.786   7.261  0.00  0.00    +0.157 HD
ENDROOT
BRANCH  12  16
ATOM     16  C   UNL     1      -1.639   4.162   9.352  0.00  0.00    +0.134 A 
ATOM     17  C   UNL     1      -0.699   4.304  10.342  0.00  0.00    +0.080 A 
ATOM     18  S   UNL     1      -1.671   4.864  11.668  0.00  0.00    -0.072 S 
ATOM     19  C   UNL     1      -3.247   4.862  10.826  0.00  0.00    +0.144 A 
ATOM     20  N   UNL     1      -2.906   4.444   9.618  0.00  0.00    -0.231 NA
BRANCH  19  21
ATOM     21  C   UNL     1      -4.575   5.229  11.342  0.00  0.00    +0.160 A 
ATOM     22  C   UNL     1      -4.854   5.649  12.608  0.00  0.00    +0.052 A 
ATOM     23  C   UNL     1      -6.240   5.890  12.658  0.00  0.00    +0.042 A 
ATOM     24  C   UNL     1      -6.737   5.602  11.438  0.00  0.00    +0.196 A 
ATOM     25  O   UNL     1      -5.729   5.203  10.646  0.00  0.00    -0.461 OA
ENDBRANCH  19  21
ENDBRANCH  12  16
TORSDOF 2
