REMARK  Name = ZINC08670695
REMARK  7 active torsions:
REMARK  status: ('A' for Active; 'I' for Inactive)
REMARK    1  A    between atoms: C_4  and  N_7
REMARK    2  A    between atoms: C_9  and  C_17
REMARK    3  A    between atoms: C_10  and  C_12
REMARK    4  A    between atoms: C_19  and  C_31
REMARK    5  A    between atoms: C_21  and  C_26
REMARK    6  A    between atoms: C_21  and  O_30
REMARK    7  A    between atoms: C_31  and  C_33
REMARK                            x       y       z     vdW  Elec       q    Type
REMARK                         _______ _______ _______ _____ _____    ______ ____
ROOT
ATOM      1  C   UNL     1       5.908  -3.621   0.143  0.00  0.00    +0.124 C 
ATOM      2  C   UNL     1       6.307  -3.780  -1.329  0.00  0.00    +0.144 C 
ATOM      3  C   UNL     1       6.635  -5.254  -1.588  0.00  0.00    +0.243 C 
ATOM      4  N   UNL     1       5.491  -6.078  -1.195  0.00  0.00    -0.264 N 
ATOM      5  C   UNL     1       4.655  -5.691  -0.220  0.00  0.00    +0.302 C 
ATOM      6  O   UNL     1       3.726  -6.417   0.075  0.00  0.00    -0.253 OA
ATOM      7  N   UNL     1       4.804  -4.534   0.444  0.00  0.00    -0.292 N 
ATOM      8  H   UNL     1       5.334  -6.921  -1.648  0.00  0.00    +0.153 HD
ATOM      9  H   UNL     1       4.167  -4.297   1.136  0.00  0.00    +0.151 HD
ENDROOT
BRANCH   1  12
ATOM     10  N   UNL     1       4.227  -0.425   0.706  0.00  0.00    -0.239 N 
ATOM     11  C   UNL     1       4.196  -1.762   0.463  0.00  0.00    +0.120 A 
ATOM     12  C   UNL     1       5.471  -2.201   0.395  0.00  0.00    +0.020 A 
ATOM     13  C   UNL     1       6.322  -1.095   0.604  0.00  0.00    +0.105 A 
ATOM     14  N   UNL     1       5.569  -0.029   0.783  0.00  0.00    -0.166 NA
BRANCH  10  18
ATOM     15  C   UNL     1       0.911   2.064   1.125  0.00  0.00    +0.000 A 
ATOM     16  C   UNL     1       2.186   2.590   1.227  0.00  0.00    +0.002 A 
ATOM     17  C   UNL     1       3.287   1.768   1.088  0.00  0.00    +0.028 A 
ATOM     18  C   UNL     1       3.113   0.411   0.847  0.00  0.00    +0.065 A 
ATOM     19  C   UNL     1       1.831  -0.114   0.746  0.00  0.00    +0.028 A 
ATOM     20  C   UNL     1       0.734   0.713   0.885  0.00  0.00    +0.002 A 
ENDBRANCH  10  18
BRANCH  13  21
ATOM     21  C   UNL     1       7.801  -1.126   0.612  0.00  0.00    +0.040 A 
ATOM     22  C   UNL     1       8.685  -0.176   0.177  0.00  0.00    +0.018 A 
ATOM     23  C   UNL     1      10.036  -0.429   0.287  0.00  0.00    +0.008 A 
ATOM     24  C   UNL     1      10.446  -1.608   0.821  0.00  0.00    +0.046 A 
ATOM     25  S   UNL     1       8.896  -2.408   1.199  0.00  0.00    -0.095 S 
ENDBRANCH  13  21
ENDBRANCH   1  12
BRANCH   3  26
ATOM     26  C   UNL     1       6.925  -5.459  -3.077  0.00  0.00    +0.436 C 
ATOM     27  F   UNL     1       7.924  -4.568  -3.484  0.00  0.00    -0.166 F 
ATOM     28  F   UNL     1       7.356  -6.773  -3.292  0.00  0.00    -0.166 F 
ATOM     29  F   UNL     1       5.761  -5.223  -3.815  0.00  0.00    -0.166 F 
ENDBRANCH   3  26
BRANCH   3  30
ATOM     30  O   UNL     1       7.781  -5.631  -0.821  0.00  0.00    -0.364 OA
ATOM     31  H   UNL     1       8.046  -6.553  -0.937  0.00  0.00    +0.212 HD
ENDBRANCH   3  30
BRANCH   2  32
ATOM     32  C   UNL     1       5.165  -3.349  -2.212  0.00  0.00    +0.174 C 
ATOM     33  O   UNL     1       4.114  -3.955  -2.183  0.00  0.00    -0.291 OA
BRANCH  32  34
ATOM     34  C   UNL     1       5.324  -2.193  -3.109  0.00  0.00    +0.036 A 
ATOM     35  C   UNL     1       4.232  -1.702  -3.841  0.00  0.00    +0.014 A 
ATOM     36  C   UNL     1       4.435  -0.614  -4.669  0.00  0.00    +0.020 A 
ATOM     37  C   UNL     1       5.696  -0.049  -4.748  0.00  0.00    +0.111 A 
ATOM     38  N   UNL     1       6.706  -0.531  -4.048  0.00  0.00    -0.263 NA
ATOM     39  C   UNL     1       6.564  -1.562  -3.242  0.00  0.00    +0.122 A 
ENDBRANCH  32  34
ENDBRANCH   2  32
TORSDOF 7
