REMARK  Name = ZINC08937722
REMARK  8 active torsions:
REMARK  status: ('A' for Active; 'I' for Inactive)
REMARK    1  A    between atoms: C_1  and  C_2
REMARK    2  A    between atoms: C_8  and  N_10
REMARK    3  A    between atoms: C_14  and  C_16
REMARK    4  A    between atoms: C_16  and  N_17
REMARK    5  A    between atoms: C_20  and  C_24
REMARK    6  A    between atoms: C_20  and  C_25
REMARK    7  A    between atoms: C_28  and  O_31
REMARK    8  A    between atoms: O_31  and  C_32
REMARK                            x       y       z     vdW  Elec       q    Type
REMARK                         _______ _______ _______ _____ _____    ______ ____
ROOT
ATOM      1  N   UNL     1       0.686   8.475   2.210  0.00  0.00    -0.215 N 
ATOM      2  C   UNL     1       0.053   7.831   1.210  0.00  0.00    +0.251 C 
ATOM      3  O   UNL     1       0.358   7.820   0.037  0.00  0.00    -0.272 OA
ATOM      4  C   UNL     1      -1.120   7.122   1.857  0.00  0.00    +0.135 C 
ATOM      5  N   UNL     1      -1.001   7.483   3.280  0.00  0.00    -0.281 N 
ATOM      6  C   UNL     1       0.082   8.274   3.387  0.00  0.00    +0.310 C 
ATOM      7  O   UNL     1       0.469   8.752   4.435  0.00  0.00    -0.252 OA
ATOM      8  C   UNL     1      -2.442   7.630   1.278  0.00  0.00    +0.047 C 
ATOM      9  H   UNL     1      -1.588   7.204   4.000  0.00  0.00    +0.152 HD
ENDROOT
BRANCH   4  10
ATOM     10  C   UNL     1      -1.003   5.630   1.677  0.00  0.00    -0.015 A 
ATOM     11  C   UNL     1      -1.531   4.776   2.628  0.00  0.00    +0.010 A 
ATOM     12  C   UNL     1      -1.425   3.409   2.465  0.00  0.00    +0.046 A 
ATOM     13  C   UNL     1      -0.787   2.892   1.346  0.00  0.00    +0.127 A 
ATOM     14  C   UNL     1      -0.253   3.751   0.396  0.00  0.00    +0.046 A 
ATOM     15  C   UNL     1      -0.367   5.117   0.561  0.00  0.00    +0.010 A 
BRANCH  13  16
ATOM     16  O   UNL     1      -0.682   1.547   1.184  0.00  0.00    -0.434 OA
BRANCH  16  17
ATOM     17  C   UNL     1      -0.013   1.086   0.008  0.00  0.00    +0.541 C 
ATOM     18  F   UNL     1       1.300   1.570  -0.002  0.00  0.00    -0.166 F 
ATOM     19  F   UNL     1      -0.689   1.549  -1.125  0.00  0.00    -0.166 F 
ENDBRANCH  16  17
ENDBRANCH  13  16
ENDBRANCH   4  10
BRANCH   1  20
ATOM     20  C   UNL     1       1.887   9.295   2.030  0.00  0.00    +0.214 C 
BRANCH  20  25
ATOM     21  N   UNL     1       3.018  13.872   1.091  0.00  0.00    -0.296 N 
ATOM     22  C   UNL     1       2.072  12.932   1.292  0.00  0.00    +0.306 C 
ATOM     23  O   UNL     1       0.896  13.234   1.244  0.00  0.00    -0.252 OA
ATOM     24  N   UNL     1       2.431  11.658   1.546  0.00  0.00    -0.239 N 
ATOM     25  C   UNL     1       1.486  10.719   1.747  0.00  0.00    +0.238 C 
ATOM     26  O   UNL     1       0.312  11.020   1.699  0.00  0.00    -0.274 OA
ATOM     27  H   UNL     1       3.956  13.631   1.130  0.00  0.00    +0.151 HD
ATOM     28  H   UNL     1       3.370  11.418   1.584  0.00  0.00    +0.159 HD
BRANCH  21  35
ATOM     29  C   UNL     1       4.031  16.034   2.731  0.00  0.00    +0.009 C 
ATOM     30  C   UNL     1       3.758  16.198   1.234  0.00  0.00    +0.006 C 
ATOM     31  C   UNL     1       3.351  17.645   0.946  0.00  0.00    +0.005 C 
ATOM     32  C   UNL     1       3.078  17.809  -0.550  0.00  0.00    +0.000 C 
ATOM     33  C   UNL     1       1.947  16.867  -0.969  0.00  0.00    +0.002 C 
ATOM     34  C   UNL     1       2.355  15.421  -0.681  0.00  0.00    +0.022 C 
ATOM     35  C   UNL     1       2.627  15.257   0.815  0.00  0.00    +0.077 C 
ENDBRANCH  21  35
ENDBRANCH  20  25
ENDBRANCH   1  20
TORSDOF 6
