REMARK  Name = ZINC13272774
REMARK  7 active torsions:
REMARK  status: ('A' for Active; 'I' for Inactive)
REMARK    1  A    between atoms: C_1  and  C_2
REMARK    2  A    between atoms: C_2  and  N_3
REMARK    3  A    between atoms: C_6  and  C_9
REMARK    4  A    between atoms: N_12  and  C_27
REMARK    5  A    between atoms: C_23  and  C_24
REMARK    6  A    between atoms: C_27  and  C_28
REMARK    7  A    between atoms: C_34  and  C_36
REMARK                            x       y       z     vdW  Elec       q    Type
REMARK                         _______ _______ _______ _____ _____    ______ ____
ROOT
ATOM      1  C   UNL     1      -6.388  -0.786  -2.506  0.00  0.00    +0.035 C 
ATOM      2  C   UNL     1      -6.773  -1.401  -1.371  0.00  0.00    -0.006 C 
ATOM      3  C   UNL     1      -5.957  -1.297  -0.098  0.00  0.00    +0.122 C 
ATOM      4  N   UNL     1      -5.914  -2.636   0.512  0.00  0.00    -0.290 NA
ATOM      5  C   UNL     1      -7.245  -3.063   0.952  0.00  0.00    +0.123 C 
ATOM      6  C   UNL     1      -8.232  -3.019  -0.180  0.00  0.00    +0.007 A 
ATOM      7  C   UNL     1      -8.014  -2.204  -1.310  0.00  0.00    +0.074 A 
ATOM      8  N   UNL     1      -8.876  -2.142  -2.310  0.00  0.00    -0.247 NA
ATOM      9  C   UNL     1     -10.011  -2.842  -2.320  0.00  0.00    +0.072 A 
ATOM     10  C   UNL     1     -10.910  -2.752  -3.399  0.00  0.00    +0.028 A 
ATOM     11  C   UNL     1     -12.060  -3.479  -3.382  0.00  0.00    +0.002 A 
ATOM     12  C   UNL     1     -12.366  -4.315  -2.311  0.00  0.00    +0.001 A 
ATOM     13  C   UNL     1     -11.519  -4.427  -1.247  0.00  0.00    +0.011 A 
ATOM     14  C   UNL     1     -10.329  -3.694  -1.232  0.00  0.00    +0.015 A 
ATOM     15  C   UNL     1      -9.385  -3.789  -0.112  0.00  0.00    +0.079 A 
ENDROOT
BRANCH   1  19
ATOM     16  N   UNL     1      -3.316   2.525  -0.661  0.00  0.00    -0.251 N 
ATOM     17  C   UNL     1      -3.760   1.578  -1.574  0.00  0.00    +0.168 A 
ATOM     18  N   UNL     1      -4.873   0.870  -1.564  0.00  0.00    -0.225 NA
ATOM     19  C   UNL     1      -5.143  -0.005  -2.532  0.00  0.00    +0.073 A 
ATOM     20  C   UNL     1      -4.240  -0.168  -3.555  0.00  0.00    +0.076 A 
ATOM     21  S   UNL     1      -2.978   1.003  -3.074  0.00  0.00    -0.060 S 
ATOM     22  C   UNL     1      -4.022   2.761   0.463  0.00  0.00    +0.218 C 
ATOM     23  O   UNL     1      -5.003   2.094   0.714  0.00  0.00    -0.276 OA
ATOM     24  C   UNL     1      -3.592   3.854   1.407  0.00  0.00    +0.110 C 
BRANCH  16  26
ATOM     25  C   UNL     1      -2.397   4.513  -1.750  0.00  0.00    +0.025 C 
ATOM     26  C   UNL     1      -2.080   3.268  -0.918  0.00  0.00    +0.112 C 
ENDBRANCH  16  26
ENDBRANCH   1  19
BRANCH  15  27
ATOM     27  C   UNL     1      -9.658  -4.656   1.051  0.00  0.00    +0.388 C 
ATOM     28  O   UNL     1     -10.351  -4.245   1.971  0.00  0.00    -0.241 OA
ATOM     29  O   UNL     1      -9.192  -5.786   1.094  0.00  0.00    -0.241 OA
ENDBRANCH  15  27
BRANCH   4  30
ATOM     30  C   UNL     1      -4.954  -2.677   1.623  0.00  0.00    +0.120 C 
BRANCH  30  31
ATOM     31  C   UNL     1      -3.550  -2.655   1.075  0.00  0.00    -0.033 A 
ATOM     32  C   UNL     1      -2.949  -3.831   0.666  0.00  0.00    +0.005 A 
ATOM     33  C   UNL     1      -1.662  -3.811   0.163  0.00  0.00    +0.000 A 
ATOM     34  C   UNL     1      -0.975  -2.615   0.069  0.00  0.00    +0.000 A 
ATOM     35  C   UNL     1      -1.577  -1.439   0.477  0.00  0.00    +0.000 A 
ATOM     36  C   UNL     1      -2.865  -1.458   0.976  0.00  0.00    +0.005 A 
ENDBRANCH  30  31
ENDBRANCH   4  30
TORSDOF 5
