REMARK  Name = ZINC01899497
REMARK  12 active torsions:
REMARK  status: ('A' for Active; 'I' for Inactive)
REMARK    1  A    between atoms: C_1  and  C_2
REMARK    2  A    between atoms: C_2  and  C_3
REMARK    3  A    between atoms: C_2  and  C_4
REMARK    4  A    between atoms: N_14  and  C_33
REMARK    5  A    between atoms: C_17  and  S_20
REMARK    6  A    between atoms: S_20  and  C_21
REMARK    7  A    between atoms: C_21  and  C_22
REMARK    8  A    between atoms: N_24  and  C_25
REMARK    9  A    between atoms: C_29  and  O_31
REMARK   10  A    between atoms: O_31  and  C_32
REMARK   11  A    between atoms: C_33  and  C_34
REMARK   12  A    between atoms: C_34  and  C_35
REMARK                            x       y       z     vdW  Elec       q    Type
REMARK                         _______ _______ _______ _____ _____    ______ ____
ROOT
ATOM      1  C   UNL     1      -1.435  -0.534   0.026  0.00  0.00    +0.126 C 
ATOM      2  C   UNL     1      -1.409  -2.067   0.014  0.00  0.00    +0.068 C 
ATOM      3  C   UNL     1      -2.831  -2.556  -0.227  0.00  0.00    -0.018 A 
ATOM      4  C   UNL     1      -3.763  -1.715  -0.723  0.00  0.00    +0.021 A 
ATOM      5  S   UNL     1      -5.231  -2.691  -0.833  0.00  0.00    -0.072 S 
ATOM      6  C   UNL     1      -4.644  -4.145  -0.250  0.00  0.00    +0.102 A 
ATOM      7  C   UNL     1      -3.304  -3.911   0.042  0.00  0.00    +0.074 A 
ATOM      8  C   UNL     1      -2.538  -5.058   0.582  0.00  0.00    +0.264 A 
ATOM      9  O   UNL     1      -1.359  -4.929   0.860  0.00  0.00    -0.267 OA
ATOM     10  N   UNL     1      -3.148  -6.240   0.765  0.00  0.00    -0.276 N 
ATOM     11  C   UNL     1      -4.487  -6.417   0.457  0.00  0.00    +0.240 A 
ATOM     12  N   UNL     1      -5.226  -5.378  -0.046  0.00  0.00    -0.249 N 
ATOM     13  C   UNL     1      -6.501  -5.834  -0.254  0.00  0.00    +0.198 A 
ATOM     14  N   UNL     1      -6.545  -7.094   0.103  0.00  0.00    -0.120 NA
ATOM     15  N   UNL     1      -5.272  -7.463   0.553  0.00  0.00    -0.109 NA
ATOM     16  C   UNL     1      -3.548  -0.279  -1.086  0.00  0.00    +0.203 C 
ATOM     17  O   UNL     1      -2.130  -0.046  -1.125  0.00  0.00    -0.371 OA
ENDROOT
BRANCH   1  19
ATOM     18  C   UNL     1      -0.022   1.526   0.034  0.00  0.00    +0.010 C 
ATOM     19  C   UNL     1       0.000  -0.003   0.015  0.00  0.00    +0.012 C 
ATOM     20  C   UNL     1       0.744  -0.518   1.249  0.00  0.00    +0.010 C 
ENDBRANCH   1  19
BRANCH  13  21
ATOM     21  S   UNL     1      -7.846  -4.891  -0.891  0.00  0.00    -0.076 S 
BRANCH  21  22
ATOM     22  C   UNL     1      -9.230  -6.063  -0.919  0.00  0.00    +0.173 C 
BRANCH  22  23
ATOM     23  C   UNL     1     -10.460  -5.375  -1.450  0.00  0.00    +0.227 C 
ATOM     24  O   UNL     1     -10.409  -4.208  -1.778  0.00  0.00    -0.275 OA
ATOM     25  N   UNL     1     -11.618  -6.056  -1.562  0.00  0.00    -0.285 N 
ATOM     26  H   UNL     1     -11.644  -7.005  -1.363  0.00  0.00    +0.155 HD
BRANCH  25  27
ATOM     27  C   UNL     1     -12.784  -5.393  -1.963  0.00  0.00    +0.037 A 
ATOM     28  C   UNL     1     -14.012  -5.761  -1.428  0.00  0.00    +0.023 A 
ATOM     29  C   UNL     1     -15.162  -5.107  -1.825  0.00  0.00    +0.005 A 
ATOM     30  C   UNL     1     -15.095  -4.086  -2.754  0.00  0.00    +0.046 A 
ATOM     31  C   UNL     1     -13.871  -3.715  -3.291  0.00  0.00    +0.122 A 
ATOM     32  C   UNL     1     -12.713  -4.364  -2.891  0.00  0.00    +0.069 A 
BRANCH  31  33
ATOM     33  O   UNL     1     -13.806  -2.711  -4.205  0.00  0.00    -0.495 OA
ATOM     34  C   UNL     1     -15.037  -2.082  -4.566  0.00  0.00    +0.277 C 
ENDBRANCH  31  33
ENDBRANCH  25  27
ENDBRANCH  22  23
ENDBRANCH  21  22
ENDBRANCH  13  21
BRANCH  10  35
ATOM     35  C   UNL     1      -2.381  -7.368   1.301  0.00  0.00    +0.133 C 
BRANCH  35  36
ATOM     36  C   UNL     1      -2.474  -7.367   2.828  0.00  0.00    +0.057 C 
BRANCH  36  37
ATOM     37  C   UNL     1      -1.685  -8.527   3.380  0.00  0.00    -0.046 A 
ATOM     38  C   UNL     1      -2.297  -9.752   3.568  0.00  0.00    +0.004 A 
ATOM     39  C   UNL     1      -1.573 -10.816   4.074  0.00  0.00    +0.000 A 
ATOM     40  C   UNL     1      -0.237 -10.655   4.391  0.00  0.00    +0.000 A 
ATOM     41  C   UNL     1       0.375  -9.430   4.201  0.00  0.00    +0.000 A 
ATOM     42  C   UNL     1      -0.347  -8.367   3.691  0.00  0.00    +0.004 A 
ENDBRANCH  36  37
ENDBRANCH  35  36
ENDBRANCH  10  35
TORSDOF 9
