REMARK  Name = ZINC36316342
REMARK  14 active torsions:
REMARK  status: ('A' for Active; 'I' for Inactive)
REMARK    1  A    between atoms: C_1  and  C_2
REMARK    2  A    between atoms: C_2  and  C_3
REMARK    3  A    between atoms: C_4  and  C_21
REMARK    4  A    between atoms: C_5  and  O_14
REMARK    5  A    between atoms: N_6  and  C_8
REMARK    6  A    between atoms: O_14  and  C_15
REMARK    7  A    between atoms: C_21  and  N_22
REMARK    8  A    between atoms: N_22  and  C_23
REMARK    9  A    between atoms: N_22  and  C_27
REMARK   10  A    between atoms: C_23  and  C_24
REMARK   11  A    between atoms: C_27  and  C_28
REMARK   12  A    between atoms: C_28  and  C_30
REMARK   13  A    between atoms: C_28  and  O_37
REMARK   14  A    between atoms: C_30  and  N_31
REMARK                            x       y       z     vdW  Elec       q    Type
REMARK                         _______ _______ _______ _____ _____    ______ ____
ROOT
ATOM      1  C   UNL     1       1.603  -0.173  -1.758  0.00  0.00    +0.068 A 
ATOM      2  C   UNL     1       0.369  -0.405  -2.374  0.00  0.00    +0.021 A 
ATOM      3  C   UNL     1       0.604  -1.055  -3.546  0.00  0.00    +0.225 A 
ATOM      4  N   UNL     1       1.948  -1.224  -3.658  0.00  0.00    -0.200 N 
ATOM      5  N   UNL     1       2.547  -0.656  -2.525  0.00  0.00    -0.168 NA
ENDROOT
BRANCH   4   6
ATOM      6  C   UNL     1       2.617  -1.849  -4.719  0.00  0.00    +0.069 A 
ATOM      7  C   UNL     1       2.118  -3.027  -5.258  0.00  0.00    +0.028 A 
ATOM      8  C   UNL     1       2.779  -3.641  -6.304  0.00  0.00    +0.002 A 
ATOM      9  C   UNL     1       3.937  -3.083  -6.814  0.00  0.00    +0.000 A 
ATOM     10  C   UNL     1       4.436  -1.910  -6.279  0.00  0.00    +0.002 A 
ATOM     11  C   UNL     1       3.777  -1.288  -5.237  0.00  0.00    +0.028 A 
ENDBRANCH   4   6
BRANCH   1  13
ATOM     12  C   UNL     1       1.894   2.032  -0.662  0.00  0.00    +0.010 C 
ATOM     13  C   UNL     1       1.811   0.521  -0.437  0.00  0.00    +0.054 C 
ENDBRANCH   1  13
BRANCH   3  14
ATOM     14  O   UNL     1      -0.334  -1.461  -4.440  0.00  0.00    -0.438 OA
BRANCH  14  15
ATOM     15  C   UNL     1      -0.940  -2.659  -4.229  0.00  0.00    +0.130 A 
ATOM     16  C   UNL     1      -0.671  -3.380  -3.074  0.00  0.00    +0.046 A 
ATOM     17  C   UNL     1      -1.288  -4.597  -2.862  0.00  0.00    +0.004 A 
ATOM     18  C   UNL     1      -2.173  -5.098  -3.800  0.00  0.00    +0.000 A 
ATOM     19  C   UNL     1      -2.443  -4.381  -4.951  0.00  0.00    +0.004 A 
ATOM     20  C   UNL     1      -1.833  -3.160  -5.165  0.00  0.00    +0.046 A 
ENDBRANCH  14  15
ENDBRANCH   3  14
BRANCH   2  21
ATOM     21  C   UNL     1      -0.980  -0.007  -1.835  0.00  0.00    -0.036 C 
BRANCH  21  22
ATOM     22  N   UNL     1      -1.300   1.358  -2.276  0.00  0.00    +0.384 N 
ATOM     23  H   UNL     1      -0.560   1.984  -1.997  0.00  0.00    -0.081 HD
BRANCH  22  24
ATOM     24  C   UNL     1      -2.563   1.788  -1.661  0.00  0.00    -0.075 C 
BRANCH  24  25
ATOM     25  C   UNL     1      -2.414   1.789  -0.139  0.00  0.00    -0.028 C 
ATOM     26  C   UNL     1      -3.271   0.801   0.656  0.00  0.00    +0.002 C 
ATOM     27  C   UNL     1      -3.599   2.296   0.687  0.00  0.00    +0.002 C 
ENDBRANCH  24  25
ENDBRANCH  22  24
BRANCH  22  28
ATOM     28  C   UNL     1      -1.435   1.381  -3.739  0.00  0.00    -0.045 C 
BRANCH  28  29
ATOM     29  C   UNL     1      -1.588   2.827  -4.214  0.00  0.00    +0.112 C 
BRANCH  29  30
ATOM     30  O   UNL     1      -2.853   3.337  -3.787  0.00  0.00    -0.392 OA
ATOM     31  H   UNL     1      -3.611   2.843  -4.127  0.00  0.00    +0.210 HD
ENDBRANCH  29  30
BRANCH  29  32
ATOM     32  C   UNL     1      -1.509   2.873  -5.742  0.00  0.00    +0.114 C 
BRANCH  32  33
ATOM     33  N   UNL     1      -1.639   4.263  -6.197  0.00  0.00    -0.296 NA
ATOM     34  C   UNL     1      -2.028   4.319  -7.614  0.00  0.00    +0.112 C 
ATOM     35  C   UNL     1      -2.210   5.782  -8.030  0.00  0.00    +0.175 C 
ATOM     36  O   UNL     1      -1.000   6.499  -7.771  0.00  0.00    -0.377 OA
ATOM     37  C   UNL     1      -0.592   6.466  -6.401  0.00  0.00    +0.175 C 
ATOM     38  C   UNL     1      -0.394   5.011  -5.969  0.00  0.00    +0.112 C 
ENDBRANCH  32  33
ENDBRANCH  29  32
ENDBRANCH  28  29
ENDBRANCH  22  28
ENDBRANCH  21  22
ENDBRANCH   2  21
TORSDOF 13
