REMARK  Name = ZINC30973708
REMARK  9 active torsions:
REMARK  status: ('A' for Active; 'I' for Inactive)
REMARK    1  A    between atoms: C_1  and  C_2
REMARK    2  A    between atoms: C_7  and  C_8
REMARK    3  A    between atoms: C_10  and  C_13
REMARK    4  A    between atoms: C_13  and  N_14
REMARK    5  A    between atoms: C_17  and  C_20
REMARK    6  A    between atoms: N_22  and  C_23
REMARK    7  A    between atoms: C_23  and  C_25
REMARK    8  A    between atoms: C_23  and  C_26
REMARK    9  A    between atoms: C_29  and  N_32
REMARK                            x       y       z     vdW  Elec       q    Type
REMARK                         _______ _______ _______ _____ _____    ______ ____
ROOT
ATOM      1  N   UNL     1      -1.602  -1.204  -1.374  0.00  0.00    +0.386 N 
ATOM      2  C   UNL     1      -0.437  -1.543  -2.202  0.00  0.00    -0.077 C 
ATOM      3  C   UNL     1      -0.874  -1.695  -3.661  0.00  0.00    -0.006 C 
ATOM      4  C   UNL     1      -1.933  -2.797  -3.760  0.00  0.00    +0.071 C 
ATOM      5  C   UNL     1      -3.113  -2.443  -2.851  0.00  0.00    -0.006 C 
ATOM      6  C   UNL     1      -2.611  -2.270  -1.415  0.00  0.00    -0.077 C 
ATOM      7  H   UNL     1      -2.057  -0.294  -1.792  0.00  0.00    -0.081 HD
ENDROOT
BRANCH   4   8
ATOM      8  C   UNL     1      -2.410  -2.909  -5.184  0.00  0.00    +0.216 C 
ATOM      9  O   UNL     1      -3.580  -2.725  -5.449  0.00  0.00    -0.276 OA
ATOM     10  N   UNL     1      -1.538  -3.215  -6.165  0.00  0.00    -0.309 N 
ATOM     11  H   UNL     1      -0.478  -3.382  -5.926  0.00  0.00    +0.149 HD
BRANCH  10  12
ATOM     12  C   UNL     1      -2.003  -3.325  -7.551  0.00  0.00    +0.100 C 
ATOM     13  C   UNL     1      -2.016  -1.938  -8.195  0.00  0.00    +0.033 C 
BRANCH  12  14
ATOM     14  C   UNL     1      -1.075  -4.228  -8.321  0.00  0.00    -0.027 A 
ATOM     15  C   UNL     1       0.290  -4.152  -8.117  0.00  0.00    +0.007 A 
ATOM     16  C   UNL     1       1.143  -4.982  -8.817  0.00  0.00    +0.023 A 
ATOM     17  C   UNL     1       0.629  -5.887  -9.737  0.00  0.00    +0.030 A 
ATOM     18  C   UNL     1      -0.743  -5.958  -9.944  0.00  0.00    +0.023 A 
ATOM     19  C   UNL     1      -1.591  -5.128  -9.236  0.00  0.00    +0.007 A 
BRANCH  17  20
ATOM     20  N   UNL     1       1.488  -6.725 -10.451  0.00  0.00    -0.330 N 
ATOM     21  C   UNL     1       1.124  -8.135 -10.264  0.00  0.00    +0.105 C 
ATOM     22  C   UNL     1       1.991  -9.012 -11.171  0.00  0.00    +0.019 C 
ATOM     23  C   UNL     1       3.466  -8.796 -10.823  0.00  0.00    +0.003 C 
ATOM     24  C   UNL     1       3.808  -7.311 -10.979  0.00  0.00    +0.019 C 
ATOM     25  C   UNL     1       2.888  -6.484 -10.077  0.00  0.00    +0.105 C 
ENDBRANCH  17  20
ENDBRANCH  12  14
ENDBRANCH  10  12
ENDBRANCH   4   8
BRANCH   1  26
ATOM     26  C   UNL     1      -1.198  -0.916   0.009  0.00  0.00    +0.022 C 
BRANCH  26  29
ATOM     27  C   UNL     1       1.282   1.686  -0.001  0.00  0.00    +0.202 A 
ATOM     28  N   UNL     1      -0.016   1.306   0.009  0.00  0.00    -0.193 NA
ATOM     29  C   UNL     1       0.002  -0.004   0.002  0.00  0.00    +0.211 A 
ATOM     30  O   UNL     1       1.285  -0.380  -0.012  0.00  0.00    -0.340 OA
ATOM     31  N   UNL     1       2.004   0.596  -0.014  0.00  0.00    -0.056 NA
BRANCH  27  38
ATOM     32  C   UNL     1       4.133   2.172  -0.025  0.00  0.00    +0.044 C 
ATOM     33  C   UNL     1       3.162   3.324  -0.011  0.00  0.00    -0.040 A 
ATOM     34  C   UNL     1       3.630   4.623  -0.009  0.00  0.00    +0.004 A 
ATOM     35  C   UNL     1       2.740   5.681   0.004  0.00  0.00    +0.000 A 
ATOM     36  C   UNL     1       1.377   5.445   0.016  0.00  0.00    +0.001 A 
ATOM     37  C   UNL     1       0.898   4.151   0.009  0.00  0.00    +0.012 A 
ATOM     38  C   UNL     1       1.791   3.081   0.001  0.00  0.00    +0.025 A 
ENDBRANCH  27  38
ENDBRANCH  26  29
ENDBRANCH   1  26
TORSDOF 7
