REMARK  Name = ZINC20546436
REMARK  7 active torsions:
REMARK  status: ('A' for Active; 'I' for Inactive)
REMARK    1  A    between atoms: C_1  and  C_2
REMARK    2  A    between atoms: C_5  and  N_12
REMARK    3  A    between atoms: C_8  and  C_10
REMARK    4  A    between atoms: C_8  and  C_11
REMARK    5  A    between atoms: N_12  and  C_13
REMARK    6  A    between atoms: C_13  and  C_15
REMARK    7  A    between atoms: C_13  and  C_16
REMARK                            x       y       z     vdW  Elec       q    Type
REMARK                         _______ _______ _______ _____ _____    ______ ____
ROOT
ATOM      1  N   UNL     1      -1.044  -0.513   0.900  0.00  0.00    +0.385 N 
ATOM      2  H   UNL     1      -1.995  -0.547   0.349  0.00  0.00    -0.085 HD
ATOM      3  H   UNL     1      -1.139   0.173   1.754  0.00  0.00    -0.085 HD
ENDROOT
BRANCH   1   7
ATOM      4  C   UNL     1       1.450  -3.038   4.346  0.00  0.00    +0.007 C 
ATOM      5  C   UNL     1       0.543  -3.149   3.119  0.00  0.00    -0.015 C 
ATOM      6  C   UNL     1       0.196  -1.748   2.613  0.00  0.00    -0.013 C 
ATOM      7  C   UNL     1      -0.711  -1.859   1.386  0.00  0.00    -0.070 C 
ATOM      8  C   UNL     1      -1.996  -2.595   1.767  0.00  0.00    -0.010 C 
ATOM      9  C   UNL     1      -1.650  -3.997   2.274  0.00  0.00    -0.036 C 
ATOM     10  C   UNL     1      -0.743  -3.886   3.501  0.00  0.00    +0.009 C 
ATOM     11  C   UNL     1      -2.936  -4.734   2.655  0.00  0.00    +0.011 C 
ATOM     12  C   UNL     1      -0.925  -4.773   1.172  0.00  0.00    +0.011 C 
ENDBRANCH   1   7
BRANCH   1  13
ATOM     13  C   UNL     1       0.002  -0.004   0.002  0.00  0.00    -0.044 C 
ATOM     14  C   UNL     1      -0.255  -0.510  -1.419  0.00  0.00    -0.009 C 
BRANCH  13  15
ATOM     15  C   UNL     1      -0.018   1.503   0.010  0.00  0.00    -0.060 A 
ATOM     16  C   UNL     1       1.170   2.210   0.003  0.00  0.00    +0.003 A 
ATOM     17  C   UNL     1       1.152   3.592   0.010  0.00  0.00    +0.021 A 
ATOM     18  C   UNL     1      -0.054   4.268   0.025  0.00  0.00    +0.059 A 
ATOM     19  C   UNL     1      -1.244   3.560   0.033  0.00  0.00    +0.059 A 
ATOM     20  C   UNL     1      -1.225   2.177   0.020  0.00  0.00    +0.023 A 
ATOM     21 CL   UNL     1      -2.759   4.408   0.052  0.00  0.00    -0.082 Cl
ATOM     22 CL   UNL     1      -0.077   6.004   0.036  0.00  0.00    -0.082 Cl
ENDBRANCH  13  15
ENDBRANCH   1  13
TORSDOF 3
