REMARK  Name = ZINC40062624
REMARK  10 active torsions:
REMARK  status: ('A' for Active; 'I' for Inactive)
REMARK    1  A    between atoms: C_1  and  C_2
REMARK    2  A    between atoms: C_12  and  C_13
REMARK    3  A    between atoms: N_16  and  C_25
REMARK    4  A    between atoms: C_17  and  C_19
REMARK    5  A    between atoms: C_25  and  C_26
REMARK    6  A    between atoms: C_26  and  C_27
REMARK    7  A    between atoms: C_27  and  O_28
REMARK    8  A    between atoms: O_28  and  C_29
REMARK    9  A    between atoms: C_29  and  C_30
REMARK   10  A    between atoms: C_29  and  C_31
REMARK                            x       y       z     vdW  Elec       q    Type
REMARK                         _______ _______ _______ _____ _____    ______ ____
ROOT
ATOM      1  C   UNL     1      -0.018   1.503   0.010  0.00  0.00    +0.044 C 
ATOM      2  C   UNL     1       0.002  -0.004   0.002  0.00  0.00    -0.044 A 
ATOM      3  C   UNL     1       0.005  -0.683  -1.209  0.00  0.00    +0.004 A 
ATOM      4  C   UNL     1       0.021  -2.050  -1.232  0.00  0.00    +0.015 A 
ATOM      5  C   UNL     1       0.033  -2.761  -0.032  0.00  0.00    +0.065 A 
ATOM      6  C   UNL     1       0.036  -4.246  -0.038  0.00  0.00    +0.199 A 
ATOM      7  O   UNL     1       0.200  -4.908  -1.047  0.00  0.00    -0.287 OA
ATOM      8  C   UNL     1      -0.176  -4.839   1.286  0.00  0.00    +0.072 A 
ATOM      9  C   UNL     1      -0.158  -4.068   2.414  0.00  0.00    +0.199 A 
ATOM     10  O   UNL     1       0.060  -2.739   2.383  0.00  0.00    -0.449 OA
ATOM     11  C   UNL     1       0.036  -2.085   1.199  0.00  0.00    +0.143 A 
ATOM     12  C   UNL     1       0.023  -0.690   1.195  0.00  0.00    -0.005 A 
ATOM     13  C   UNL     1       0.025   0.066   2.499  0.00  0.00    +0.048 C 
ATOM     14  C   UNL     1      -0.408  -4.941   3.575  0.00  0.00    +0.283 C 
ATOM     15  O   UNL     1      -0.459  -4.566   4.729  0.00  0.00    -0.267 OA
ATOM     16  N   UNL     1      -0.571  -6.217   3.168  0.00  0.00    -0.284 N 
ATOM     17  C   UNL     1      -0.436  -6.249   1.703  0.00  0.00    +0.144 C 
ENDROOT
BRANCH  17  18
ATOM     18  C   UNL     1      -1.711  -6.750   1.075  0.00  0.00    -0.022 A 
ATOM     19  C   UNL     1      -2.934  -6.380   1.603  0.00  0.00    +0.006 A 
ATOM     20  C   UNL     1      -4.103  -6.839   1.027  0.00  0.00    +0.000 A 
ATOM     21  C   UNL     1      -4.050  -7.669  -0.078  0.00  0.00    +0.000 A 
ATOM     22  C   UNL     1      -2.828  -8.038  -0.606  0.00  0.00    +0.000 A 
ATOM     23  C   UNL     1      -1.658  -7.575  -0.033  0.00  0.00    +0.006 A 
ENDBRANCH  17  18
BRANCH  16  24
ATOM     24  C   UNL     1      -0.834  -7.369   4.034  0.00  0.00    +0.111 C 
BRANCH  24  25
ATOM     25  C   UNL     1      -2.345  -7.546   4.201  0.00  0.00    +0.047 C 
BRANCH  25  26
ATOM     26  C   UNL     1      -2.620  -8.749   5.105  0.00  0.00    +0.161 C 
BRANCH  26  27
ATOM     27  O   UNL     1      -4.031  -8.915   5.261  0.00  0.00    -0.377 OA
BRANCH  27  28
ATOM     28  C   UNL     1      -4.399 -10.018   6.092  0.00  0.00    +0.112 C 
ATOM     29  C   UNL     1      -4.503  -9.549   7.545  0.00  0.00    +0.037 C 
ATOM     30  C   UNL     1      -5.750 -10.572   5.636  0.00  0.00    +0.037 C 
ENDBRANCH  27  28
ENDBRANCH  26  27
ENDBRANCH  25  26
ENDBRANCH  24  25
ENDBRANCH  16  24
TORSDOF 6
