REMARK  Name = ZINC39439801
REMARK  7 active torsions:
REMARK  status: ('A' for Active; 'I' for Inactive)
REMARK    1  A    between atoms: C_4  and  N_7
REMARK    2  A    between atoms: C_11  and  C_12
REMARK    3  A    between atoms: C_18  and  S_19
REMARK    4  A    between atoms: S_19  and  C_20
REMARK    5  A    between atoms: C_20  and  C_21
REMARK    6  A    between atoms: N_23  and  C_24
REMARK    7  A    between atoms: C_27  and  N_30
REMARK                            x       y       z     vdW  Elec       q    Type
REMARK                         _______ _______ _______ _____ _____    ______ ____
ROOT
ATOM      1  N   UNL     1       3.624  -0.656  -0.082  0.00  0.00    -0.214 N 
ATOM      2  C   UNL     1       4.845  -0.088  -0.190  0.00  0.00    +0.275 C 
ATOM      3  O   UNL     1       5.101   1.098  -0.289  0.00  0.00    -0.268 OA
ATOM      4  C   UNL     1       5.802  -1.205  -0.161  0.00  0.00    +0.132 C 
ATOM      5  C   UNL     1       7.180  -1.123  -0.241  0.00  0.00    +0.079 C 
ATOM      6  N   UNL     1       5.052  -2.341  -0.037  0.00  0.00    -0.220 NA
ATOM      7  C   UNL     1       3.787  -2.017   0.014  0.00  0.00    +0.169 C 
ENDROOT
BRANCH   1  11
ATOM      8  C   UNL     1      -0.015   1.378  -0.031  0.00  0.00    +0.000 A 
ATOM      9  C   UNL     1       0.315   0.526   1.008  0.00  0.00    +0.002 A 
ATOM     10  C   UNL     1       1.520  -0.149   0.994  0.00  0.00    +0.024 A 
ATOM     11  C   UNL     1       2.400   0.028  -0.065  0.00  0.00    +0.044 A 
ATOM     12  C   UNL     1       2.067   0.883  -1.107  0.00  0.00    +0.024 A 
ATOM     13  C   UNL     1       0.860   1.555  -1.087  0.00  0.00    +0.002 A 
ENDBRANCH   1  11
BRANCH   5  14
ATOM     14  C   UNL     1       7.960  -2.296  -0.198  0.00  0.00    +0.130 A 
ATOM     15  C   UNL     1       9.340  -2.361  -0.263  0.00  0.00    +0.049 A 
ATOM     16  C   UNL     1       9.679  -3.719  -0.185  0.00  0.00    +0.042 A 
ATOM     17  C   UNL     1       8.525  -4.415  -0.079  0.00  0.00    +0.195 A 
ATOM     18  O   UNL     1       7.494  -3.558  -0.082  0.00  0.00    -0.463 OA
ENDBRANCH   5  14
BRANCH   7  19
ATOM     19  S   UNL     1       2.466  -3.171   0.179  0.00  0.00    -0.080 S 
BRANCH  19  20
ATOM     20  C   UNL     1       3.297  -4.781   0.256  0.00  0.00    +0.173 C 
BRANCH  20  21
ATOM     21  C   UNL     1       2.268  -5.872   0.399  0.00  0.00    +0.227 C 
ATOM     22  O   UNL     1       1.089  -5.591   0.445  0.00  0.00    -0.275 OA
ATOM     23  N   UNL     1       2.657  -7.160   0.476  0.00  0.00    -0.285 N 
ATOM     24  H   UNL     1       3.601  -7.380   0.520  0.00  0.00    +0.155 HD
BRANCH  23  25
ATOM     25  C   UNL     1       1.700  -8.181   0.494  0.00  0.00    +0.034 A 
ATOM     26  C   UNL     1       1.917  -9.326   1.248  0.00  0.00    +0.025 A 
ATOM     27  C   UNL     1       0.970 -10.332   1.263  0.00  0.00    +0.034 A 
ATOM     28  C   UNL     1      -0.194 -10.198   0.527  0.00  0.00    +0.126 A 
ATOM     29  C   UNL     1      -0.413  -9.059  -0.225  0.00  0.00    +0.034 A 
ATOM     30  C   UNL     1       0.527  -8.047  -0.239  0.00  0.00    +0.025 A 
BRANCH  28  31
ATOM     31  N   UNL     1      -1.206 -11.278   0.546  0.00  0.00    +0.056 N 
ATOM     32  O   UNL     1      -1.016 -12.274   1.203  0.00  0.00    -0.126 OA
ATOM     33  O   UNL     1      -2.224 -11.162  -0.097  0.00  0.00    -0.126 OA
ENDBRANCH  28  31
ENDBRANCH  23  25
ENDBRANCH  20  21
ENDBRANCH  19  20
ENDBRANCH   7  19
TORSDOF 7
