REMARK  Name = ZINC50568156
REMARK  9 active torsions:
REMARK  status: ('A' for Active; 'I' for Inactive)
REMARK    1  A    between atoms: C_1  and  C_2
REMARK    2  A    between atoms: C_2  and  C_3
REMARK    3  A    between atoms: C_3  and  C_4
REMARK    4  A    between atoms: C_3  and  C_6
REMARK    5  A    between atoms: C_3  and  C_10
REMARK    6  A    between atoms: C_4  and  C_5
REMARK    7  A    between atoms: N_7  and  O_8
REMARK    8  A    between atoms: C_16  and  C_21
REMARK    9  A    between atoms: C_18  and  C_20
REMARK                            x       y       z     vdW  Elec       q    Type
REMARK                         _______ _______ _______ _____ _____    ______ ____
ROOT
ATOM      1  C   UNL     1      -1.430   0.632  -0.211  0.00  0.00    +0.105 C 
ENDROOT
BRANCH   1   2
ATOM      2  C   UNL     1      -2.119   0.728  -1.548  0.00  0.00    +0.229 C 
ATOM      3  O   UNL     1      -3.133   1.384  -1.662  0.00  0.00    -0.275 OA
ATOM      4  N   UNL     1      -1.609   0.085  -2.617  0.00  0.00    -0.298 N 
ATOM      5  C   UNL     1      -0.464  -0.823  -2.468  0.00  0.00    +0.108 C 
ATOM      6  C   UNL     1       0.633  -0.399  -3.451  0.00  0.00    +0.019 C 
ATOM      7  C   UNL     1       0.052  -0.347  -4.866  0.00  0.00    +0.006 C 
ATOM      8  C   UNL     1      -1.073   0.690  -4.920  0.00  0.00    +0.006 C 
ATOM      9  C   UNL     1      -2.192   0.274  -3.953  0.00  0.00    +0.076 C 
ATOM     10  C   UNL     1      -3.258   1.370  -3.897  0.00  0.00    +0.028 C 
ATOM     11  C   UNL     1      -1.630   0.765  -6.342  0.00  0.00    +0.009 C 
ENDBRANCH   1   2
BRANCH   1  12
ATOM     12  C   UNL     1      -2.155   1.493   0.791  0.00  0.00    +0.147 C 
ATOM     13  N   UNL     1      -1.549   2.491   1.343  0.00  0.00    -0.076 NA
ATOM     14  N   UNL     1      -3.464   1.216   1.118  0.00  0.00    -0.343 N 
ATOM     15  H   UNL     1      -3.896   0.424   0.759  0.00  0.00    +0.144 HD
ATOM     16  H   UNL     1      -3.953   1.811   1.706  0.00  0.00    +0.144 HD
BRANCH  13  17
ATOM     17  O   UNL     1      -2.230   3.300   2.284  0.00  0.00    -0.408 OA
ATOM     18  H   UNL     1      -1.695   4.022   2.643  0.00  0.00    +0.328 HD
ENDBRANCH  13  17
ENDBRANCH   1  12
BRANCH   1  20
ATOM     19  C   UNL     1       0.029   2.522  -0.946  0.00  0.00    +0.005 C 
ATOM     20  C   UNL     1       0.016   1.114  -0.347  0.00  0.00    +0.020 C 
ENDBRANCH   1  20
BRANCH   1  21
ATOM     21  C   UNL     1      -1.440  -0.823   0.264  0.00  0.00    +0.020 C 
ATOM     22  C   UNL     1      -0.823  -0.906   1.661  0.00  0.00    +0.005 C 
ENDBRANCH   1  21
TORSDOF 5
