REMARK  Name = ZINC41583790
REMARK  6 active torsions:
REMARK  status: ('A' for Active; 'I' for Inactive)
REMARK    1  A    between atoms: C_1  and  C_2
REMARK    2  A    between atoms: C_5  and  C_30
REMARK    3  A    between atoms: N_8  and  C_10
REMARK    4  A    between atoms: C_10  and  C_11
REMARK    5  A    between atoms: C_12  and  O_29
REMARK    6  A    between atoms: C_19  and  C_20
REMARK                            x       y       z     vdW  Elec       q    Type
REMARK                         _______ _______ _______ _____ _____    ______ ____
ROOT
ATOM      1  C   UNL     1       2.091   0.257   3.618  0.00  0.00    +0.020 A 
ATOM      2  C   UNL     1       2.696   1.361   4.197  0.00  0.00    +0.122 A 
ATOM      3  C   UNL     1       2.349   1.764   5.484  0.00  0.00    +0.046 A 
ATOM      4  C   UNL     1       1.406   1.072   6.190  0.00  0.00    +0.019 A 
ATOM      5  C   UNL     1       0.788  -0.041   5.618  0.00  0.00    +0.068 A 
ATOM      6  C   UNL     1       1.125  -0.454   4.319  0.00  0.00    +0.144 A 
ATOM      7  O   UNL     1       0.397  -1.541   3.983  0.00  0.00    -0.451 OA
ATOM      8  C   UNL     1      -0.442  -1.913   4.978  0.00  0.00    +0.176 C 
ATOM      9  C   UNL     1      -1.302  -2.961   4.952  0.00  0.00    +0.058 C 
ATOM     10  C   UNL     1      -0.240  -0.981   6.099  0.00  0.00    +0.231 C 
ATOM     11  O   UNL     1      -0.807  -0.979   7.178  0.00  0.00    -0.283 OA
ENDROOT
BRANCH   9  12
ATOM     12  C   UNL     1      -2.274  -3.142   6.039  0.00  0.00    -0.021 A 
ATOM     13  C   UNL     1      -2.929  -2.034   6.588  0.00  0.00    +0.009 A 
ATOM     14  C   UNL     1      -3.839  -2.212   7.608  0.00  0.00    +0.016 A 
ATOM     15  C   UNL     1      -4.105  -3.483   8.090  0.00  0.00    +0.018 A 
ATOM     16  C   UNL     1      -3.460  -4.585   7.552  0.00  0.00    +0.016 A 
ATOM     17  C   UNL     1      -2.552  -4.424   6.528  0.00  0.00    +0.009 A 
ATOM     18 BR   UNL     1      -5.355  -3.716   9.490  0.00  0.00    -0.050 Br
ENDBRANCH   9  12
BRANCH   2  19
ATOM     19  O   UNL     1       3.635   2.054   3.505  0.00  0.00    -0.506 OA
ATOM     20  H   UNL     1       3.276   2.776   2.971  0.00  0.00    +0.292 HD
ENDBRANCH   2  19
BRANCH   1  21
ATOM     21  C   UNL     1       2.475  -0.168   2.224  0.00  0.00    -0.036 C 
BRANCH  21  27
ATOM     22  C   UNL     1      -0.585   2.342   0.761  0.00  0.00    +0.005 C 
ATOM     23  C   UNL     1      -0.684   0.843   0.470  0.00  0.00    -0.031 C 
ATOM     24  C   UNL     1      -0.244   0.573  -0.972  0.00  0.00    +0.003 C 
ATOM     25  C   UNL     1       1.227   0.968  -1.128  0.00  0.00    -0.031 C 
ATOM     26  C   UNL     1       2.068   0.194  -0.110  0.00  0.00    -0.075 C 
ATOM     27  N   UNL     1       1.616   0.516   1.249  0.00  0.00    +0.383 N 
ATOM     28  C   UNL     1       0.227   0.075   1.429  0.00  0.00    -0.075 C 
ATOM     29  C   UNL     1       1.699   0.630  -2.544  0.00  0.00    +0.005 C 
ATOM     30  H   UNL     1       1.672   1.513   1.394  0.00  0.00    -0.081 HD
ENDBRANCH  21  27
ENDBRANCH   1  21
TORSDOF 4
