REMARK  Name = ZINC50568157
REMARK  9 active torsions:
REMARK  status: ('A' for Active; 'I' for Inactive)
REMARK    1  A    between atoms: C_1  and  C_2
REMARK    2  A    between atoms: C_2  and  C_3
REMARK    3  A    between atoms: C_3  and  C_4
REMARK    4  A    between atoms: C_3  and  C_6
REMARK    5  A    between atoms: C_3  and  C_10
REMARK    6  A    between atoms: C_4  and  C_5
REMARK    7  A    between atoms: N_7  and  O_8
REMARK    8  A    between atoms: C_16  and  C_21
REMARK    9  A    between atoms: C_18  and  C_20
REMARK                            x       y       z     vdW  Elec       q    Type
REMARK                         _______ _______ _______ _____ _____    ______ ____
ROOT
ATOM      1  C   UNL     1      -1.819  -0.099  -0.097  0.00  0.00    +0.105 C 
ENDROOT
BRANCH   1   2
ATOM      2  C   UNL     1      -2.269   0.239  -1.495  0.00  0.00    +0.229 C 
ATOM      3  O   UNL     1      -3.142   1.062  -1.669  0.00  0.00    -0.275 OA
ATOM      4  N   UNL     1      -1.700  -0.374  -2.552  0.00  0.00    -0.298 N 
ATOM      5  C   UNL     1      -0.735  -1.464  -2.355  0.00  0.00    +0.108 C 
ATOM      6  C   UNL     1      -1.196  -2.683  -3.161  0.00  0.00    +0.019 C 
ATOM      7  C   UNL     1      -1.396  -2.276  -4.623  0.00  0.00    +0.006 C 
ATOM      8  C   UNL     1      -2.480  -1.200  -4.712  0.00  0.00    +0.006 C 
ATOM      9  C   UNL     1      -2.038   0.031  -3.924  0.00  0.00    +0.076 C 
ATOM     10  C   UNL     1      -3.177   1.053  -3.891  0.00  0.00    +0.028 C 
ATOM     11  C   UNL     1      -2.703  -0.819  -6.177  0.00  0.00    +0.009 C 
ENDBRANCH   1   2
BRANCH   1  12
ATOM     12  C   UNL     1      -2.463   0.851   0.880  0.00  0.00    +0.147 C 
ATOM     13  N   UNL     1      -1.730   1.660   1.573  0.00  0.00    -0.076 NA
ATOM     14  N   UNL     1      -3.831   0.857   1.036  0.00  0.00    -0.343 N 
ATOM     15  H   UNL     1      -4.375   0.201   0.572  0.00  0.00    +0.144 HD
ATOM     16  H   UNL     1      -4.251   1.516   1.610  0.00  0.00    +0.144 HD
BRANCH  13  17
ATOM     17  O   UNL     1      -2.335   2.552   2.491  0.00  0.00    -0.408 OA
ATOM     18  H   UNL     1      -1.707   3.117   2.962  0.00  0.00    +0.328 HD
ENDBRANCH  13  17
ENDBRANCH   1  12
BRANCH   1  20
ATOM     19  C   UNL     1       0.128   1.418  -0.487  0.00  0.00    +0.005 C 
ATOM     20  C   UNL     1      -0.297   0.029  -0.005  0.00  0.00    +0.020 C 
ENDBRANCH   1  20
BRANCH   1  21
ATOM     21  C   UNL     1      -2.232  -1.533   0.239  0.00  0.00    +0.020 C 
ATOM     22  C   UNL     1      -1.869  -1.841   1.693  0.00  0.00    +0.005 C 
ENDBRANCH   1  21
TORSDOF 5
