REMARK  Name = ZINC49309235
REMARK  10 active torsions:
REMARK  status: ('A' for Active; 'I' for Inactive)
REMARK    1  A    between atoms: C_1  and  C_2
REMARK    2  A    between atoms: C_2  and  C_4
REMARK    3  A    between atoms: C_2  and  N_7
REMARK    4  A    between atoms: C_4  and  C_5
REMARK    5  A    between atoms: C_4  and  C_6
REMARK    6  A    between atoms: C_8  and  C_10
REMARK    7  A    between atoms: C_10  and  O_11
REMARK    8  A    between atoms: O_11  and  C_12
REMARK    9  A    between atoms: C_12  and  C_14
REMARK   10  A    between atoms: C_18  and  N_20
REMARK                            x       y       z     vdW  Elec       q    Type
REMARK                         _______ _______ _______ _____ _____    ______ ____
ROOT
ATOM      1  C   UNL     1       4.987  -1.552   3.130  0.00  0.00    +0.340 C 
ATOM      2  O   UNL     1       4.505  -1.890   4.192  0.00  0.00    -0.245 OA
ENDROOT
BRANCH   1   3
ATOM      3  C   UNL     1       6.449  -1.607   2.931  0.00  0.00    +0.061 A 
ATOM      4  C   UNL     1       7.006  -1.213   1.712  0.00  0.00    +0.016 A 
ATOM      5  C   UNL     1       8.372  -1.266   1.529  0.00  0.00    +0.018 A 
ATOM      6  C   UNL     1       9.195  -1.707   2.549  0.00  0.00    +0.039 A 
ATOM      7  C   UNL     1       8.651  -2.102   3.766  0.00  0.00    +0.039 A 
ATOM      8  C   UNL     1       7.280  -2.047   3.962  0.00  0.00    +0.038 A 
ATOM      9 BR   UNL     1      11.067  -1.775   2.287  0.00  0.00    -0.048 Br
BRANCH   7  10
ATOM     10  N   UNL     1       9.487  -2.548   4.794  0.00  0.00    -0.357 N 
ATOM     11  H   UNL     1      10.447  -2.583   4.658  0.00  0.00    +0.142 HD
ATOM     12  H   UNL     1       9.107  -2.824   5.643  0.00  0.00    +0.142 HD
ENDBRANCH   7  10
ENDBRANCH   1   3
BRANCH   1  13
ATOM     13  O   UNL     1       4.187  -1.127   2.133  0.00  0.00    -0.452 OA
BRANCH  13  14
ATOM     14  C   UNL     1       2.783  -1.099   2.395  0.00  0.00    +0.328 C 
BRANCH  14  16
ATOM     15  N   UNL     1       0.711  -0.489   1.189  0.00  0.00    -0.310 N 
ATOM     16  C   UNL     1       2.054  -0.600   1.174  0.00  0.00    +0.251 C 
ATOM     17  O   UNL     1       2.676  -0.297   0.177  0.00  0.00    -0.272 OA
ATOM     18  H   UNL     1       0.213  -0.731   1.986  0.00  0.00    +0.149 HD
BRANCH  15  20
ATOM     19  C   UNL     1      -0.019   1.526   0.010  0.00  0.00    +0.028 C 
ATOM     20  C   UNL     1       0.002  -0.004   0.002  0.00  0.00    +0.073 C 
BRANCH  20  21
ATOM     21  C   UNL     1      -1.433  -0.534   0.013  0.00  0.00    +0.003 C 
ATOM     22  C   UNL     1      -2.173  -0.027  -1.227  0.00  0.00    +0.009 C 
ATOM     23  C   UNL     1      -1.413  -2.063   0.004  0.00  0.00    +0.009 C 
ENDBRANCH  20  21
ENDBRANCH  15  20
ENDBRANCH  14  16
ENDBRANCH  13  14
ENDBRANCH   1  13
TORSDOF 7
