REMARK  Name = ZINC35591911
REMARK  16 active torsions:
REMARK  status: ('A' for Active; 'I' for Inactive)
REMARK    1  A    between atoms: C_1  and  C_2
REMARK    2  A    between atoms: C_7  and  C_8
REMARK    3  A    between atoms: C_8  and  O_9
REMARK    4  A    between atoms: O_9  and  C_10
REMARK    5  A    between atoms: C_10  and  C_34
REMARK    6  A    between atoms: C_12  and  O_33
REMARK    7  A    between atoms: C_14  and  O_32
REMARK    8  A    between atoms: C_16  and  O_19
REMARK    9  A    between atoms: O_19  and  C_20
REMARK   10  A    between atoms: C_20  and  C_21
REMARK   11  A    between atoms: C_25  and  O_27
REMARK   12  A    between atoms: O_27  and  C_28
REMARK   13  A    between atoms: N_36  and  C_37
REMARK   14  A    between atoms: C_37  and  C_38
REMARK   15  A    between atoms: C_38  and  O_39
REMARK   16  A    between atoms: O_39  and  C_40
REMARK                            x       y       z     vdW  Elec       q    Type
REMARK                         _______ _______ _______ _____ _____    ______ ____
ROOT
ATOM      1  C   UNL     1       0.003  -0.382   4.912  0.00  0.00    +0.150 C 
ATOM      2  C   UNL     1      -1.313   0.331   5.227  0.00  0.00    +0.078 C 
ATOM      3  C   UNL     1      -2.481  -0.629   4.998  0.00  0.00    +0.149 C 
ATOM      4  C   UNL     1      -2.329  -1.846   5.913  0.00  0.00    +0.172 C 
ATOM      5  C   UNL     1      -1.012  -2.559   5.598  0.00  0.00    +0.153 C 
ATOM      6  C   UNL     1       0.156  -1.598   5.827  0.00  0.00    +0.079 C 
ENDROOT
BRANCH   1   7
ATOM      7  C   UNL     1       1.154   0.565   5.138  0.00  0.00    +0.245 C 
ATOM      8  O   UNL     1       1.740   0.564   6.200  0.00  0.00    -0.273 OA
ATOM      9  N   UNL     1       1.532   1.412   4.161  0.00  0.00    -0.311 N 
ATOM     10  H   UNL     1       1.106   1.369   3.290  0.00  0.00    +0.149 HD
BRANCH   9  11
ATOM     11  C   UNL     1       2.585   2.398   4.413  0.00  0.00    +0.132 C 
BRANCH  11  12
ATOM     12  C   UNL     1       2.820   3.228   3.149  0.00  0.00    +0.178 C 
BRANCH  12  13
ATOM     13  O   UNL     1       1.649   3.993   2.857  0.00  0.00    -0.381 OA
ATOM     14  C   UNL     1       1.763   4.808   1.689  0.00  0.00    +0.194 C 
ENDBRANCH  12  13
ENDBRANCH  11  12
ENDBRANCH   9  11
ENDBRANCH   1   7
BRANCH   4  15
ATOM     15  O   UNL     1      -3.420  -2.743   5.698  0.00  0.00    -0.387 OA
ATOM     16  H   UNL     1      -4.288  -2.357   5.879  0.00  0.00    +0.210 HD
ENDBRANCH   4  15
BRANCH   3  17
ATOM     17  O   UNL     1      -2.486  -1.057   3.634  0.00  0.00    -0.389 OA
ATOM     18  H   UNL     1      -3.201  -1.669   3.416  0.00  0.00    +0.210 HD
ENDBRANCH   3  17
BRANCH   1  19
ATOM     19  O   UNL     1      -0.001  -0.809   3.548  0.00  0.00    -0.359 OA
BRANCH  19  20
ATOM     20  C   UNL     1       1.176  -1.519   3.158  0.00  0.00    +0.196 C 
BRANCH  20  27
ATOM     21  C   UNL     1       3.315  -2.997   1.898  0.00  0.00    +0.044 C 
ATOM     22  C   UNL     1       2.072  -2.657   1.117  0.00  0.00    -0.045 A 
ATOM     23  C   UNL     1       1.953  -3.058  -0.201  0.00  0.00    +0.004 A 
ATOM     24  C   UNL     1       0.813  -2.746  -0.918  0.00  0.00    +0.000 A 
ATOM     25  C   UNL     1      -0.209  -2.034  -0.316  0.00  0.00    +0.000 A 
ATOM     26  C   UNL     1      -0.090  -1.635   1.001  0.00  0.00    +0.006 A 
ATOM     27  C   UNL     1       1.049  -1.950   1.720  0.00  0.00    -0.019 A 
ENDBRANCH  20  27
ENDBRANCH  19  20
ENDBRANCH   1  19
BRANCH   5  28
ATOM     28  O   UNL     1      -0.869  -3.696   6.452  0.00  0.00    -0.369 OA
BRANCH  28  29
ATOM     29  C   UNL     1      -1.424  -4.899   5.917  0.00  0.00    +0.195 C 
BRANCH  29  30
ATOM     30  C   UNL     1      -1.218  -6.026   6.896  0.00  0.00    -0.018 A 
ATOM     31  C   UNL     1      -0.070  -6.794   6.833  0.00  0.00    +0.006 A 
ATOM     32  C   UNL     1       0.121  -7.829   7.730  0.00  0.00    +0.004 A 
ATOM     33  C   UNL     1      -0.834  -8.098   8.691  0.00  0.00    +0.046 A 
ATOM     34  C   UNL     1      -1.986  -7.328   8.756  0.00  0.00    +0.130 A 
ATOM     35  C   UNL     1      -2.174  -6.287   7.859  0.00  0.00    +0.051 A 
BRANCH  34  36
ATOM     36  O   UNL     1      -2.928  -7.591   9.701  0.00  0.00    -0.406 OA
BRANCH  36  37
ATOM     37  C   UNL     1      -2.665  -8.674  10.595  0.00  0.00    +0.575 C 
ATOM     38  F   UNL     1      -1.484  -8.421  11.301  0.00  0.00    -0.133 F 
ATOM     39  F   UNL     1      -3.728  -8.804  11.495  0.00  0.00    -0.133 F 
ATOM     40  F   UNL     1      -2.526  -9.859   9.863  0.00  0.00    -0.133 F 
ENDBRANCH  36  37
ENDBRANCH  34  36
ENDBRANCH  29  30
ENDBRANCH  28  29
ENDBRANCH   5  28
TORSDOF 14
