REMARK  Name = ZINC04272979
REMARK  8 active torsions:
REMARK  status: ('A' for Active; 'I' for Inactive)
REMARK    1  A    between atoms: C_4  and  C_7
REMARK    2  A    between atoms: C_7  and  O_8
REMARK    3  A    between atoms: O_8  and  C_9
REMARK    4  A    between atoms: N_11  and  C_12
REMARK    5  A    between atoms: C_12  and  C_13
REMARK    6  A    between atoms: C_13  and  C_15
REMARK    7  A    between atoms: C_13  and  N_20
REMARK    8  A    between atoms: N_23  and  C_26
REMARK                            x       y       z     vdW  Elec       q    Type
REMARK                         _______ _______ _______ _____ _____    ______ ____
ROOT
ATOM      1  C   UNL     1       7.191  -2.698   4.369  0.00  0.00    +0.017 C 
ENDROOT
BRANCH   1   2
ATOM      2  N   UNL     1       6.047  -3.421   4.939  0.00  0.00    +0.389 N 
ATOM      3  C   UNL     1       4.801  -2.758   4.536  0.00  0.00    -0.059 C 
ATOM      4  C   UNL     1       3.604  -3.575   5.033  0.00  0.00    +0.086 C 
ATOM      5  N   UNL     1       3.745  -3.773   6.484  0.00  0.00    -0.333 N 
ATOM      6  C   UNL     1       5.027  -4.283   6.993  0.00  0.00    +0.086 C 
ATOM      7  C   UNL     1       6.157  -3.432   6.403  0.00  0.00    -0.059 C 
ATOM      8  H   UNL     1       6.046  -4.370   4.596  0.00  0.00    -0.081 HD
BRANCH   5   9
ATOM      9  C   UNL     1       2.690  -3.484   7.355  0.00  0.00    +0.030 A 
ATOM     10  C   UNL     1       1.530  -2.894   6.870  0.00  0.00    +0.026 A 
ATOM     11  C   UNL     1       0.488  -2.610   7.732  0.00  0.00    +0.040 A 
ATOM     12  C   UNL     1       0.600  -2.914   9.078  0.00  0.00    +0.124 A 
ATOM     13  C   UNL     1       1.756  -3.502   9.564  0.00  0.00    +0.040 A 
ATOM     14  C   UNL     1       2.798  -3.792   8.705  0.00  0.00    +0.026 A 
ATOM     15  F   UNL     1      -0.419  -2.635   9.920  0.00  0.00    -0.205 F 
ENDBRANCH   5   9
ENDBRANCH   1   2
BRANCH   1  16
ATOM     16  C   UNL     1       8.464  -3.439   4.689  0.00  0.00    +0.093 A 
ATOM     17  C   UNL     1       9.632  -2.877   5.048  0.00  0.00    +0.043 A 
ATOM     18  C   UNL     1      10.549  -3.934   5.251  0.00  0.00    +0.041 A 
ATOM     19  C   UNL     1       9.887  -5.078   5.003  0.00  0.00    +0.195 A 
ATOM     20  O   UNL     1       8.623  -4.773   4.668  0.00  0.00    -0.469 OA
ENDBRANCH   1  16
BRANCH   1  21
ATOM     21  C   UNL     1       7.027  -2.599   2.851  0.00  0.00    +0.100 C 
BRANCH  21  24
ATOM     22  C   UNL     1       6.558  -4.088   0.980  0.00  0.00    +0.401 C 
ATOM     23  O   UNL     1       6.479  -3.112   0.261  0.00  0.00    -0.226 OA
ATOM     24  N   UNL     1       6.829  -3.938   2.292  0.00  0.00    -0.282 N 
ATOM     25  H   UNL     1       6.892  -4.718   2.866  0.00  0.00    +0.152 HD
BRANCH  22  26
ATOM     26  O   UNL     1       6.376  -5.320   0.467  0.00  0.00    -0.446 OA
BRANCH  26  27
ATOM     27  C   UNL     1       6.093  -5.404  -0.931  0.00  0.00    +0.269 C 
BRANCH  27  31
ATOM     28  C   UNL     1       5.605  -9.500  -2.042  0.00  0.00    +0.000 A 
ATOM     29  C   UNL     1       4.512  -8.761  -1.629  0.00  0.00    +0.000 A 
ATOM     30  C   UNL     1       4.670  -7.436  -1.269  0.00  0.00    +0.007 A 
ATOM     31  C   UNL     1       5.921  -6.849  -1.322  0.00  0.00    -0.010 A 
ATOM     32  C   UNL     1       7.013  -7.589  -1.735  0.00  0.00    +0.007 A 
ATOM     33  C   UNL     1       6.855  -8.914  -2.096  0.00  0.00    +0.000 A 
ENDBRANCH  27  31
ENDBRANCH  26  27
ENDBRANCH  22  26
ENDBRANCH  21  24
ENDBRANCH   1  21
TORSDOF 8
