REMARK  Name = ZINC28186456
REMARK  7 active torsions:
REMARK  status: ('A' for Active; 'I' for Inactive)
REMARK    1  A    between atoms: C_1  and  C_2
REMARK    2  A    between atoms: C_4  and  C_28
REMARK    3  A    between atoms: C_5  and  C_25
REMARK    4  A    between atoms: C_6  and  C_24
REMARK    5  A    between atoms: C_7  and  C_8
REMARK    6  A    between atoms: C_8  and  N_9
REMARK    7  A    between atoms: C_25  and  C_27
REMARK                            x       y       z     vdW  Elec       q    Type
REMARK                         _______ _______ _______ _____ _____    ______ ____
ROOT
ATOM      1  N   UNL     1      -3.264   1.735   0.183  0.00  0.00    -0.220 N 
ATOM      2  C   UNL     1      -2.088   1.611   0.836  0.00  0.00    +0.251 C 
ATOM      3  O   UNL     1      -1.909   1.182   1.955  0.00  0.00    -0.272 OA
ATOM      4  C   UNL     1      -1.046   2.119  -0.127  0.00  0.00    +0.138 C 
ATOM      5  C   UNL     1      -0.279   3.309   0.462  0.00  0.00    +0.045 C 
ATOM      6  C   UNL     1       1.129   3.123  -0.148  0.00  0.00    +0.038 C 
ATOM      7  C   UNL     1       1.243   1.642  -0.443  0.00  0.00    -0.042 A 
ATOM      8  C   UNL     1      -0.017   1.065  -0.437  0.00  0.00    -0.012 A 
ATOM      9  C   UNL     1      -0.152  -0.289  -0.692  0.00  0.00    +0.006 A 
ATOM     10  C   UNL     1       0.961  -1.065  -0.947  0.00  0.00    +0.000 A 
ATOM     11  C   UNL     1       2.217  -0.490  -0.949  0.00  0.00    +0.000 A 
ATOM     12  C   UNL     1       2.357   0.861  -0.698  0.00  0.00    +0.004 A 
ATOM     13  N   UNL     1      -1.802   2.509  -1.317  0.00  0.00    -0.281 N 
ATOM     14  C   UNL     1      -3.096   2.248  -1.043  0.00  0.00    +0.310 C 
ATOM     15  O   UNL     1      -4.007   2.454  -1.820  0.00  0.00    -0.252 OA
ATOM     16  H   UNL     1      -1.277   2.921  -2.191  0.00  0.00    +0.152 HD
ENDROOT
BRANCH   1  17
ATOM     17  C   UNL     1      -4.562   1.356   0.747  0.00  0.00    +0.153 C 
BRANCH  17  24
ATOM     18  C   UNL     1      -4.077  -0.481   2.917  0.00  0.00    +0.044 C 
ATOM     19  C   UNL     1      -4.554  -1.002   1.586  0.00  0.00    -0.045 A 
ATOM     20  C   UNL     1      -4.758  -2.360   1.411  0.00  0.00    +0.007 A 
ATOM     21  C   UNL     1      -5.193  -2.844   0.196  0.00  0.00    -0.039 A 
ATOM     22  C   UNL     1      -5.430  -1.960  -0.861  0.00  0.00    +0.023 A 
ATOM     23  C   UNL     1      -5.228  -0.589  -0.675  0.00  0.00    -0.035 A 
ATOM     24  C   UNL     1      -4.786  -0.120   0.545  0.00  0.00    -0.023 A 
ATOM     25  C   UNL     1      -5.486   0.374  -1.805  0.00  0.00    +0.045 C 
ATOM     26  C   UNL     1      -5.414  -4.323   0.007  0.00  0.00    +0.044 C 
BRANCH  22  27
ATOM     27  C   UNL     1      -5.895  -2.468  -2.161  0.00  0.00    +0.161 C 
ATOM     28  O   UNL     1      -7.082  -2.499  -2.411  0.00  0.00    -0.292 OA
ATOM     29  C   UNL     1      -4.898  -2.951  -3.183  0.00  0.00    +0.091 C 
ENDBRANCH  22  27
ENDBRANCH  17  24
ENDBRANCH   1  17
TORSDOF 3
