REMARK  Name = ZINC39595597
REMARK  8 active torsions:
REMARK  status: ('A' for Active; 'I' for Inactive)
REMARK    1  A    between atoms: C_1  and  C_2
REMARK    2  A    between atoms: C_2  and  C_4
REMARK    3  A    between atoms: C_2  and  O_31
REMARK    4  A    between atoms: C_4  and  N_5
REMARK    5  A    between atoms: C_6  and  C_8
REMARK    6  A    between atoms: C_19  and  C_21
REMARK    7  A    between atoms: C_26  and  C_27
REMARK    8  A    between atoms: O_31  and  C_32
REMARK                            x       y       z     vdW  Elec       q    Type
REMARK                         _______ _______ _______ _____ _____    ______ ____
ROOT
ATOM      1  C   UNL     1      -3.565  -4.196   0.736  0.00  0.00    +0.100 C 
ATOM      2  C   UNL     1      -2.775  -4.787   1.925  0.00  0.00    +0.121 C 
ATOM      3  N   UNL     1      -3.803  -5.066   2.955  0.00  0.00    -0.296 N 
ATOM      4  C   UNL     1      -4.961  -5.587   2.189  0.00  0.00    +0.115 C 
ATOM      5  C   UNL     1      -4.998  -4.726   0.910  0.00  0.00    -0.004 C 
ATOM      6  C   UNL     1      -5.395  -5.580  -0.290  0.00  0.00    -0.010 C 
ATOM      7  C   UNL     1      -6.843  -6.048  -0.121  0.00  0.00    -0.082 C 
ATOM      8  N   UNL     1      -7.727  -4.881  -0.011  0.00  0.00    +0.379 N 
ATOM      9  C   UNL     1      -7.398  -4.115   1.197  0.00  0.00    -0.082 C 
ATOM     10  C   UNL     1      -5.973  -3.566   1.084  0.00  0.00    -0.010 C 
ATOM     11  C   UNL     1      -3.707  -4.888   4.288  0.00  0.00    +0.247 C 
ATOM     12  O   UNL     1      -4.606  -5.259   5.017  0.00  0.00    -0.270 OA
ATOM     13  H   UNL     1      -7.607  -4.293  -0.823  0.00  0.00    -0.086 HD
ATOM     14  H   UNL     1      -8.686  -5.190   0.039  0.00  0.00    -0.086 HD
ENDROOT
BRANCH  11  15
ATOM     15  C   UNL     1      -2.509  -4.240   4.863  0.00  0.00    +0.049 A 
ATOM     16  C   UNL     1      -1.234  -4.631   4.448  0.00  0.00    +0.013 A 
ATOM     17  C   UNL     1      -0.120  -4.022   4.988  0.00  0.00    +0.001 A 
ATOM     18  C   UNL     1      -0.264  -3.027   5.939  0.00  0.00    +0.001 A 
ATOM     19  C   UNL     1      -1.524  -2.636   6.354  0.00  0.00    +0.013 A 
ATOM     20  C   UNL     1      -2.647  -3.232   5.818  0.00  0.00    +0.067 A 
BRANCH  20  21
ATOM     21  C   UNL     1      -4.019  -2.800   6.267  0.00  0.00    +0.418 C 
ATOM     22  F   UNL     1      -3.899  -1.785   7.222  0.00  0.00    -0.166 F 
ATOM     23  F   UNL     1      -4.741  -2.324   5.168  0.00  0.00    -0.166 F 
ATOM     24  F   UNL     1      -4.691  -3.891   6.829  0.00  0.00    -0.166 F 
ENDBRANCH  20  21
ENDBRANCH  11  15
BRANCH   1  26
ATOM     25  N   UNL     1      -3.758  -1.971  -0.327  0.00  0.00    -0.312 N 
ATOM     26  C   UNL     1      -3.552  -2.690   0.794  0.00  0.00    +0.218 C 
ATOM     27  O   UNL     1      -3.356  -2.125   1.849  0.00  0.00    -0.275 OA
ATOM     28  H   UNL     1      -3.915  -2.422  -1.171  0.00  0.00    +0.149 HD
BRANCH  25  29
ATOM     29  C   UNL     1      -3.746  -0.507  -0.271  0.00  0.00    +0.148 C 
BRANCH  29  31
ATOM     30  C   UNL     1      -3.867   1.583  -1.635  0.00  0.00    +0.053 C 
ATOM     31  C   UNL     1      -4.003   0.059  -1.669  0.00  0.00    +0.187 C 
BRANCH  31  32
ATOM     32  O   UNL     1      -5.324  -0.292  -2.089  0.00  0.00    -0.488 OA
BRANCH  32  33
ATOM     33  C   UNL     1      -5.556  -0.327  -3.428  0.00  0.00    +0.121 A 
ATOM     34  C   UNL     1      -4.523  -0.078  -4.319  0.00  0.00    +0.048 A 
ATOM     35  C   UNL     1      -4.761  -0.113  -5.679  0.00  0.00    +0.042 A 
ATOM     36  C   UNL     1      -6.030  -0.397  -6.153  0.00  0.00    +0.124 A 
ATOM     37  C   UNL     1      -7.063  -0.645  -5.265  0.00  0.00    +0.042 A 
ATOM     38  C   UNL     1      -6.826  -0.617  -3.904  0.00  0.00    +0.048 A 
ATOM     39  F   UNL     1      -6.262  -0.431  -7.484  0.00  0.00    -0.205 F 
ENDBRANCH  32  33
ENDBRANCH  31  32
ENDBRANCH  29  31
ENDBRANCH  25  29
ENDBRANCH   1  26
TORSDOF 7
