REMARK  Name = ZINC36597289
REMARK  12 active torsions:
REMARK  status: ('A' for Active; 'I' for Inactive)
REMARK    1  A    between atoms: C_1  and  C_2
REMARK    2  A    between atoms: C_5  and  S_8
REMARK    3  A    between atoms: S_8  and  C_11
REMARK    4  A    between atoms: C_11  and  N_12
REMARK    5  A    between atoms: C_13  and  C_15
REMARK    6  A    between atoms: C_15  and  C_17
REMARK    7  A    between atoms: C_15  and  N_22
REMARK    8  A    between atoms: N_22  and  C_23
REMARK    9  A    between atoms: C_23  and  C_24
REMARK   10  A    between atoms: C_27  and  C_29
REMARK   11  A    between atoms: C_30  and  C_32
REMARK   12  A    between atoms: C_35  and  O_38
REMARK                            x       y       z     vdW  Elec       q    Type
REMARK                         _______ _______ _______ _____ _____    ______ ____
ROOT
ATOM      1  C   UNL     1       4.706  -6.500   3.807  0.00  0.00    +0.229 C 
ENDROOT
BRANCH   1   2
ATOM      2  C   UNL     1       4.845  -5.707   5.081  0.00  0.00    +0.134 A 
ATOM      3  C   UNL     1       5.973  -5.562   5.798  0.00  0.00    +0.047 A 
ATOM      4  C   UNL     1       5.652  -4.746   6.907  0.00  0.00    +0.041 A 
ATOM      5  C   UNL     1       4.347  -4.440   6.800  0.00  0.00    +0.195 A 
ATOM      6  O   UNL     1       3.864  -5.020   5.689  0.00  0.00    -0.465 OA
ENDBRANCH   1   2
BRANCH   1   8
ATOM      7  N   UNL     1       5.819  -4.755   2.451  0.00  0.00    -0.294 N 
ATOM      8  C   UNL     1       4.756  -5.565   2.626  0.00  0.00    +0.242 C 
ATOM      9  O   UNL     1       3.839  -5.541   1.832  0.00  0.00    -0.273 OA
ATOM     10  H   UNL     1       6.552  -4.774   3.086  0.00  0.00    +0.150 HD
BRANCH   7  11
ATOM     11  C   UNL     1       5.867  -3.847   1.303  0.00  0.00    +0.278 C 
BRANCH  11  12
ATOM     12  S   UNL     1       5.252  -2.214   1.798  0.00  0.00    +0.013 S 
ATOM     13  O   UNL     1       4.037  -2.347   2.522  0.00  0.00    -0.168 OA
ATOM     14  O   UNL     1       5.351  -1.303   0.711  0.00  0.00    -0.168 OA
BRANCH  12  19
ATOM     15  C   UNL     1       9.247  -0.212   5.852  0.00  0.00    +0.044 C 
ATOM     16  C   UNL     1       8.249  -0.712   4.840  0.00  0.00    -0.050 A 
ATOM     17  C   UNL     1       8.429  -0.436   3.497  0.00  0.00    +0.005 A 
ATOM     18  C   UNL     1       7.514  -0.895   2.568  0.00  0.00    +0.027 A 
ATOM     19  C   UNL     1       6.419  -1.630   2.982  0.00  0.00    +0.090 A 
ATOM     20  C   UNL     1       6.239  -1.907   4.324  0.00  0.00    +0.027 A 
ATOM     21  C   UNL     1       7.157  -1.452   5.253  0.00  0.00    +0.005 A 
ENDBRANCH  12  19
ENDBRANCH  11  12
ENDBRANCH   7  11
ENDBRANCH   1   8
BRANCH   1  22
ATOM     22  N   UNL     1       3.426  -7.212   3.812  0.00  0.00    -0.272 N 
ATOM     23  C   UNL     1       3.380  -8.511   4.169  0.00  0.00    +0.248 C 
ATOM     24  O   UNL     1       4.411  -9.125   4.365  0.00  0.00    -0.270 OA
BRANCH  23  25
ATOM     25  C   UNL     1       2.077  -9.188   4.322  0.00  0.00    +0.037 A 
ATOM     26  C   UNL     1       0.970  -8.478   4.794  0.00  0.00    +0.016 A 
ATOM     27  C   UNL     1      -0.244  -9.114   4.935  0.00  0.00    +0.046 A 
ATOM     28  C   UNL     1      -0.368 -10.459   4.610  0.00  0.00    +0.117 A 
ATOM     29  C   UNL     1       0.731 -11.169   4.141  0.00  0.00    +0.046 A 
ATOM     30  C   UNL     1       1.947 -10.540   3.991  0.00  0.00    +0.016 A 
BRANCH  28  31
ATOM     31  O   UNL     1      -1.565 -11.082   4.751  0.00  0.00    -0.507 OA
ATOM     32  H   UNL     1      -2.125 -11.043   3.963  0.00  0.00    +0.292 HD
ENDBRANCH  28  31
ENDBRANCH  23  25
BRANCH  22  33
ATOM     33  C   UNL     1       2.197  -6.513   3.430  0.00  0.00    +0.183 C 
BRANCH  33  34
ATOM     34  C   UNL     1       1.737  -5.645   4.572  0.00  0.00    +0.122 A 
ATOM     35  C   UNL     1       1.028  -4.507   4.459  0.00  0.00    +0.046 A 
ATOM     36  C   UNL     1       0.817  -4.024   5.771  0.00  0.00    +0.045 A 
ATOM     37  C   UNL     1       1.409  -4.896   6.607  0.00  0.00    +0.102 A 
ATOM     38  O   UNL     1       1.959  -5.879   5.876  0.00  0.00    -0.463 OA
ATOM     39  C   UNL     1       1.443  -4.791   8.110  0.00  0.00    +0.086 C 
ENDBRANCH  33  34
ENDBRANCH  22  33
ENDBRANCH   1  22
TORSDOF 10
