REMARK  Name = ZINC09142598
REMARK  10 active torsions:
REMARK  status: ('A' for Active; 'I' for Inactive)
REMARK    1  A    between atoms: C_1  and  C_2
REMARK    2  A    between atoms: C_2  and  C_3
REMARK    3  A    between atoms: C_6  and  N_9
REMARK    4  A    between atoms: C_11  and  C_16
REMARK    5  A    between atoms: C_22  and  C_24
REMARK    6  A    between atoms: C_24  and  C_25
REMARK    7  A    between atoms: C_25  and  N_26
REMARK    8  A    between atoms: N_26  and  S_27
REMARK    9  A    between atoms: S_27  and  C_30
REMARK   10  A    between atoms: C_33  and  C_36
REMARK                            x       y       z     vdW  Elec       q    Type
REMARK                         _______ _______ _______ _____ _____    ______ ____
ROOT
ATOM      1  C   UNL     1      -1.604   8.957  -0.368  0.00  0.00    +0.224 C 
ATOM      2  O   UNL     1      -2.464   8.646  -1.165  0.00  0.00    -0.275 OA
ATOM      3  N   UNL     1      -1.291  10.255  -0.187  0.00  0.00    -0.263 N 
ATOM      4  C   UNL     1      -1.954  11.238  -0.914  0.00  0.00    +0.188 A 
ATOM      5  N   UNL     1      -2.906  11.116  -1.823  0.00  0.00    -0.126 NA
ATOM      6  N   UNL     1      -3.415  12.119  -2.396  0.00  0.00    -0.145 NA
ATOM      7  C   UNL     1      -3.001  13.337  -2.110  0.00  0.00    +0.105 A 
ATOM      8  S   UNL     1      -1.755  12.966  -0.881  0.00  0.00    -0.035 S 
ATOM      9  H   UNL     1      -0.603  10.504   0.450  0.00  0.00    +0.157 HD
ENDROOT
BRANCH   1  12
ATOM     10  N   UNL     1      -0.075   5.668   0.031  0.00  0.00    -0.271 N 
ATOM     11  C   UNL     1      -1.294   6.481  -0.065  0.00  0.00    +0.127 C 
ATOM     12  C   UNL     1      -0.885   7.892   0.419  0.00  0.00    +0.102 C 
ATOM     13  C   UNL     1       0.630   7.903   0.110  0.00  0.00    +0.110 C 
ATOM     14  C   UNL     1       1.021   6.441   0.121  0.00  0.00    +0.221 C 
ATOM     15  O   UNL     1       2.159   6.027   0.200  0.00  0.00    -0.275 OA
BRANCH  10  19
ATOM     16  C   UNL     1      -0.018   1.503   0.010  0.00  0.00    -0.048 A 
ATOM     17  C   UNL     1      -1.226   2.176   0.035  0.00  0.00    +0.005 A 
ATOM     18  C   UNL     1      -1.248   3.557   0.048  0.00  0.00    +0.024 A 
ATOM     19  C   UNL     1      -0.056   4.269   0.024  0.00  0.00    +0.036 A 
ATOM     20  C   UNL     1       1.155   3.590  -0.006  0.00  0.00    +0.024 A 
ATOM     21  C   UNL     1       1.170   2.209  -0.013  0.00  0.00    +0.005 A 
BRANCH  16  23
ATOM     22  C   UNL     1       0.041  -0.521   1.441  0.00  0.00    +0.009 C 
ATOM     23  C   UNL     1       0.002  -0.004   0.002  0.00  0.00    +0.032 C 
ENDBRANCH  16  23
ENDBRANCH  10  19
ENDBRANCH   1  12
BRANCH   7  24
ATOM     24  C   UNL     1      -3.449  14.666  -2.662  0.00  0.00    +0.081 C 
BRANCH  24  25
ATOM     25  C   UNL     1      -4.597  15.211  -1.810  0.00  0.00    +0.112 C 
BRANCH  25  26
ATOM     26  N   UNL     1      -5.033  16.502  -2.346  0.00  0.00    -0.190 NA
ATOM     27  H   UNL     1      -4.474  16.978  -2.980  0.00  0.00    +0.148 HD
BRANCH  26  28
ATOM     28  S   UNL     1      -6.481  17.150  -1.871  0.00  0.00    +0.058 S 
ATOM     29  O   UNL     1      -6.604  18.400  -2.535  0.00  0.00    -0.153 OA
ATOM     30  O   UNL     1      -7.450  16.119  -2.002  0.00  0.00    -0.153 OA
BRANCH  28  31
ATOM     31  C   UNL     1      -6.353  17.505  -0.149  0.00  0.00    +0.105 A 
ATOM     32  C   UNL     1      -6.714  16.549   0.782  0.00  0.00    +0.029 A 
ATOM     33  C   UNL     1      -6.610  16.826   2.132  0.00  0.00    +0.005 A 
ATOM     34  C   UNL     1      -6.152  18.062   2.551  0.00  0.00    -0.050 A 
ATOM     35  C   UNL     1      -5.795  19.019   1.620  0.00  0.00    +0.005 A 
ATOM     36  C   UNL     1      -5.896  18.741   0.270  0.00  0.00    +0.029 A 
ATOM     37  C   UNL     1      -6.043  18.365   4.023  0.00  0.00    +0.044 C 
ENDBRANCH  28  31
ENDBRANCH  26  28
ENDBRANCH  25  26
ENDBRANCH  24  25
ENDBRANCH   7  24
TORSDOF 8
