REMARK  Name = ZINC08789616
REMARK  4 active torsions:
REMARK  status: ('A' for Active; 'I' for Inactive)
REMARK    1  A    between atoms: C_1  and  C_2
REMARK    2  A    between atoms: C_7  and  C_8
REMARK    3  A    between atoms: C_13  and  C_30
REMARK    4  A    between atoms: C_30  and  C_32
REMARK                            x       y       z     vdW  Elec       q    Type
REMARK                         _______ _______ _______ _____ _____    ______ ____
ROOT
ATOM      1  C   UNL     1      -1.570   7.519   3.446  0.00  0.00    +0.044 C 
ATOM      2  C   UNL     1      -1.696   6.134   2.865  0.00  0.00    -0.046 A 
ATOM      3  C   UNL     1      -2.556   5.908   1.806  0.00  0.00    +0.004 A 
ATOM      4  C   UNL     1      -2.672   4.636   1.273  0.00  0.00    +0.005 A 
ATOM      5  C   UNL     1      -1.931   3.601   1.796  0.00  0.00    -0.027 A 
ATOM      6  C   UNL     1      -1.063   3.816   2.861  0.00  0.00    +0.039 A 
ATOM      7  C   UNL     1      -0.952   5.099   3.392  0.00  0.00    -0.026 A 
ATOM      8  C   UNL     1      -0.018   5.357   4.546  0.00  0.00    +0.046 C 
ATOM      9  N   UNL     1      -0.427   2.624   3.214  0.00  0.00    -0.286 N 
ATOM     10  C   UNL     1      -0.815   1.593   2.442  0.00  0.00    +0.212 C 
ATOM     11  O   UNL     1      -0.430   0.446   2.522  0.00  0.00    -0.277 OA
ATOM     12  C   UNL     1      -1.822   2.137   1.459  0.00  0.00    +0.052 C 
ATOM     13  C   UNL     1      -1.330   1.946   0.019  0.00  0.00    +0.084 C 
ATOM     14  C   UNL     1      -2.413   1.108  -0.668  0.00  0.00    +0.071 C 
ATOM     15  C   UNL     1      -1.817   0.041  -1.542  0.00  0.00    -0.012 A 
ATOM     16  C   UNL     1      -0.970  -1.017  -1.301  0.00  0.00    +0.006 A 
ATOM     17  C   UNL     1      -0.589  -1.849  -2.339  0.00  0.00    +0.000 A 
ATOM     18  C   UNL     1      -1.061  -1.615  -3.617  0.00  0.00    +0.002 A 
ATOM     19  C   UNL     1      -1.911  -0.557  -3.863  0.00  0.00    +0.023 A 
ATOM     20  C   UNL     1      -2.299   0.286  -2.824  0.00  0.00    +0.038 A 
ATOM     21  N   UNL     1      -3.135   1.405  -2.820  0.00  0.00    -0.285 N 
ATOM     22  C   UNL     1      -3.254   1.946  -1.593  0.00  0.00    +0.227 C 
ATOM     23  O   UNL     1      -3.911   2.920  -1.291  0.00  0.00    -0.275 OA
ATOM     24  C   UNL     1      -3.252   0.507   0.468  0.00  0.00    -0.046 C 
ATOM     25  C   UNL     1      -4.230   2.429   1.448  0.00  0.00    -0.076 C 
ATOM     26  C   UNL     1      -5.414   1.538   0.996  0.00  0.00    -0.020 C 
ATOM     27  C   UNL     1      -4.737   0.511   0.060  0.00  0.00    -0.016 C 
ATOM     28  H   UNL     1       0.220   2.548   3.933  0.00  0.00    +0.155 HD
ATOM     29  H   UNL     1      -3.579   1.751  -3.610  0.00  0.00    +0.155 HD
ATOM     30  N   UNL     1      -3.127   1.453   1.565  0.00  0.00    +0.395 N 
ATOM     31  H   UNL     1      -3.188   0.963   2.465  0.00  0.00    -0.079 HD
ENDROOT
BRANCH  13  32
ATOM     32  C   UNL     1      -0.014   1.210   0.009  0.00  0.00    +0.202 C 
ATOM     33  O   UNL     1       0.084   0.135   0.564  0.00  0.00    -0.288 OA
BRANCH  32  34
ATOM     34  C   UNL     1       1.103   1.769  -0.652  0.00  0.00    +0.170 A 
ATOM     35  C   UNL     1       2.360   1.205  -0.745  0.00  0.00    +0.053 A 
ATOM     36  C   UNL     1       3.144   2.100  -1.484  0.00  0.00    +0.042 A 
ATOM     37  C   UNL     1       2.357   3.152  -1.806  0.00  0.00    +0.196 A 
ATOM     38  O   UNL     1       1.130   2.947  -1.311  0.00  0.00    -0.460 OA
ENDBRANCH  32  34
ENDBRANCH  13  32
TORSDOF 2
