REMARK  Name = ZINC26938118
REMARK  8 active torsions:
REMARK  status: ('A' for Active; 'I' for Inactive)
REMARK    1  A    between atoms: C_1  and  C_2
REMARK    2  A    between atoms: C_5  and  O_8
REMARK    3  A    between atoms: O_8  and  C_9
REMARK    4  A    between atoms: C_10  and  C_17
REMARK    5  A    between atoms: C_11  and  C_15
REMARK    6  A    between atoms: C_11  and  C_16
REMARK    7  A    between atoms: C_20  and  S_23
REMARK    8  A    between atoms: S_23  and  C_26
REMARK                            x       y       z     vdW  Elec       q    Type
REMARK                         _______ _______ _______ _____ _____    ______ ____
ROOT
ATOM      1  C   UNL     1      -2.516   2.267   6.379  0.00  0.00    +0.221 C 
ATOM      2  C   UNL     1      -2.587   2.953   5.216  0.00  0.00    +0.052 C 
ATOM      3  C   UNL     1      -3.604   4.051   5.423  0.00  0.00    +0.137 C 
ATOM      4  O   UNL     1      -4.076   3.911   6.792  0.00  0.00    -0.448 OA
ATOM      5  C   UNL     1      -3.434   2.868   7.348  0.00  0.00    +0.376 C 
ATOM      6  O   UNL     1      -3.596   2.478   8.489  0.00  0.00    -0.241 OA
ATOM      7  C   UNL     1      -2.949   5.420   5.229  0.00  0.00    +0.061 C 
ATOM      8  C   UNL     1      -4.768   3.882   4.443  0.00  0.00    +0.061 C 
ENDROOT
BRANCH   2   9
ATOM      9  C   UNL     1      -1.826   2.680   3.986  0.00  0.00    -0.014 A 
ATOM     10  C   UNL     1      -2.056   1.505   3.264  0.00  0.00    +0.010 A 
ATOM     11  C   UNL     1      -1.339   1.256   2.113  0.00  0.00    +0.027 A 
ATOM     12  C   UNL     1      -0.394   2.166   1.672  0.00  0.00    +0.088 A 
ATOM     13  C   UNL     1      -0.157   3.329   2.384  0.00  0.00    +0.027 A 
ATOM     14  C   UNL     1      -0.870   3.594   3.534  0.00  0.00    +0.010 A 
BRANCH  12  15
ATOM     15  S   UNL     1       0.517   1.838   0.200  0.00  0.00    -0.006 S 
ATOM     16  O   UNL     1       0.624   0.422   0.146  0.00  0.00    -0.170 OA
ATOM     17  O   UNL     1       1.680   2.648   0.305  0.00  0.00    -0.170 OA
ATOM     18  C   UNL     1      -0.542   2.436  -1.147  0.00  0.00    +0.200 C 
ENDBRANCH  12  15
ENDBRANCH   2   9
BRANCH   1  19
ATOM     19  O   UNL     1      -1.717   1.192   6.612  0.00  0.00    -0.430 OA
BRANCH  19  24
ATOM     20  C   UNL     1       2.372   1.836  10.361  0.00  0.00    +0.045 C 
ATOM     21  C   UNL     1       1.277   1.626   9.347  0.00  0.00    -0.032 A 
ATOM     22  C   UNL     1       1.069   0.371   8.789  0.00  0.00    +0.010 A 
ATOM     23  C   UNL     1       0.051   0.221   7.865  0.00  0.00    +0.068 A 
ATOM     24  C   UNL     1      -0.719   1.325   7.520  0.00  0.00    +0.221 A 
ATOM     25  N   UNL     1      -0.490   2.505   8.074  0.00  0.00    -0.221 NA
ATOM     26  C   UNL     1       0.471   2.678   8.962  0.00  0.00    +0.118 A 
ENDBRANCH  19  24
ENDBRANCH   1  19
TORSDOF 4
