REMARK  Name = ZINC20667402
REMARK  4 active torsions:
REMARK  status: ('A' for Active; 'I' for Inactive)
REMARK    1  A    between atoms: C_4  and  C_7
REMARK    2  A    between atoms: N_10  and  C_13
REMARK    3  A    between atoms: C_16  and  C_22
REMARK    4  A    between atoms: C_18  and  N_19
REMARK                            x       y       z     vdW  Elec       q    Type
REMARK                         _______ _______ _______ _____ _____    ______ ____
ROOT
ATOM      1  C   UNL     1      -0.479   8.278   0.529  0.00  0.00    -0.041 C 
ATOM      2  C   UNL     1      -1.457   7.595  -0.024  0.00  0.00    -0.004 C 
ATOM      3  C   UNL     1      -1.437   6.100  -0.160  0.00  0.00    +0.132 C 
ATOM      4  N   UNL     1      -0.072   5.591   0.019  0.00  0.00    -0.324 N 
ATOM      5  C   UNL     1       0.513   6.125   1.261  0.00  0.00    +0.110 C 
ATOM      6  C   UNL     1       0.759   7.624   1.077  0.00  0.00    +0.054 C 
ENDROOT
BRANCH   1  10
ATOM      7  C   UNL     1      -0.835  12.502   0.785  0.00  0.00    +0.000 A 
ATOM      8  C   UNL     1      -1.711  11.694   1.487  0.00  0.00    +0.001 A 
ATOM      9  C   UNL     1      -1.601  10.321   1.408  0.00  0.00    +0.008 A 
ATOM     10  C   UNL     1      -0.603   9.748   0.618  0.00  0.00    -0.022 A 
ATOM     11  C   UNL     1       0.281  10.569  -0.083  0.00  0.00    +0.008 A 
ATOM     12  C   UNL     1       0.156  11.941  -0.000  0.00  0.00    +0.001 A 
ENDBRANCH   1  10
BRANCH   4  13
ATOM     13  C   UNL     1      -0.054   4.199   0.018  0.00  0.00    +0.061 A 
ATOM     14  C   UNL     1      -0.798   3.494   0.960  0.00  0.00    +0.027 A 
ATOM     15  C   UNL     1      -0.783   2.118   0.962  0.00  0.00    +0.021 A 
ATOM     16  C   UNL     1      -0.018   1.428   0.016  0.00  0.00    +0.054 A 
ATOM     17  C   UNL     1       0.732   2.139  -0.925  0.00  0.00    +0.053 A 
ATOM     18  C   UNL     1       0.708   3.515  -0.925  0.00  0.00    +0.148 A 
BRANCH  18  19
ATOM     19  N   UNL     1       1.498   4.269  -1.924  0.00  0.00    +0.058 N 
ATOM     20  O   UNL     1       2.090   3.674  -2.806  0.00  0.00    -0.126 OA
ATOM     21  O   UNL     1       1.555   5.484  -1.864  0.00  0.00    -0.126 OA
ENDBRANCH  18  19
BRANCH  16  22
ATOM     22  C   UNL     1       0.001  -0.004   0.015  0.00  0.00    +0.099 C 
ATOM     23  N   UNL     1       0.016  -1.140   0.015  0.00  0.00    -0.191 NA
ENDBRANCH  16  22
ENDBRANCH   4  13
TORSDOF 4
