REMARK  Name = ZINC46839834
REMARK  10 active torsions:
REMARK  status: ('A' for Active; 'I' for Inactive)
REMARK    1  A    between atoms: C_1  and  C_2
REMARK    2  A    between atoms: C_5  and  C_34
REMARK    3  A    between atoms: N_8  and  C_10
REMARK    4  A    between atoms: C_13  and  C_19
REMARK    5  A    between atoms: C_15  and  N_16
REMARK    6  A    between atoms: N_21  and  C_22
REMARK    7  A    between atoms: C_22  and  C_23
REMARK    8  A    between atoms: C_28  and  N_29
REMARK    9  A    between atoms: N_29  and  S_30
REMARK   10  A    between atoms: S_30  and  C_33
REMARK                            x       y       z     vdW  Elec       q    Type
REMARK                         _______ _______ _______ _____ _____    ______ ____
ROOT
ATOM      1  C   UNL     1       2.225  -1.823   1.750  0.00  0.00    +0.060 A 
ATOM      2  C   UNL     1       2.755  -2.343   0.572  0.00  0.00    +0.026 A 
ATOM      3  C   UNL     1       3.771  -3.270   0.623  0.00  0.00    +0.015 A 
ATOM      4  C   UNL     1       4.269  -3.691   1.859  0.00  0.00    +0.039 A 
ATOM      5  C   UNL     1       3.735  -3.167   3.040  0.00  0.00    +0.047 A 
ATOM      6  C   UNL     1       2.723  -2.236   2.982  0.00  0.00    +0.148 A 
ENDROOT
BRANCH   1  12
ATOM      7  C   UNL     1       0.965   2.674   0.425  0.00  0.00    +0.009 C 
ATOM      8  C   UNL     1       0.773   1.156   0.428  0.00  0.00    +0.003 C 
ATOM      9  C   UNL     1      -0.719   0.830   0.522  0.00  0.00    +0.009 C 
ATOM     10  C   UNL     1      -0.915  -0.688   0.492  0.00  0.00    +0.003 C 
ATOM     11  C   UNL     1      -0.206  -1.313   1.698  0.00  0.00    +0.108 C 
ATOM     12  N   UNL     1       1.199  -0.886   1.695  0.00  0.00    -0.328 N 
ATOM     13  C   UNL     1       1.501   0.550   1.632  0.00  0.00    +0.108 C 
ATOM     14  C   UNL     1      -0.322  -1.254  -0.800  0.00  0.00    +0.009 C 
ENDBRANCH   1  12
BRANCH   4  15
ATOM     15  C   UNL     1       5.357  -4.685   1.918  0.00  0.00    +0.244 C 
ATOM     16  O   UNL     1       5.790  -5.050   2.994  0.00  0.00    -0.270 OA
ATOM     17  N   UNL     1       5.872  -5.189   0.778  0.00  0.00    -0.307 N 
ATOM     18  H   UNL     1       5.526  -4.898  -0.080  0.00  0.00    +0.149 HD
BRANCH  17  19
ATOM     19  C   UNL     1       6.952  -6.176   0.836  0.00  0.00    +0.141 C 
BRANCH  19  20
ATOM     20  C   UNL     1       7.344  -6.575  -0.563  0.00  0.00    -0.008 A 
ATOM     21  C   UNL     1       6.867  -7.753  -1.105  0.00  0.00    +0.007 A 
ATOM     22  C   UNL     1       7.226  -8.120  -2.389  0.00  0.00    +0.000 A 
ATOM     23  C   UNL     1       8.063  -7.310  -3.135  0.00  0.00    +0.002 A 
ATOM     24  C   UNL     1       8.543  -6.131  -2.599  0.00  0.00    +0.025 A 
ATOM     25  C   UNL     1       8.180  -5.757  -1.312  0.00  0.00    +0.052 A 
BRANCH  25  26
ATOM     26  N   UNL     1       8.659  -4.562  -0.769  0.00  0.00    -0.221 N 
ATOM     27  H   UNL     1       8.870  -4.510   0.176  0.00  0.00    +0.173 HD
BRANCH  26  28
ATOM     28  S   UNL     1       8.866  -3.236  -1.739  0.00  0.00    +0.040 S 
ATOM     29  O   UNL     1       9.268  -2.199  -0.854  0.00  0.00    -0.155 OA
ATOM     30  O   UNL     1       9.728  -3.678  -2.778  0.00  0.00    -0.155 OA
ATOM     31  C   UNL     1       7.215  -2.883  -2.404  0.00  0.00    +0.218 C 
ENDBRANCH  26  28
ENDBRANCH  25  26
ENDBRANCH  19  20
ENDBRANCH  17  19
ENDBRANCH   4  15
BRANCH   6  32
ATOM     32  N   UNL     1       2.160  -1.678   4.232  0.00  0.00    +0.058 N 
ATOM     33  O   UNL     1       2.592  -2.036   5.303  0.00  0.00    -0.126 OA
ATOM     34  O   UNL     1       1.268  -0.863   4.182  0.00  0.00    -0.126 OA
ENDBRANCH   6  32
TORSDOF 7
