REMARK  Name = ZINC09504715
REMARK  10 active torsions:
REMARK  status: ('A' for Active; 'I' for Inactive)
REMARK    1  A    between atoms: C_1  and  C_2
REMARK    2  A    between atoms: N_11  and  C_12
REMARK    3  A    between atoms: C_12  and  C_13
REMARK    4  A    between atoms: C_13  and  C_14
REMARK    5  A    between atoms: C_14  and  N_63
REMARK    6  A    between atoms: C_15  and  N_63
REMARK    7  A    between atoms: C_16  and  N_63
REMARK    8  A    between atoms: C_17  and  C_19
REMARK    9  A    between atoms: N_22  and  S_25
REMARK   10  A    between atoms: S_25  and  C_28
REMARK                            x       y       z     vdW  Elec       q    Type
REMARK                         _______ _______ _______ _____ _____    ______ ____
ROOT
ATOM      1  C   UNL     1       1.070  -1.530  -0.744  0.00  0.00    +0.046 C 
ATOM      2  C   UNL     1       1.004  -1.298   0.744  0.00  0.00    -0.024 A 
ATOM      3  C   UNL     1       0.910  -2.370   1.593  0.00  0.00    +0.005 A 
ATOM      4  C   UNL     1       0.847  -2.201   2.969  0.00  0.00    +0.001 A 
ATOM      5  C   UNL     1       0.878  -0.923   3.497  0.00  0.00    +0.017 A 
ATOM      6  C   UNL     1       0.972   0.155   2.654  0.00  0.00    +0.041 A 
ATOM      7  C   UNL     1       1.038   0.022   1.248  0.00  0.00    +0.083 A 
ATOM      8  N   UNL     1       1.128   1.178   0.555  0.00  0.00    -0.224 NA
ATOM      9  C   UNL     1       1.152   2.352   1.141  0.00  0.00    +0.168 A 
ATOM     10  S   UNL     1       1.042   1.918   2.871  0.00  0.00    -0.052 S 
ATOM     11  N   UNL     1       1.240   3.609   0.564  0.00  0.00    -0.250 N 
ATOM     12  C   UNL     1       0.127   4.229   0.125  0.00  0.00    +0.224 C 
ATOM     13  O   UNL     1       0.214   5.287  -0.462  0.00  0.00    -0.275 OA
ENDROOT
BRANCH  12  14
ATOM     14  C   UNL     1      -1.225   3.607   0.363  0.00  0.00    +0.078 C 
ATOM     15  C   UNL     1      -1.620   2.766  -0.853  0.00  0.00    +0.030 C 
ATOM     16  C   UNL     1      -2.979   2.108  -0.594  0.00  0.00    +0.110 C 
ATOM     17  N   UNL     1      -3.950   3.152  -0.241  0.00  0.00    -0.176 NA
ATOM     18  C   UNL     1      -3.628   4.075   0.856  0.00  0.00    +0.110 C 
ATOM     19  C   UNL     1      -2.262   4.711   0.581  0.00  0.00    +0.030 C 
BRANCH  17  20
ATOM     20  S   UNL     1      -5.381   3.287  -1.064  0.00  0.00    +0.067 S 
ATOM     21  O   UNL     1      -5.651   2.008  -1.621  0.00  0.00    -0.152 OA
ATOM     22  O   UNL     1      -6.290   3.946  -0.193  0.00  0.00    -0.152 OA
BRANCH  20  23
ATOM     23  C   UNL     1      -5.101   4.378  -2.419  0.00  0.00    +0.143 A 
ATOM     24  C   UNL     1      -4.690   4.088  -3.678  0.00  0.00    +0.036 A 
ATOM     25  C   UNL     1      -4.540   5.117  -4.588  0.00  0.00    +0.010 A 
ATOM     26  C   UNL     1      -4.799   6.387  -4.193  0.00  0.00    +0.047 A 
ATOM     27  S   UNL     1      -5.278   6.153  -2.489  0.00  0.00    -0.077 S 
ENDBRANCH  20  23
ENDBRANCH  17  20
ENDBRANCH  12  14
BRANCH  11  28
ATOM     28  C   UNL     1       2.544   4.264   0.433  0.00  0.00    +0.114 C 
BRANCH  28  29
ATOM     29  C   UNL     1       3.172   3.885  -0.910  0.00  0.00    +0.001 C 
BRANCH  29  30
ATOM     30  C   UNL     1       4.533   4.570  -1.048  0.00  0.00    -0.078 C 
BRANCH  30  33
ATOM     31  C   UNL     1       4.356   4.752  -3.456  0.00  0.00    -0.097 C 
ATOM     32  C   UNL     1       6.536   4.646  -2.407  0.00  0.00    -0.097 C 
ATOM     33  N   UNL     1       5.136   4.177  -2.339  0.00  0.00    +0.376 N 
ATOM     34  H   UNL     1       5.123   3.153  -2.416  0.00  0.00    -0.083 HD
ENDBRANCH  30  33
ENDBRANCH  29  30
ENDBRANCH  28  29
ENDBRANCH  11  28
TORSDOF 7
