REMARK  Name = ZINC59513067
REMARK  6 active torsions:
REMARK  status: ('A' for Active; 'I' for Inactive)
REMARK    1  A    between atoms: C_1  and  C_2
REMARK    2  A    between atoms: C_5  and  C_8
REMARK    3  A    between atoms: C_11  and  C_32
REMARK    4  A    between atoms: C_15  and  C_18
REMARK    5  A    between atoms: N_20  and  C_21
REMARK    6  A    between atoms: C_26  and  O_27
REMARK                            x       y       z     vdW  Elec       q    Type
REMARK                         _______ _______ _______ _____ _____    ______ ____
ROOT
ATOM      1  C   UNL     1       0.067  -4.310  -0.025  0.00  0.00    +0.104 C 
ATOM      2  C   UNL     1       1.491  -4.819   0.227  0.00  0.00    +0.063 C 
ATOM      3  C   UNL     1       2.016  -4.259   1.554  0.00  0.00    +0.215 C 
ATOM      4  N   UNL     1       1.010  -4.490   2.596  0.00  0.00    -0.238 N 
ATOM      5  C   UNL     1      -0.294  -4.748   2.337  0.00  0.00    +0.130 A 
ATOM      6  C   UNL     1      -0.936  -4.912   3.550  0.00  0.00    +0.096 A 
ATOM      7  C   UNL     1       0.045  -4.740   4.559  0.00  0.00    +0.149 A 
ATOM      8  N   UNL     1       1.188  -4.491   3.978  0.00  0.00    -0.177 NA
ATOM      9  N   UNL     1      -0.811  -4.814   1.050  0.00  0.00    -0.322 N 
ATOM     10  H   UNL     1      -1.694  -5.171   0.866  0.00  0.00    +0.148 HD
ENDROOT
BRANCH   1  15
ATOM     11  C   UNL     1       0.034   1.468  -0.007  0.00  0.00    +0.044 C 
ATOM     12  C   UNL     1       0.043  -0.038  -0.011  0.00  0.00    -0.050 A 
ATOM     13  C   UNL     1       0.041  -0.726  -1.211  0.00  0.00    +0.004 A 
ATOM     14  C   UNL     1       0.049  -2.108  -1.215  0.00  0.00    +0.006 A 
ATOM     15  C   UNL     1       0.059  -2.803  -0.020  0.00  0.00    -0.027 A 
ATOM     16  C   UNL     1       0.062  -2.116   1.179  0.00  0.00    +0.006 A 
ATOM     17  C   UNL     1       0.058  -0.733   1.184  0.00  0.00    +0.004 A 
ENDBRANCH   1  15
BRANCH   6  18
ATOM     18  C   UNL     1      -2.359  -5.208   3.754  0.00  0.00    +0.253 C 
ATOM     19  O   UNL     1      -3.099  -5.332   2.795  0.00  0.00    -0.270 OA
ATOM     20  N   UNL     1      -2.847  -5.342   5.003  0.00  0.00    -0.278 N 
ATOM     21  H   UNL     1      -2.247  -5.308   5.765  0.00  0.00    +0.155 HD
BRANCH  20  22
ATOM     22  C   UNL     1      -4.223  -5.531   5.202  0.00  0.00    +0.079 A 
ATOM     23  C   UNL     1      -4.962  -6.265   4.286  0.00  0.00    +0.076 A 
ATOM     24  C   UNL     1      -6.321  -6.452   4.482  0.00  0.00    +0.168 A 
ATOM     25  C   UNL     1      -6.944  -5.903   5.600  0.00  0.00    +0.170 A 
ATOM     26  C   UNL     1      -6.205  -5.170   6.515  0.00  0.00    +0.096 A 
ATOM     27  C   UNL     1      -4.845  -4.988   6.322  0.00  0.00    +0.142 A 
ATOM     28  O   UNL     1      -8.271  -6.227   5.562  0.00  0.00    -0.452 OA
ATOM     29  C   UNL     1      -8.530  -6.629   4.204  0.00  0.00    +0.466 C 
ATOM     30  O   UNL     1      -7.256  -7.119   3.744  0.00  0.00    -0.453 OA
BRANCH  27  31
ATOM     31  O   UNL     1      -4.120  -4.273   7.225  0.00  0.00    -0.505 OA
ATOM     32  H   UNL     1      -4.078  -3.326   7.034  0.00  0.00    +0.292 HD
ENDBRANCH  27  31
ENDBRANCH  20  22
ENDBRANCH   6  18
BRANCH   3  33
ATOM     33  C   UNL     1       3.319  -4.967   1.929  0.00  0.00    +0.412 C 
ATOM     34  F   UNL     1       4.271  -4.755   0.926  0.00  0.00    -0.168 F 
ATOM     35  F   UNL     1       3.796  -4.455   3.140  0.00  0.00    -0.168 F 
ATOM     36  F   UNL     1       3.082  -6.339   2.064  0.00  0.00    -0.168 F 
ENDBRANCH   3  33
TORSDOF 5
