REMARK  Name = ZINC39773356
REMARK  16 active torsions:
REMARK  status: ('A' for Active; 'I' for Inactive)
REMARK    1  A    between atoms: C_1  and  C_2
REMARK    2  A    between atoms: C_2  and  C_3
REMARK    3  A    between atoms: C_4  and  C_36
REMARK    4  A    between atoms: C_9  and  C_11
REMARK    5  A    between atoms: C_11  and  C_13
REMARK    6  A    between atoms: C_11  and  S_14
REMARK    7  A    between atoms: S_14  and  C_15
REMARK    8  A    between atoms: C_18  and  C_22
REMARK    9  A    between atoms: N_19  and  C_20
REMARK   10  A    between atoms: C_20  and  C_21
REMARK   11  A    between atoms: C_22  and  N_23
REMARK   12  A    between atoms: C_24  and  C_26
REMARK   13  A    between atoms: C_29  and  O_34
REMARK   14  A    between atoms: C_30  and  O_32
REMARK   15  A    between atoms: O_32  and  C_33
REMARK   16  A    between atoms: O_34  and  C_35
REMARK                            x       y       z     vdW  Elec       q    Type
REMARK                         _______ _______ _______ _____ _____    ______ ____
ROOT
ATOM      1  C   UNL     1      -8.911  -2.433  -4.096  0.00  0.00    +0.192 A 
ATOM      2  N   UNL     1      -8.407  -2.670  -5.285  0.00  0.00    -0.122 NA
ATOM      3  N   UNL     1      -9.355  -2.808  -6.142  0.00  0.00    -0.132 NA
ATOM      4  C   UNL     1     -10.511  -2.670  -5.556  0.00  0.00    +0.151 A 
ATOM      5  N   UNL     1     -10.270  -2.432  -4.231  0.00  0.00    -0.305 N 
ENDROOT
BRANCH   5   6
ATOM      6  C   UNL     1     -11.263  -2.217  -3.176  0.00  0.00    +0.122 C 
ATOM      7  C   UNL     1     -11.582  -0.724  -3.072  0.00  0.00    +0.027 C 
ENDBRANCH   5   6
BRANCH   1   8
ATOM      8  S   UNL     1      -8.005  -2.175  -2.607  0.00  0.00    -0.074 S 
BRANCH   8   9
ATOM      9  C   UNL     1      -6.271  -2.304  -3.121  0.00  0.00    +0.137 C 
ATOM     10  C   UNL     1      -5.985  -3.728  -3.601  0.00  0.00    +0.029 C 
BRANCH   9  17
ATOM     11  C   UNL     1      -1.412  -0.526   0.013  0.00  0.00    +0.053 A 
ATOM     12  C   UNL     1      -2.067  -0.772   1.174  0.00  0.00    +0.011 A 
ATOM     13  S   UNL     1      -3.639  -1.349   0.553  0.00  0.00    -0.057 S 
ATOM     14  C   UNL     1      -3.302  -1.218  -1.091  0.00  0.00    +0.165 A 
ATOM     15  N   UNL     1      -2.070  -0.758  -1.108  0.00  0.00    -0.229 NA
ATOM     16  N   UNL     1      -4.127  -1.518  -2.168  0.00  0.00    -0.264 N 
ATOM     17  C   UNL     1      -5.375  -1.978  -1.953  0.00  0.00    +0.232 C 
ATOM     18  O   UNL     1      -5.778  -2.131  -0.819  0.00  0.00    -0.274 OA
ATOM     19  C   UNL     1      -1.597  -0.606   2.596  0.00  0.00    +0.053 C 
ATOM     20  H   UNL     1      -3.805  -1.395  -3.075  0.00  0.00    +0.157 HD
BRANCH  11  22
ATOM     21  C   UNL     1      -0.019   1.526   0.010  0.00  0.00    +0.010 C 
ATOM     22  C   UNL     1       0.002  -0.004   0.002  0.00  0.00    +0.053 C 
ENDBRANCH  11  22
ENDBRANCH   9  17
ENDBRANCH   8   9
ENDBRANCH   1   8
BRANCH   4  23
ATOM     23  C   UNL     1     -11.863  -2.761  -6.215  0.00  0.00    +0.181 C 
BRANCH  23  24
ATOM     24  N   UNL     1     -12.334  -4.148  -6.173  0.00  0.00    -0.304 N 
ATOM     25  C   UNL     1     -13.529  -4.470  -6.707  0.00  0.00    +0.245 C 
ATOM     26  O   UNL     1     -14.216  -3.610  -7.224  0.00  0.00    -0.270 OA
ATOM     27  H   UNL     1     -11.786  -4.834  -5.760  0.00  0.00    +0.149 HD
BRANCH  25  28
ATOM     28  C   UNL     1     -14.004  -5.867  -6.664  0.00  0.00    +0.040 A 
ATOM     29  C   UNL     1     -13.218  -6.855  -6.065  0.00  0.00    +0.017 A 
ATOM     30  C   UNL     1     -13.663  -8.159  -6.025  0.00  0.00    +0.050 A 
ATOM     31  C   UNL     1     -14.891  -8.494  -6.580  0.00  0.00    +0.162 A 
ATOM     32  C   UNL     1     -15.679  -7.513  -7.179  0.00  0.00    +0.162 A 
ATOM     33  C   UNL     1     -15.242  -6.203  -7.217  0.00  0.00    +0.062 A 
BRANCH  32  34
ATOM     34  O   UNL     1     -16.881  -7.845  -7.723  0.00  0.00    -0.491 OA
ATOM     35  C   UNL     1     -17.636  -6.789  -8.320  0.00  0.00    +0.277 C 
ENDBRANCH  32  34
BRANCH  31  36
ATOM     36  O   UNL     1     -15.325  -9.780  -6.539  0.00  0.00    -0.491 OA
ATOM     37  C   UNL     1     -14.467 -10.734  -5.910  0.00  0.00    +0.277 C 
ENDBRANCH  31  36
ENDBRANCH  25  28
ENDBRANCH  23  24
ENDBRANCH   4  23
TORSDOF 10
