REMARK  Name = ZINC36694059
REMARK  4 active torsions:
REMARK  status: ('A' for Active; 'I' for Inactive)
REMARK    1  A    between atoms: C_1  and  S_2
REMARK    2  A    between atoms: S_2  and  C_3
REMARK    3  A    between atoms: C_6  and  C_9
REMARK    4  A    between atoms: C_15  and  C_17
REMARK                            x       y       z     vdW  Elec       q    Type
REMARK                         _______ _______ _______ _____ _____    ______ ____
ROOT
ATOM      1  C   UNL     1       2.986  -1.445   5.017  0.00  0.00    +0.250 A 
ATOM      2  N   UNL     1       3.479  -0.606   5.896  0.00  0.00    -0.106 NA
ATOM      3  N   UNL     1       4.051  -1.265   6.841  0.00  0.00    -0.092 NA
ATOM      4  C   UNL     1       3.947  -2.550   6.603  0.00  0.00    +0.315 A 
ATOM      5  O   UNL     1       3.267  -2.694   5.449  0.00  0.00    -0.405 OA
ATOM      6  N   UNL     1       4.440  -3.573   7.396  0.00  0.00    -0.234 N 
ATOM      7  C   UNL     1       5.100  -3.284   8.535  0.00  0.00    +0.254 C 
ATOM      8  O   UNL     1       5.263  -2.124   8.867  0.00  0.00    -0.270 OA
ATOM      9  H   UNL     1       4.311  -4.497   7.132  0.00  0.00    +0.160 HD
ENDROOT
BRANCH   7  10
ATOM     10  C   UNL     1       5.623  -4.368   9.376  0.00  0.00    +0.062 A 
ATOM     11  C   UNL     1       5.526  -5.707   9.136  0.00  0.00    +0.096 A 
ATOM     12  N   UNL     1       6.128  -6.397  10.134  0.00  0.00    -0.360 N 
ATOM     13  H   UNL     1       6.186  -7.364  10.182  0.00  0.00    +0.165 HD
ATOM     14  C   UNL     1       6.646  -5.530  11.074  0.00  0.00    +0.047 A 
ATOM     15  C   UNL     1       6.362  -4.224  10.644  0.00  0.00    +0.012 A 
ATOM     16  C   UNL     1       6.777  -3.133  11.403  0.00  0.00    +0.011 A 
ATOM     17  C   UNL     1       7.471  -3.342  12.575  0.00  0.00    +0.001 A 
ATOM     18  C   UNL     1       7.756  -4.631  12.999  0.00  0.00    +0.002 A 
ATOM     19  C   UNL     1       7.343  -5.720  12.263  0.00  0.00    +0.026 A 
ENDBRANCH   7  10
BRANCH   1  23
ATOM     20  C   UNL     1       0.877  -0.427   1.472  0.00  0.00    +0.008 A 
ATOM     21  C   UNL     1       1.349   0.577   2.312  0.00  0.00    +0.015 A 
ATOM     22  C   UNL     1       2.033   0.250   3.462  0.00  0.00    +0.014 A 
ATOM     23  C   UNL     1       2.252  -1.091   3.785  0.00  0.00    +0.039 A 
ATOM     24  C   UNL     1       1.776  -2.097   2.940  0.00  0.00    +0.014 A 
ATOM     25  C   UNL     1       1.089  -1.764   1.794  0.00  0.00    +0.015 A 
BRANCH  20  27
ATOM     26  C   UNL     1      -0.022   1.810   0.012  0.00  0.00    +0.090 C 
ATOM     27  S   UNL     1       0.002  -0.004   0.002  0.00  0.00    -0.129 S 
ENDBRANCH  20  27
ENDBRANCH   1  23
TORSDOF 3
