REMARK  Name = ZINC62060791
REMARK  7 active torsions:
REMARK  status: ('A' for Active; 'I' for Inactive)
REMARK    1  A    between atoms: C_6  and  C_7
REMARK    2  A    between atoms: N_9  and  C_10
REMARK    3  A    between atoms: C_10  and  C_11
REMARK    4  A    between atoms: C_11  and  C_12
REMARK    5  A    between atoms: C_12  and  C_13
REMARK    6  A    between atoms: C_13  and  N_14
REMARK    7  A    between atoms: C_16  and  N_21
REMARK                            x       y       z     vdW  Elec       q    Type
REMARK                         _______ _______ _______ _____ _____    ______ ____
ROOT
ATOM      1  C   UNL     1      -2.198  -4.363   0.001  0.00  0.00    +0.020 C 
ENDROOT
BRANCH   1   2
ATOM      2  C   UNL     1      -2.501  -2.864   0.011  0.00  0.00    +0.104 C 
BRANCH   2   5
ATOM      3  C   UNL     1      -1.266  -0.763   0.011  0.00  0.00    +0.244 C 
ATOM      4  O   UNL     1      -2.328  -0.173   0.024  0.00  0.00    -0.270 OA
ATOM      5  N   UNL     1      -1.244  -2.111   0.003  0.00  0.00    -0.311 N 
ATOM      6  H   UNL     1      -0.397  -2.583  -0.008  0.00  0.00    +0.149 HD
BRANCH   3  12
ATOM      7  C   UNL     1      -0.017   1.392   0.010  0.00  0.00    +0.014 A 
ATOM      8  C   UNL     1       1.170   2.095   0.002  0.00  0.00    +0.015 A 
ATOM      9  C   UNL     1       2.378   1.419  -0.013  0.00  0.00    +0.013 A 
ATOM     10  C   UNL     1       2.403   0.035  -0.021  0.00  0.00    +0.015 A 
ATOM     11  C   UNL     1       1.224  -0.680  -0.014  0.00  0.00    +0.014 A 
ATOM     12  C   UNL     1       0.002  -0.004   0.002  0.00  0.00    +0.037 A 
ATOM     13  I   UNL     1       4.175   2.495  -0.024  0.00  0.00    -0.044 I 
ENDBRANCH   3  12
ENDBRANCH   2   5
ENDBRANCH   1   2
BRANCH   1  14
ATOM     14  C   UNL     1      -3.510  -5.149   0.009  0.00  0.00    +0.023 C 
BRANCH  14  15
ATOM     15  C   UNL     1      -3.207  -6.649  -0.002  0.00  0.00    +0.125 C 
BRANCH  15  16
ATOM     16  N   UNL     1      -4.464  -7.402   0.007  0.00  0.00    -0.313 N 
ATOM     17  C   UNL     1      -5.030  -7.748   1.191  0.00  0.00    +0.121 A 
ATOM     18  C   UNL     1      -6.191  -8.444   1.224  0.00  0.00    +0.142 A 
ATOM     19  C   UNL     1      -6.820  -8.813   0.027  0.00  0.00    +0.039 A 
ATOM     20  C   UNL     1      -6.249  -8.464  -1.162  0.00  0.00    +0.072 A 
ATOM     21  C   UNL     1      -5.046  -7.737  -1.160  0.00  0.00    +0.251 A 
ATOM     22  O   UNL     1      -4.527  -7.415  -2.216  0.00  0.00    -0.268 OA
BRANCH  18  23
ATOM     23  N   UNL     1      -6.795  -8.814   2.523  0.00  0.00    +0.058 N 
ATOM     24  O   UNL     1      -6.252  -8.496   3.555  0.00  0.00    -0.126 OA
ATOM     25  O   UNL     1      -7.832  -9.436   2.552  0.00  0.00    -0.126 OA
ENDBRANCH  18  23
ENDBRANCH  15  16
ENDBRANCH  14  15
ENDBRANCH   1  14
TORSDOF 7
