REMARK  Name = ZINC31038795
REMARK  11 active torsions:
REMARK  status: ('A' for Active; 'I' for Inactive)
REMARK    1  A    between atoms: C_1  and  C_2
REMARK    2  A    between atoms: C_5  and  N_9
REMARK    3  A    between atoms: C_10  and  C_12
REMARK    4  A    between atoms: C_12  and  C_14
REMARK    5  A    between atoms: C_12  and  N_15
REMARK    6  A    between atoms: N_15  and  C_16
REMARK    7  A    between atoms: N_15  and  C_17
REMARK    8  A    between atoms: C_17  and  C_18
REMARK    9  A    between atoms: N_20  and  C_21
REMARK   10  A    between atoms: C_26  and  S_27
REMARK   11  A    between atoms: S_27  and  C_28
REMARK                            x       y       z     vdW  Elec       q    Type
REMARK                         _______ _______ _______ _____ _____    ______ ____
ROOT
ATOM      1  N   UNL     1      -0.273  -7.028  -2.486  0.00  0.00    +0.391 N 
ATOM      2  C   UNL     1      -0.472  -8.477  -2.352  0.00  0.00    -0.094 C 
ATOM      3  H   UNL     1       0.592  -6.851  -2.976  0.00  0.00    -0.080 HD
ENDROOT
BRANCH   1   4
ATOM      4  C   UNL     1      -0.213  -6.416  -1.152  0.00  0.00    +0.017 C 
ATOM      5  C   UNL     1       0.878  -7.100  -0.325  0.00  0.00    -0.004 C 
BRANCH   4   7
ATOM      6  N   UNL     1      -0.309  -4.081  -0.341  0.00  0.00    -0.286 N 
ATOM      7  C   UNL     1       0.104  -4.949  -1.286  0.00  0.00    +0.203 C 
ATOM      8  O   UNL     1       0.730  -4.549  -2.244  0.00  0.00    -0.277 OA
ATOM      9  H   UNL     1      -0.753  -4.408   0.457  0.00  0.00    +0.155 HD
BRANCH   6  14
ATOM     10  C   UNL     1       0.547   1.485  -1.034  0.00  0.00    +0.044 C 
ATOM     11  C   UNL     1       0.319   0.007  -0.850  0.00  0.00    -0.049 A 
ATOM     12  C   UNL     1       1.196  -0.902  -1.413  0.00  0.00    +0.005 A 
ATOM     13  C   UNL     1       0.991  -2.257  -1.246  0.00  0.00    +0.024 A 
ATOM     14  C   UNL     1      -0.098  -2.708  -0.511  0.00  0.00    +0.047 A 
ATOM     15  C   UNL     1      -0.977  -1.793   0.054  0.00  0.00    +0.039 A 
ATOM     16  C   UNL     1      -0.763  -0.438  -0.113  0.00  0.00    +0.020 A 
ATOM     17 BR   UNL     1      -2.462  -2.401   1.054  0.00  0.00    -0.048 Br
ENDBRANCH   6  14
ENDBRANCH   4   7
ENDBRANCH   1   4
BRANCH   1  18
ATOM     18  C   UNL     1      -1.391  -6.448  -3.241  0.00  0.00    +0.020 C 
BRANCH  18  19
ATOM     19  C   UNL     1      -1.364  -6.967  -4.656  0.00  0.00    +0.201 C 
ATOM     20  O   UNL     1      -0.499  -7.743  -5.001  0.00  0.00    -0.278 OA
ATOM     21  N   UNL     1      -2.302  -6.568  -5.538  0.00  0.00    -0.286 N 
ATOM     22  H   UNL     1      -2.955  -5.898  -5.282  0.00  0.00    +0.155 HD
BRANCH  21  23
ATOM     23  C   UNL     1      -2.335  -7.122  -6.825  0.00  0.00    +0.047 A 
ATOM     24  C   UNL     1      -1.159  -7.534  -7.434  0.00  0.00    +0.024 A 
ATOM     25  C   UNL     1      -1.193  -8.080  -8.704  0.00  0.00    +0.002 A 
ATOM     26  C   UNL     1      -2.397  -8.217  -9.371  0.00  0.00    +0.001 A 
ATOM     27  C   UNL     1      -3.574  -7.809  -8.771  0.00  0.00    +0.016 A 
ATOM     28  C   UNL     1      -3.550  -7.265  -7.495  0.00  0.00    +0.029 A 
BRANCH  28  29
ATOM     29  S   UNL     1      -5.049  -6.751  -6.725  0.00  0.00    -0.127 S 
ATOM     30  C   UNL     1      -6.327  -7.130  -7.956  0.00  0.00    +0.090 C 
ENDBRANCH  28  29
ENDBRANCH  21  23
ENDBRANCH  18  19
ENDBRANCH   1  18
TORSDOF 7
