REMARK  Name = ZINC36910286
REMARK  10 active torsions:
REMARK  status: ('A' for Active; 'I' for Inactive)
REMARK    1  A    between atoms: C_1  and  C_2
REMARK    2  A    between atoms: C_2  and  N_3
REMARK    3  A    between atoms: N_3  and  C_4
REMARK    4  A    between atoms: N_3  and  C_6
REMARK    5  A    between atoms: C_4  and  C_5
REMARK    6  A    between atoms: C_6  and  C_7
REMARK    7  A    between atoms: C_7  and  N_8
REMARK    8  A    between atoms: C_12  and  C_20
REMARK    9  A    between atoms: C_16  and  C_17
REMARK   10  A    between atoms: C_17  and  C_18
REMARK                            x       y       z     vdW  Elec       q    Type
REMARK                         _______ _______ _______ _____ _____    ______ ____
ROOT
ATOM      1  N   UNL     1      -0.803  -3.594   2.129  0.00  0.00    -0.329 N 
ATOM      2  C   UNL     1      -1.811  -4.250   2.806  0.00  0.00    +0.069 A 
ATOM      3  C   UNL     1      -3.013  -3.851   3.374  0.00  0.00    +0.028 A 
ATOM      4  C   UNL     1      -3.817  -4.782   3.996  0.00  0.00    +0.005 A 
ATOM      5  C   UNL     1      -3.432  -6.114   4.059  0.00  0.00    -0.048 A 
ATOM      6  C   UNL     1      -2.252  -6.525   3.506  0.00  0.00    +0.033 A 
ATOM      7  C   UNL     1      -1.421  -5.599   2.869  0.00  0.00    +0.090 A 
ATOM      8  N   UNL     1      -0.222  -5.694   2.241  0.00  0.00    -0.232 NA
ATOM      9  C   UNL     1       0.137  -4.522   1.803  0.00  0.00    +0.112 A 
ATOM     10  C   UNL     1      -4.324  -7.117   4.744  0.00  0.00    +0.044 C 
ENDROOT
BRANCH   1  11
ATOM     11  C   UNL     1      -0.756  -2.164   1.814  0.00  0.00    +0.105 C 
BRANCH  11  12
ATOM     12  C   UNL     1      -1.421  -1.919   0.458  0.00  0.00    -0.057 C 
BRANCH  12  13
ATOM     13  N   UNL     1      -1.374  -0.485   0.142  0.00  0.00    +0.380 N 
ATOM     14  H   UNL     1      -1.792   0.039   0.895  0.00  0.00    -0.082 HD
BRANCH  13  16
ATOM     15  C   UNL     1       0.082   1.451  -0.216  0.00  0.00    -0.017 C 
ATOM     16  C   UNL     1       0.024  -0.066  -0.029  0.00  0.00    -0.082 C 
ENDBRANCH  13  16
BRANCH  13  17
ATOM     17  C   UNL     1      -2.116  -0.233  -1.101  0.00  0.00    -0.082 C 
ATOM     18  C   UNL     1      -3.600  -0.533  -0.879  0.00  0.00    -0.017 C 
ENDBRANCH  13  17
ENDBRANCH  12  13
ENDBRANCH  11  12
ENDBRANCH   1  11
BRANCH   9  19
ATOM     19  C   UNL     1       1.409  -4.235   1.049  0.00  0.00    +0.090 C 
BRANCH  19  20
ATOM     20  C   UNL     1       2.522  -3.885   2.039  0.00  0.00    +0.116 C 
ATOM     21 CL   UNL     1       4.044  -3.541   1.136  0.00  0.00    -0.125 Cl
ENDBRANCH  19  20
ENDBRANCH   9  19
TORSDOF 7
