REMARK  Name = ZINC33121111
REMARK  9 active torsions:
REMARK  status: ('A' for Active; 'I' for Inactive)
REMARK    1  A    between atoms: C_1  and  C_2
REMARK    2  A    between atoms: C_2  and  C_3
REMARK    3  A    between atoms: C_3  and  C_5
REMARK    4  A    between atoms: C_3  and  N_6
REMARK    5  A    between atoms: C_7  and  C_9
REMARK    6  A    between atoms: C_11  and  N_21
REMARK    7  A    between atoms: C_14  and  N_15
REMARK    8  A    between atoms: N_21  and  S_22
REMARK    9  A    between atoms: S_22  and  C_25
REMARK                            x       y       z     vdW  Elec       q    Type
REMARK                         _______ _______ _______ _____ _____    ______ ____
ROOT
ATOM      1  C   UNL     1      -4.809   2.083  -4.016  0.00  0.00    +0.059 A 
ATOM      2  C   UNL     1      -4.552   3.255  -3.300  0.00  0.00    +0.039 A 
ATOM      3  C   UNL     1      -3.599   3.255  -2.297  0.00  0.00    +0.049 A 
ATOM      4  C   UNL     1      -2.893   2.092  -2.003  0.00  0.00    +0.026 A 
ATOM      5  C   UNL     1      -3.144   0.929  -2.701  0.00  0.00    +0.026 A 
ATOM      6  C   UNL     1      -4.097   0.913  -3.711  0.00  0.00    +0.042 A 
ENDROOT
BRANCH   6   7
ATOM      7  N   UNL     1      -4.346  -0.260  -4.418  0.00  0.00    -0.333 N 
ATOM      8  C   UNL     1      -3.127  -0.742  -5.083  0.00  0.00    +0.086 C 
ATOM      9  C   UNL     1      -3.460  -1.985  -5.912  0.00  0.00    -0.063 C 
ATOM     10  N   UNL     1      -4.021  -3.020  -5.033  0.00  0.00    +0.381 N 
ATOM     11  C   UNL     1      -5.239  -2.538  -4.368  0.00  0.00    -0.063 C 
ATOM     12  C   UNL     1      -4.907  -1.295  -3.539  0.00  0.00    +0.086 C 
ATOM     13  H   UNL     1      -4.272  -3.910  -5.629  0.00  0.00    -0.086 HD
ATOM     14  H   UNL     1      -3.281  -3.290  -4.265  0.00  0.00    -0.086 HD
ENDBRANCH   6   7
BRANCH   1  16
ATOM     15  N   UNL     1      -6.580   3.168  -5.305  0.00  0.00    -0.309 N 
ATOM     16  C   UNL     1      -5.822   2.075  -5.087  0.00  0.00    +0.246 C 
ATOM     17  O   UNL     1      -5.975   1.083  -5.772  0.00  0.00    -0.270 OA
ATOM     18  H   UNL     1      -6.441   4.066  -4.685  0.00  0.00    +0.149 HD
BRANCH  15  19
ATOM     19  C   UNL     1      -7.587   3.161  -6.369  0.00  0.00    +0.070 C 
ATOM     20  C   UNL     1      -6.928   3.532  -7.699  0.00  0.00    +0.028 C 
BRANCH  19  22
ATOM     21  C   UNL     1      -9.425   3.739  -4.777  0.00  0.00    +0.005 C 
ATOM     22  C   UNL     1      -8.682   4.178  -6.041  0.00  0.00    +0.018 C 
ENDBRANCH  19  22
ENDBRANCH  15  19
ENDBRANCH   1  16
BRANCH   3  23
ATOM     23  N   UNL     1      -3.341   4.429  -1.579  0.00  0.00    -0.216 N 
ATOM     24  H   UNL     1      -3.214   5.383  -2.112  0.00  0.00    +0.174 HD
BRANCH  23  25
ATOM     25  S   UNL     1      -3.226   4.381   0.072  0.00  0.00    +0.072 S 
ATOM     26  O   UNL     1      -3.066   5.725   0.507  0.00  0.00    -0.150 OA
ATOM     27  O   UNL     1      -2.285   3.363   0.385  0.00  0.00    -0.150 OA
BRANCH  25  28
ATOM     28  C   UNL     1      -4.784   3.834   0.687  0.00  0.00    +0.109 A 
ATOM     29  C   UNL     1      -5.057   2.482   0.779  0.00  0.00    +0.029 A 
ATOM     30  C   UNL     1      -6.280   2.062   1.260  0.00  0.00    +0.006 A 
ATOM     31  C   UNL     1      -7.239   2.986   1.653  0.00  0.00    -0.044 A 
ATOM     32  C   UNL     1      -6.965   4.332   1.566  0.00  0.00    -0.042 A 
ATOM     33  C   UNL     1      -5.732   4.753   1.085  0.00  0.00    +0.032 A 
ATOM     34  C   UNL     1      -7.955   5.390   1.980  0.00  0.00    +0.035 C 
ATOM     35  C   UNL     1      -9.362   4.803   2.069  0.00  0.00    +0.005 C 
ATOM     36  C   UNL     1      -9.305   3.540   2.936  0.00  0.00    +0.005 C 
ATOM     37  C   UNL     1      -8.555   2.458   2.162  0.00  0.00    +0.035 C 
ENDBRANCH  25  28
ENDBRANCH  23  25
ENDBRANCH   3  23
TORSDOF 7
