REMARK  Name = ZINC67190414
REMARK  9 active torsions:
REMARK  status: ('A' for Active; 'I' for Inactive)
REMARK    1  A    between atoms: C_1  and  C_2
REMARK    2  A    between atoms: C_6  and  C_7
REMARK    3  A    between atoms: C_11  and  N_13
REMARK    4  A    between atoms: C_14  and  C_16
REMARK    5  A    between atoms: C_16  and  C_18
REMARK    6  A    between atoms: C_16  and  N_22
REMARK    7  A    between atoms: C_18  and  C_19
REMARK    8  A    between atoms: C_19  and  C_20
REMARK    9  A    between atoms: C_19  and  C_21
REMARK                            x       y       z     vdW  Elec       q    Type
REMARK                         _______ _______ _______ _____ _____    ______ ____
ROOT
ATOM      1  N   UNL     1      -0.065  -1.804   6.017  0.00  0.00    -0.284 N 
ATOM      2  C   UNL     1      -0.259  -1.465   7.307  0.00  0.00    +0.238 C 
ATOM      3  O   UNL     1      -0.416  -0.301   7.612  0.00  0.00    -0.273 OA
ATOM      4  H   UNL     1       0.131  -2.724   5.782  0.00  0.00    +0.155 HD
ENDROOT
BRANCH   1   9
ATOM      5  C   UNL     1      -0.752  -0.173   2.783  0.00  0.00    -0.009 A 
ATOM      6  C   UNL     1      -0.300   1.121   3.046  0.00  0.00    +0.009 A 
ATOM      7  C   UNL     1       0.222   1.432   4.285  0.00  0.00    +0.002 A 
ATOM      8  C   UNL     1       0.300   0.464   5.270  0.00  0.00    +0.023 A 
ATOM      9  C   UNL     1      -0.147  -0.828   5.018  0.00  0.00    +0.034 A 
ATOM     10  C   UNL     1      -0.679  -1.148   3.778  0.00  0.00    +0.032 A 
BRANCH   5  16
ATOM     11  C   UNL     1      -0.071  -2.649   1.096  0.00  0.00    +0.045 C 
ATOM     12  C   UNL     1      -1.050  -1.590   0.658  0.00  0.00    -0.036 A 
ATOM     13  C   UNL     1      -1.704  -1.694  -0.550  0.00  0.00    +0.011 A 
ATOM     14  C   UNL     1      -2.581  -0.724  -0.914  0.00  0.00    +0.046 A 
ATOM     15  S   UNL     1      -2.502   0.392   0.477  0.00  0.00    -0.096 S 
ATOM     16  C   UNL     1      -1.311  -0.508   1.457  0.00  0.00    +0.022 A 
ENDBRANCH   5  16
ENDBRANCH   1   9
BRANCH   2  17
ATOM     17  C   UNL     1      -0.281  -2.532   8.371  0.00  0.00    +0.161 C 
BRANCH  17  18
ATOM     18  N   UNL     1      -0.506  -1.912   9.680  0.00  0.00    -0.288 N 
ATOM     19  C   UNL     1      -0.082  -2.530  10.800  0.00  0.00    +0.298 C 
ATOM     20  O   UNL     1       0.488  -3.602  10.724  0.00  0.00    -0.253 OA
ATOM     21  N   UNL     1      -0.289  -1.960  12.003  0.00  0.00    -0.313 N 
ATOM     22  H   UNL     1      -0.961  -1.058   9.740  0.00  0.00    +0.151 HD
ATOM     23  H   UNL     1      -0.744  -1.105  12.063  0.00  0.00    +0.146 HD
ATOM     24  H   UNL     1       0.016  -2.405  12.809  0.00  0.00    +0.146 HD
ENDBRANCH  17  18
BRANCH  17  25
ATOM     25  C   UNL     1      -1.409  -3.523   8.076  0.00  0.00    +0.034 C 
BRANCH  25  26
ATOM     26  C   UNL     1      -1.353  -4.673   9.083  0.00  0.00    -0.015 C 
ATOM     27  C   UNL     1      -2.552  -5.599   8.867  0.00  0.00    +0.007 C 
ATOM     28  C   UNL     1      -0.058  -5.463   8.885  0.00  0.00    +0.007 C 
ENDBRANCH  25  26
ENDBRANCH  17  25
ENDBRANCH   2  17
TORSDOF 6
