REMARK  Name = ZINC12456073
REMARK  10 active torsions:
REMARK  status: ('A' for Active; 'I' for Inactive)
REMARK    1  A    between atoms: C_1  and  C_2
REMARK    2  A    between atoms: C_2  and  C_4
REMARK    3  A    between atoms: C_2  and  C_14
REMARK    4  A    between atoms: C_4  and  C_5
REMARK    5  A    between atoms: C_14  and  N_62
REMARK    6  A    between atoms: C_17  and  C_20
REMARK    7  A    between atoms: C_17  and  C_31
REMARK    8  A    between atoms: C_20  and  C_21
REMARK    9  A    between atoms: C_25  and  C_27
REMARK   10  A    between atoms: C_31  and  O_32
REMARK                            x       y       z     vdW  Elec       q    Type
REMARK                         _______ _______ _______ _____ _____    ______ ____
ROOT
ATOM      1  C   UNL     1       0.484  -0.916   1.076  0.00  0.00    -0.078 C 
ATOM      2  C   UNL     1       0.341  -2.440   1.046  0.00  0.00    -0.009 C 
ATOM      3  C   UNL     1       1.254  -3.054   2.111  0.00  0.00    -0.005 C 
ATOM      4  C   UNL     1       0.885  -2.479   3.482  0.00  0.00    -0.009 C 
ATOM      5  C   UNL     1       1.012  -0.955   3.441  0.00  0.00    -0.078 C 
ATOM      6  N   UNL     1       0.091  -0.424   2.413  0.00  0.00    +0.380 N 
ATOM      7  H   UNL     1      -0.861  -0.747   2.621  0.00  0.00    -0.082 HD
ENDROOT
BRANCH   6   8
ATOM      8  C   UNL     1       0.111   1.054   2.433  0.00  0.00    -0.075 C 
BRANCH   8  10
ATOM      9  C   UNL     1      -0.722   3.108   1.281  0.00  0.00    +0.006 C 
ATOM     10  C   UNL     1      -0.757   1.579   1.287  0.00  0.00    -0.026 C 
BRANCH  10  11
ATOM     11  C   UNL     1      -2.198   1.102   1.480  0.00  0.00    +0.036 C 
BRANCH  11  12
ATOM     12  C   UNL     1      -3.026   1.515   0.290  0.00  0.00    -0.043 A 
ATOM     13  C   UNL     1      -3.137   0.671  -0.799  0.00  0.00    +0.007 A 
ATOM     14  C   UNL     1      -3.896   1.046  -1.893  0.00  0.00    +0.050 A 
ATOM     15  C   UNL     1      -4.547   2.268  -1.899  0.00  0.00    +0.166 A 
ATOM     16  C   UNL     1      -4.436   3.118  -0.801  0.00  0.00    +0.166 A 
ATOM     17  C   UNL     1      -3.679   2.734   0.294  0.00  0.00    +0.053 A 
ATOM     18  O   UNL     1      -5.162   4.247  -1.048  0.00  0.00    -0.453 OA
ATOM     19  C   UNL     1      -6.047   3.906  -2.131  0.00  0.00    +0.466 C 
ATOM     20  O   UNL     1      -5.343   2.865  -2.834  0.00  0.00    -0.453 OA
ENDBRANCH  11  12
ENDBRANCH  10  11
ENDBRANCH   8  10
ENDBRANCH   6   8
BRANCH   3  21
ATOM     21  C   UNL     1       2.712  -2.719   1.792  0.00  0.00    +0.044 C 
BRANCH  21  22
ATOM     22  C   UNL     1       3.074  -3.285   0.443  0.00  0.00    -0.046 A 
ATOM     23  C   UNL     1       2.891  -2.526  -0.698  0.00  0.00    +0.003 A 
ATOM     24  C   UNL     1       3.223  -3.045  -1.935  0.00  0.00    +0.001 A 
ATOM     25  C   UNL     1       3.738  -4.325  -2.031  0.00  0.00    +0.012 A 
ATOM     26  C   UNL     1       3.921  -5.084  -0.891  0.00  0.00    +0.055 A 
ATOM     27  C   UNL     1       3.593  -4.563   0.347  0.00  0.00    +0.016 A 
BRANCH  26  28
ATOM     28  C   UNL     1       4.482  -6.479  -0.997  0.00  0.00    +0.417 C 
ATOM     29  F   UNL     1       4.739  -6.778  -2.339  0.00  0.00    -0.166 F 
ATOM     30  F   UNL     1       5.673  -6.558  -0.266  0.00  0.00    -0.166 F 
ATOM     31  F   UNL     1       3.558  -7.394  -0.483  0.00  0.00    -0.166 F 
ENDBRANCH  26  28
ENDBRANCH  21  22
ENDBRANCH   3  21
BRANCH   3  32
ATOM     32  C   UNL     1       1.070  -4.573   2.128  0.00  0.00    +0.163 C 
BRANCH  32  33
ATOM     33  O   UNL     1       1.414  -5.109   0.849  0.00  0.00    -0.394 OA
ATOM     34  H   UNL     1       1.321  -6.069   0.786  0.00  0.00    +0.209 HD
ENDBRANCH  32  33
ENDBRANCH   3  32
TORSDOF 9
