REMARK  Name = ZINC39897960
REMARK  11 active torsions:
REMARK  status: ('A' for Active; 'I' for Inactive)
REMARK    1  A    between atoms: C_1  and  C_2
REMARK    2  A    between atoms: C_2  and  C_3
REMARK    3  A    between atoms: C_3  and  C_4
REMARK    4  A    between atoms: C_4  and  O_5
REMARK    5  A    between atoms: O_5  and  C_6
REMARK    6  A    between atoms: C_9  and  C_12
REMARK    7  A    between atoms: C_15  and  C_26
REMARK    8  A    between atoms: N_22  and  C_23
REMARK    9  A    between atoms: C_23  and  C_24
REMARK   10  A    between atoms: C_24  and  O_25
REMARK   11  A    between atoms: C_31  and  O_32
REMARK                            x       y       z     vdW  Elec       q    Type
REMARK                         _______ _______ _______ _____ _____    ______ ____
ROOT
ATOM      1  C   UNL     1       2.157  -7.660   3.097  0.00  0.00    +0.141 C 
ATOM      2  C   UNL     1       3.341  -8.381   2.512  0.00  0.00    +0.035 A 
ATOM      3  C   UNL     1       4.093  -8.680   1.371  0.00  0.00    +0.102 A 
ATOM      4  N   UNL     1       5.084  -9.465   1.747  0.00  0.00    -0.173 NA
ATOM      5  N   UNL     1       5.031  -9.691   3.011  0.00  0.00    -0.272 N 
ATOM      6  H   UNL     1       5.659 -10.242   3.505  0.00  0.00    +0.189 HD
ATOM      7  C   UNL     1       3.960  -9.041   3.556  0.00  0.00    +0.126 A 
ATOM      8  C   UNL     1       3.215  -8.768   4.789  0.00  0.00    +0.266 C 
ATOM      9  O   UNL     1       3.504  -9.204   5.887  0.00  0.00    -0.268 OA
ATOM     10  N   UNL     1       2.163  -7.966   4.534  0.00  0.00    -0.283 N 
ENDROOT
BRANCH   3  11
ATOM     11  C   UNL     1       3.826  -8.202  -0.008  0.00  0.00    +0.045 A 
ATOM     12  C   UNL     1       2.670  -7.476  -0.285  0.00  0.00    +0.033 A 
ATOM     13  C   UNL     1       2.425  -7.034  -1.570  0.00  0.00    +0.042 A 
ATOM     14  C   UNL     1       3.326  -7.309  -2.585  0.00  0.00    +0.023 A 
ATOM     15  C   UNL     1       4.476  -8.030  -2.320  0.00  0.00    +0.047 A 
ATOM     16  C   UNL     1       4.736  -8.474  -1.034  0.00  0.00    +0.126 A 
ATOM     17 CL   UNL     1       0.984  -6.130  -1.914  0.00  0.00    -0.084 Cl
BRANCH  16  18
ATOM     18  O   UNL     1       5.869  -9.177  -0.771  0.00  0.00    -0.506 OA
ATOM     19  H   UNL     1       5.771 -10.133  -0.874  0.00  0.00    +0.292 HD
ENDBRANCH  16  18
ENDBRANCH   3  11
BRANCH   1  23
ATOM     20  C   UNL     1       2.552  -3.449   2.487  0.00  0.00    +0.121 A 
ATOM     21  C   UNL     1       3.408  -4.109   3.357  0.00  0.00    +0.046 A 
ATOM     22  C   UNL     1       3.278  -5.470   3.553  0.00  0.00    +0.009 A 
ATOM     23  C   UNL     1       2.296  -6.175   2.882  0.00  0.00    -0.022 A 
ATOM     24  C   UNL     1       1.442  -5.521   2.014  0.00  0.00    +0.009 A 
ATOM     25  C   UNL     1       1.564  -4.159   1.819  0.00  0.00    +0.046 A 
BRANCH  20  26
ATOM     26  O   UNL     1       2.677  -2.110   2.293  0.00  0.00    -0.492 OA
BRANCH  26  27
ATOM     27  C   UNL     1       3.717  -1.445   3.014  0.00  0.00    +0.229 C 
BRANCH  27  28
ATOM     28  C   UNL     1       3.702   0.046   2.669  0.00  0.00    +0.041 C 
BRANCH  28  30
ATOM     29  C   UNL     1       4.801   2.249   3.096  0.00  0.00    +0.004 C 
ATOM     30  C   UNL     1       4.815   0.758   3.440  0.00  0.00    -0.000 C 
ENDBRANCH  28  30
ENDBRANCH  27  28
ENDBRANCH  26  27
ENDBRANCH  20  26
ENDBRANCH   1  23
BRANCH  10  31
ATOM     31  C   UNL     1       1.193  -7.481   5.518  0.00  0.00    +0.137 C 
BRANCH  31  32
ATOM     32  C   UNL     1       0.030  -8.470   5.618  0.00  0.00    +0.175 C 
BRANCH  32  33
ATOM     33  O   UNL     1       0.505  -9.713   6.137  0.00  0.00    -0.393 OA
ATOM     34  H   UNL     1      -0.181 -10.389   6.228  0.00  0.00    +0.209 HD
ENDBRANCH  32  33
ENDBRANCH  31  32
ENDBRANCH  10  31
TORSDOF 10
