REMARK  Name = ZINC21262171
REMARK  10 active torsions:
REMARK  status: ('A' for Active; 'I' for Inactive)
REMARK    1  A    between atoms: C_1  and  C_2
REMARK    2  A    between atoms: C_2  and  C_29
REMARK    3  A    between atoms: C_4  and  N_10
REMARK    4  A    between atoms: C_6  and  C_8
REMARK    5  A    between atoms: C_6  and  C_9
REMARK    6  A    between atoms: N_10  and  C_11
REMARK    7  A    between atoms: N_10  and  C_18
REMARK    8  A    between atoms: C_11  and  C_12
REMARK    9  A    between atoms: C_18  and  N_20
REMARK   10  A    between atoms: N_20  and  C_21
REMARK                            x       y       z     vdW  Elec       q    Type
REMARK                         _______ _______ _______ _____ _____    ______ ____
ROOT
ATOM      1  N   UNL     1       0.374   5.049  -1.217  0.00  0.00    -0.305 N 
ENDROOT
BRANCH   1   5
ATOM      2  C   UNL     1      -0.972   0.986  -2.262  0.00  0.00    -0.010 C 
ATOM      3  C   UNL     1      -1.057   1.554  -0.840  0.00  0.00    -0.072 C 
ATOM      4  C   UNL     1      -1.035   3.079  -0.897  0.00  0.00    +0.009 C 
ATOM      5  C   UNL     1       0.378   3.581  -1.190  0.00  0.00    +0.073 C 
ATOM      6  C   UNL     1       1.305   3.101  -0.073  0.00  0.00    +0.009 C 
ATOM      7  C   UNL     1       1.313   1.576  -0.009  0.00  0.00    -0.072 C 
ATOM      8  N   UNL     1      -0.017   1.004   0.005  0.00  0.00    +0.386 N 
ATOM      9  C   UNL     1       2.027   1.169   1.299  0.00  0.00    -0.010 C 
ATOM     10  C   UNL     1       2.143   1.018  -1.171  0.00  0.00    -0.010 C 
ATOM     11  C   UNL     1      -2.425   1.130  -0.260  0.00  0.00    -0.010 C 
ATOM     12  H   UNL     1      -0.324   1.079   1.059  0.00  0.00    -0.084 HD
ATOM     13  H   UNL     1       0.147  -0.051  -0.255  0.00  0.00    -0.084 HD
ENDBRANCH   1   5
BRANCH   1  14
ATOM     14  C   UNL     1      -0.126   5.741  -0.174  0.00  0.00    +0.134 C 
ATOM     15  S   UNL     1      -0.250   7.447  -0.259  0.00  0.00    -0.019 S 
BRANCH  14  16
ATOM     16  N   UNL     1      -0.530   5.090   0.935  0.00  0.00    -0.324 N 
ATOM     17  H   UNL     1      -0.373   4.005   1.024  0.00  0.00    +0.148 HD
BRANCH  16  18
ATOM     18  C   UNL     1      -1.176   5.829   2.023  0.00  0.00    +0.072 C 
ATOM     19  C   UNL     1      -0.107   6.426   2.940  0.00  0.00    +0.022 C 
ATOM     20  C   UNL     1      -0.738   7.504   3.823  0.00  0.00    +0.002 C 
ATOM     21  C   UNL     1      -1.659   8.384   2.976  0.00  0.00    +0.000 C 
ATOM     22  C   UNL     1      -3.110   8.171   3.413  0.00  0.00    +0.000 C 
ATOM     23  C   UNL     1      -3.616   6.835   2.864  0.00  0.00    +0.000 C 
ATOM     24  C   UNL     1      -3.030   5.690   3.692  0.00  0.00    +0.002 C 
ATOM     25  C   UNL     1      -2.064   4.877   2.827  0.00  0.00    +0.022 C 
ENDBRANCH  16  18
ENDBRANCH  14  16
ENDBRANCH   1  14
BRANCH   1  26
ATOM     26  C   UNL     1       0.914   5.762  -2.378  0.00  0.00    +0.142 C 
BRANCH  26  27
ATOM     27  C   UNL     1      -0.186   5.992  -3.382  0.00  0.00    -0.027 A 
ATOM     28  C   UNL     1      -0.443   5.062  -4.378  0.00  0.00    +0.025 A 
ATOM     29  C   UNL     1      -1.463   5.304  -5.279  0.00  0.00    +0.111 A 
ATOM     30  N   UNL     1      -2.180   6.408  -5.205  0.00  0.00    -0.263 NA
ATOM     31  C   UNL     1      -1.961   7.316  -4.274  0.00  0.00    +0.111 A 
ATOM     32  C   UNL     1      -0.961   7.140  -3.336  0.00  0.00    +0.025 A 
ENDBRANCH  26  27
ENDBRANCH   1  26
TORSDOF 6
