REMARK  Name = ZINC20594213
REMARK  5 active torsions:
REMARK  status: ('A' for Active; 'I' for Inactive)
REMARK    1  A    between atoms: C_1  and  C_2
REMARK    2  A    between atoms: C_5  and  O_21
REMARK    3  A    between atoms: C_6  and  C_8
REMARK    4  A    between atoms: C_17  and  C_19
REMARK    5  A    between atoms: O_21  and  C_22
REMARK                            x       y       z     vdW  Elec       q    Type
REMARK                         _______ _______ _______ _____ _____    ______ ____
ROOT
ATOM      1  C   UNL     1       0.053  -2.842   2.466  0.00  0.00    +0.007 A 
ATOM      2  C   UNL     1      -1.003  -2.785   3.314  0.00  0.00    +0.056 A 
ATOM      3  S   UNL     1      -0.502  -3.831   4.667  0.00  0.00    -0.076 S 
ATOM      4  C   UNL     1       1.097  -4.316   4.071  0.00  0.00    +0.116 A 
ATOM      5  C   UNL     1       1.203  -3.660   2.833  0.00  0.00    +0.080 A 
ATOM      6  C   UNL     1       2.421  -3.884   2.115  0.00  0.00    +0.260 A 
ATOM      7  O   UNL     1       2.608  -3.354   1.033  0.00  0.00    -0.267 OA
ATOM      8  N   UNL     1       3.356  -4.688   2.653  0.00  0.00    -0.309 N 
ATOM      9  H   UNL     1       4.184  -4.844   2.171  0.00  0.00    +0.170 HD
ATOM     10  C   UNL     1       3.165  -5.286   3.857  0.00  0.00    +0.126 A 
ATOM     11  N   UNL     1       2.069  -5.093   4.540  0.00  0.00    -0.225 NA
ENDROOT
BRANCH   1  17
ATOM     12  C   UNL     1      -0.018   1.503   0.010  0.00  0.00    +0.044 C 
ATOM     13  C   UNL     1       0.002  -0.004   0.002  0.00  0.00    -0.050 A 
ATOM     14  C   UNL     1       0.006  -0.687  -1.202  0.00  0.00    +0.007 A 
ATOM     15  C   UNL     1       0.024  -2.069  -1.219  0.00  0.00    +0.046 A 
ATOM     16  C   UNL     1       0.040  -2.778  -0.030  0.00  0.00    +0.128 A 
ATOM     17  C   UNL     1       0.037  -2.091   1.188  0.00  0.00    +0.025 A 
ATOM     18  C   UNL     1       0.023  -0.698   1.195  0.00  0.00    +0.015 A 
BRANCH  16  19
ATOM     19  O   UNL     1       0.058  -4.137  -0.046  0.00  0.00    -0.495 OA
ATOM     20  C   UNL     1       0.060  -4.770  -1.327  0.00  0.00    +0.277 C 
ENDBRANCH  16  19
ENDBRANCH   1  17
BRANCH  10  21
ATOM     21  C   UNL     1       4.241  -6.178   4.420  0.00  0.00    +0.182 C 
ATOM     22 CL   UNL     1       3.711  -6.826   6.017  0.00  0.00    -0.117 Cl
ENDBRANCH  10  21
TORSDOF 3
