REMARK  Name = ZINC13630278
REMARK  10 active torsions:
REMARK  status: ('A' for Active; 'I' for Inactive)
REMARK    1  A    between atoms: C_1  and  C_2
REMARK    2  A    between atoms: C_2  and  O_3
REMARK    3  A    between atoms: O_3  and  C_4
REMARK    4  A    between atoms: C_9  and  C_10
REMARK    5  A    between atoms: N_12  and  C_13
REMARK    6  A    between atoms: C_13  and  N_15
REMARK    7  A    between atoms: N_15  and  N_16
REMARK    8  A    between atoms: C_17  and  C_19
REMARK    9  A    between atoms: N_24  and  C_26
REMARK   10  A    between atoms: C_26  and  C_27
REMARK                            x       y       z     vdW  Elec       q    Type
REMARK                         _______ _______ _______ _____ _____    ______ ____
ROOT
ATOM      1  N   UNL     1      -4.774  -0.148   0.049  0.00  0.00    -0.246 N 
ATOM      2  H   UNL     1      -5.606  -0.648   0.054  0.00  0.00    +0.172 HD
ENDROOT
BRANCH   1   3
ATOM      3  N   UNL     1      -4.798   1.252   0.056  0.00  0.00    -0.235 N 
ATOM      4  C   UNL     1      -5.976   1.906   0.072  0.00  0.00    +0.234 C 
ATOM      5  O   UNL     1      -7.016   1.282   0.079  0.00  0.00    -0.274 OA
ATOM      6  H   UNL     1      -3.966   1.752   0.051  0.00  0.00    +0.173 HD
BRANCH   4   7
ATOM      7  C   UNL     1      -6.002   3.413   0.080  0.00  0.00    +0.102 C 
ATOM      8  C   UNL     1      -5.309   3.971   1.345  0.00  0.00    +0.110 C 
ATOM      9  C   UNL     1      -6.137   5.181   1.718  0.00  0.00    +0.217 C 
ATOM     10  O   UNL     1      -5.782   6.059   2.475  0.00  0.00    -0.276 OA
ATOM     11  N   UNL     1      -7.324   5.141   1.089  0.00  0.00    -0.293 N 
ATOM     12  C   UNL     1      -7.444   3.941   0.252  0.00  0.00    +0.121 C 
BRANCH  11  13
ATOM     13  C   UNL     1      -8.365   6.163   1.220  0.00  0.00    +0.182 C 
BRANCH  13  14
ATOM     14  C   UNL     1      -8.163   7.224   0.169  0.00  0.00    +0.122 A 
ATOM     15  C   UNL     1      -8.695   7.217  -1.067  0.00  0.00    +0.046 A 
ATOM     16  C   UNL     1      -8.248   8.393  -1.712  0.00  0.00    +0.041 A 
ATOM     17  C   UNL     1      -7.469   9.048  -0.832  0.00  0.00    +0.195 A 
ATOM     18  O   UNL     1      -7.426   8.338   0.307  0.00  0.00    -0.466 OA
ENDBRANCH  13  14
ENDBRANCH  11  13
ENDBRANCH   4   7
ENDBRANCH   1   3
BRANCH   1  19
ATOM     19  C   UNL     1      -3.596  -0.802   0.034  0.00  0.00    +0.153 C 
ATOM     20  S   UNL     1      -3.567  -2.514   0.024  0.00  0.00    -0.017 S 
BRANCH  19  23
ATOM     21  C   UNL     1      -1.262  -0.763   0.011  0.00  0.00    +0.253 C 
ATOM     22  O   UNL     1      -1.242  -1.978   0.004  0.00  0.00    -0.270 OA
ATOM     23  N   UNL     1      -2.441  -0.109   0.026  0.00  0.00    -0.263 N 
ATOM     24  H   UNL     1      -2.457   0.861   0.031  0.00  0.00    +0.157 HD
BRANCH  21  30
ATOM     25  C   UNL     1       1.230  -0.680  -0.013  0.00  0.00    +0.133 A 
ATOM     26  C   UNL     1       2.413   0.043  -0.021  0.00  0.00    +0.047 A 
ATOM     27  C   UNL     1       2.381   1.424  -0.013  0.00  0.00    +0.019 A 
ATOM     28  C   UNL     1       1.169   2.096   0.002  0.00  0.00    +0.019 A 
ATOM     29  C   UNL     1      -0.017   1.393   0.010  0.00  0.00    +0.032 A 
ATOM     30  C   UNL     1       0.002  -0.004   0.002  0.00  0.00    +0.080 A 
ATOM     31 BR   UNL     1       1.142   3.987   0.012  0.00  0.00    -0.050 Br
BRANCH  25  32
ATOM     32  O   UNL     1       1.261  -2.036  -0.021  0.00  0.00    -0.491 OA
BRANCH  32  34
ATOM     33  C   UNL     1       2.382  -4.177  -0.042  0.00  0.00    +0.048 C 
ATOM     34  C   UNL     1       2.548  -2.656  -0.036  0.00  0.00    +0.226 C 
ENDBRANCH  32  34
ENDBRANCH  25  32
ENDBRANCH  21  30
ENDBRANCH  19  23
ENDBRANCH   1  19
TORSDOF 9
