REMARK  Name = ZINC09816244
REMARK  9 active torsions:
REMARK  status: ('A' for Active; 'I' for Inactive)
REMARK    1  A    between atoms: C_1  and  C_2
REMARK    2  A    between atoms: C_2  and  C_3
REMARK    3  A    between atoms: C_3  and  C_29
REMARK    4  A    between atoms: N_6  and  C_10
REMARK    5  A    between atoms: C_10  and  C_11
REMARK    6  A    between atoms: C_16  and  C_19
REMARK    7  A    between atoms: C_22  and  C_24
REMARK    8  A    between atoms: C_24  and  N_25
REMARK    9  A    between atoms: C_26  and  C_28
REMARK                            x       y       z     vdW  Elec       q    Type
REMARK                         _______ _______ _______ _____ _____    ______ ____
ROOT
ATOM      1  C   UNL     1       2.908   1.264  -1.439  0.00  0.00    +0.237 C 
ATOM      2  O   UNL     1       2.165   1.554  -2.353  0.00  0.00    -0.274 OA
ATOM      3  N   UNL     1       4.140   0.784  -1.699  0.00  0.00    -0.263 N 
ATOM      4  C   UNL     1       4.560   0.623  -3.013  0.00  0.00    +0.165 A 
ATOM      5  N   UNL     1       5.715   0.180  -3.472  0.00  0.00    -0.224 NA
ATOM      6  C   UNL     1       5.948   0.086  -4.779  0.00  0.00    +0.087 A 
ATOM      7  C   UNL     1       4.973   0.467  -5.660  0.00  0.00    +0.077 A 
ATOM      8  S   UNL     1       3.681   0.969  -4.530  0.00  0.00    -0.060 S 
ATOM      9  H   UNL     1       4.734   0.552  -0.968  0.00  0.00    +0.157 HD
ENDROOT
BRANCH   6  10
ATOM     10  C   UNL     1       7.246  -0.420  -5.273  0.00  0.00    +0.038 A 
ATOM     11  C   UNL     1       8.336  -0.841  -4.560  0.00  0.00    +0.018 A 
ATOM     12  C   UNL     1       9.449  -1.280  -5.247  0.00  0.00    +0.013 A 
ATOM     13  C   UNL     1       9.434  -1.271  -6.604  0.00  0.00    +0.007 A 
ATOM     14  S   UNL     1       7.803  -0.634  -6.956  0.00  0.00    -0.090 S 
BRANCH  13  15
ATOM     15  C   UNL     1      10.515  -1.691  -7.566  0.00  0.00    +0.146 C 
BRANCH  15  16
ATOM     16  N   UNL     1      10.364  -3.113  -7.880  0.00  0.00    -0.311 N 
ATOM     17  C   UNL     1      11.225  -3.712  -8.727  0.00  0.00    +0.210 C 
ATOM     18  O   UNL     1      12.126  -3.072  -9.228  0.00  0.00    -0.276 OA
ATOM     19  C   UNL     1      11.070  -5.175  -9.050  0.00  0.00    +0.109 C 
ATOM     20  H   UNL     1       9.644  -3.625  -7.479  0.00  0.00    +0.149 HD
ENDBRANCH  15  16
ENDBRANCH  13  15
ENDBRANCH   6  10
BRANCH   1  21
ATOM     21  C   UNL     1       2.453   1.438  -0.013  0.00  0.00    +0.214 C 
BRANCH  21  25
ATOM     22  C   UNL     1      -0.727   3.357   0.027  0.00  0.00    +0.138 C 
ATOM     23  C   UNL     1       0.787   3.284   0.012  0.00  0.00    +0.251 C 
ATOM     24  O   UNL     1       1.565   4.213   0.010  0.00  0.00    -0.272 OA
ATOM     25  N   UNL     1       1.087   1.970   0.002  0.00  0.00    -0.215 N 
ATOM     26  C   UNL     1      -0.014   1.211   0.009  0.00  0.00    +0.310 C 
ATOM     27  O   UNL     1       0.002  -0.004   0.002  0.00  0.00    -0.252 OA
ATOM     28  N   UNL     1      -1.143   1.944   0.018  0.00  0.00    -0.281 N 
ATOM     29  H   UNL     1      -2.052   1.607   0.019  0.00  0.00    +0.152 HD
BRANCH  22  30
ATOM     30  C   UNL     1      -1.236   4.066  -1.202  0.00  0.00    -0.015 A 
ATOM     31  C   UNL     1      -1.432   5.434  -1.179  0.00  0.00    +0.006 A 
ATOM     32  C   UNL     1      -1.894   6.084  -2.308  0.00  0.00    +0.000 A 
ATOM     33  C   UNL     1      -2.169   5.365  -3.457  0.00  0.00    +0.000 A 
ATOM     34  C   UNL     1      -1.979   3.997  -3.477  0.00  0.00    +0.000 A 
ATOM     35  C   UNL     1      -1.512   3.347  -2.350  0.00  0.00    +0.006 A 
ENDBRANCH  22  30
BRANCH  22  37
ATOM     36  C   UNL     1      -0.735   3.291   2.525  0.00  0.00    +0.007 C 
ATOM     37  C   UNL     1      -1.220   4.059   1.294  0.00  0.00    +0.037 C 
ENDBRANCH  22  37
ENDBRANCH  21  25
ENDBRANCH   1  21
TORSDOF 7
