REMARK  Name = ZINC13960923
REMARK  9 active torsions:
REMARK  status: ('A' for Active; 'I' for Inactive)
REMARK    1  A    between atoms: C_1  and  C_2
REMARK    2  A    between atoms: C_4  and  C_15
REMARK    3  A    between atoms: C_6  and  C_12
REMARK    4  A    between atoms: N_9  and  C_11
REMARK    5  A    between atoms: N_17  and  N_18
REMARK    6  A    between atoms: C_19  and  C_20
REMARK    7  A    between atoms: C_19  and  C_21
REMARK    8  A    between atoms: C_24  and  O_27
REMARK    9  A    between atoms: O_27  and  C_28
REMARK                            x       y       z     vdW  Elec       q    Type
REMARK                         _______ _______ _______ _____ _____    ______ ____
ROOT
ATOM      1  C   UNL     1       2.387   0.943   0.518  0.00  0.00    +0.264 C 
ATOM      2  O   UNL     1       3.426   1.535   0.297  0.00  0.00    -0.268 OA
ATOM      3  N   UNL     1       2.412  -0.368   0.832  0.00  0.00    -0.203 N 
ATOM      4  H   UNL     1       1.583  -0.840   1.009  0.00  0.00    +0.178 HD
ENDROOT
BRANCH   1   8
ATOM      5  C   UNL     1       3.524   3.838   0.119  0.00  0.00    +0.068 C 
ATOM      6  C   UNL     1       2.034   4.061   0.112  0.00  0.00    +0.070 A 
ATOM      7  C   UNL     1       1.050   3.060   0.259  0.00  0.00    +0.054 A 
ATOM      8  C   UNL     1       1.097   1.660   0.443  0.00  0.00    +0.052 A 
ATOM      9  C   UNL     1      -0.113   0.978   0.551  0.00  0.00    +0.037 A 
ATOM     10  C   UNL     1      -1.302   1.686   0.470  0.00  0.00    +0.047 A 
ATOM     11  N   UNL     1      -1.319   2.990   0.304  0.00  0.00    -0.232 NA
ATOM     12  C   UNL     1      -0.204   3.699   0.194  0.00  0.00    +0.159 A 
ATOM     13  N   UNL     1       0.051   5.033   0.014  0.00  0.00    -0.249 N 
ATOM     14  N   UNL     1       1.438   5.211  -0.030  0.00  0.00    -0.174 NA
ATOM     15  C   UNL     1      -0.956   6.091  -0.110  0.00  0.00    +0.174 C 
BRANCH  10  16
ATOM     16  C   UNL     1      -2.609   0.943   0.581  0.00  0.00    +0.038 C 
ATOM     17  C   UNL     1      -2.576  -0.576   0.397  0.00  0.00    +0.010 C 
ATOM     18  C   UNL     1      -3.175   0.315  -0.694  0.00  0.00    +0.010 C 
ENDBRANCH  10  16
ENDBRANCH   1   8
BRANCH   3  19
ATOM     19  N   UNL     1       3.635  -1.048   0.904  0.00  0.00    -0.184 NA
ATOM     20  C   UNL     1       3.659  -2.310   1.206  0.00  0.00    +0.063 C 
ATOM     21  C   UNL     1       2.371  -3.044   1.481  0.00  0.00    +0.068 C 
BRANCH  20  22
ATOM     22  C   UNL     1       4.945  -3.026   1.281  0.00  0.00    -0.002 A 
ATOM     23  C   UNL     1       4.974  -4.383   1.613  0.00  0.00    +0.013 A 
ATOM     24  C   UNL     1       6.179  -5.049   1.676  0.00  0.00    +0.046 A 
ATOM     25  C   UNL     1       7.364  -4.371   1.422  0.00  0.00    +0.127 A 
ATOM     26  C   UNL     1       7.341  -3.020   1.099  0.00  0.00    +0.046 A 
ATOM     27  C   UNL     1       6.140  -2.347   1.027  0.00  0.00    +0.013 A 
BRANCH  25  28
ATOM     28  O   UNL     1       8.550  -5.030   1.491  0.00  0.00    -0.434 OA
BRANCH  28  29
ATOM     29  C   UNL     1       8.501  -6.418   1.829  0.00  0.00    +0.541 C 
ATOM     30  F   UNL     1       7.913  -6.571   3.088  0.00  0.00    -0.166 F 
ATOM     31  F   UNL     1       7.744  -7.104   0.873  0.00  0.00    -0.166 F 
ENDBRANCH  28  29
ENDBRANCH  25  28
ENDBRANCH  20  22
ENDBRANCH   3  19
TORSDOF 6
