REMARK  Name = ZINC64652816
REMARK  7 active torsions:
REMARK  status: ('A' for Active; 'I' for Inactive)
REMARK    1  A    between atoms: C_4  and  S_7
REMARK    2  A    between atoms: S_7  and  N_10
REMARK    3  A    between atoms: C_15  and  C_17
REMARK    4  A    between atoms: C_17  and  C_18
REMARK    5  A    between atoms: N_20  and  C_21
REMARK    6  A    between atoms: C_21  and  C_22
REMARK    7  A    between atoms: C_22  and  C_23
REMARK                            x       y       z     vdW  Elec       q    Type
REMARK                         _______ _______ _______ _____ _____    ______ ____
ROOT
ATOM      1  C   UNL     1       3.345  -3.386   1.028  0.00  0.00    +0.116 C 
ENDROOT
BRANCH   1   7
ATOM      2  N   UNL     1       4.527  -1.279   1.440  0.00  0.00    -0.173 NA
ATOM      3  C   UNL     1       5.331  -0.347   2.242  0.00  0.00    +0.110 C 
ATOM      4  C   UNL     1       6.486  -1.119   2.887  0.00  0.00    +0.017 C 
ATOM      5  C   UNL     1       5.925  -2.304   3.676  0.00  0.00    +0.003 C 
ATOM      6  C   UNL     1       5.184  -3.247   2.725  0.00  0.00    +0.021 C 
ATOM      7  C   UNL     1       4.009  -2.496   2.080  0.00  0.00    +0.089 C 
BRANCH   2   8
ATOM      8  S   UNL     1       4.206  -0.962  -0.153  0.00  0.00    +0.061 S 
ATOM      9  O   UNL     1       3.360   0.179  -0.177  0.00  0.00    -0.153 OA
ATOM     10  O   UNL     1       3.835  -2.198  -0.747  0.00  0.00    -0.153 OA
BRANCH   8  14
ATOM     11  C   UNL     1       8.107   0.279  -2.085  0.00  0.00    +0.000 A 
ATOM     12  C   UNL     1       7.794  -1.062  -1.959  0.00  0.00    +0.002 A 
ATOM     13  C   UNL     1       6.603  -1.441  -1.369  0.00  0.00    +0.028 A 
ATOM     14  C   UNL     1       5.725  -0.479  -0.904  0.00  0.00    +0.105 A 
ATOM     15  C   UNL     1       6.039   0.861  -1.030  0.00  0.00    +0.028 A 
ATOM     16  C   UNL     1       7.229   1.240  -1.621  0.00  0.00    +0.002 A 
ENDBRANCH   8  14
ENDBRANCH   2   8
ENDBRANCH   1   7
BRANCH   1  17
ATOM     17  C   UNL     1       2.116  -2.698   0.492  0.00  0.00    +0.215 C 
ATOM     18  O   UNL     1       1.743  -1.653   0.982  0.00  0.00    -0.276 OA
ATOM     19  N   UNL     1       1.431  -3.244  -0.533  0.00  0.00    -0.315 N 
ATOM     20  H   UNL     1       1.687  -4.113  -0.879  0.00  0.00    +0.149 HD
BRANCH  19  21
ATOM     21  C   UNL     1       0.301  -2.523  -1.124  0.00  0.00    +0.108 C 
BRANCH  21  22
ATOM     22  C   UNL     1      -0.371  -3.406  -2.178  0.00  0.00    +0.052 C 
BRANCH  22  23
ATOM     23  C   UNL     1      -1.534  -2.665  -2.786  0.00  0.00    -0.040 C 
ATOM     24  C   UNL     1      -1.529  -1.940  -3.928  0.00  0.00    -0.001 A 
ATOM     25  C   UNL     1      -0.478  -1.633  -4.906  0.00  0.00    +0.010 A 
ATOM     26  C   UNL     1      -0.782  -0.860  -5.974  0.00  0.00    +0.001 A 
ATOM     27  C   UNL     1      -2.071  -0.345  -6.168  0.00  0.00    +0.002 A 
ATOM     28  C   UNL     1      -3.088  -0.583  -5.313  0.00  0.00    +0.026 A 
ATOM     29  C   UNL     1      -2.882  -1.384  -4.156  0.00  0.00    +0.043 A 
ATOM     30  N   UNL     1      -3.692  -1.752  -3.194  0.00  0.00    -0.380 N 
ATOM     31  C   UNL     1      -2.945  -2.588  -2.248  0.00  0.00    +0.144 C 
ATOM     32  H   UNL     1      -4.630  -1.514  -3.121  0.00  0.00    +0.160 HD
ENDBRANCH  22  23
ENDBRANCH  21  22
ENDBRANCH  19  21
ENDBRANCH   1  17
TORSDOF 7
