REMARK  Name = ZINC39665679
REMARK  10 active torsions:
REMARK  status: ('A' for Active; 'I' for Inactive)
REMARK    1  A    between atoms: C_1  and  C_2
REMARK    2  A    between atoms: C_2  and  C_4
REMARK    3  A    between atoms: C_2  and  O_28
REMARK    4  A    between atoms: C_4  and  N_5
REMARK    5  A    between atoms: C_6  and  C_8
REMARK    6  A    between atoms: C_19  and  C_21
REMARK    7  A    between atoms: C_21  and  C_27
REMARK    8  A    between atoms: O_28  and  C_29
REMARK    9  A    between atoms: C_32  and  O_35
REMARK   10  A    between atoms: O_35  and  C_36
REMARK                            x       y       z     vdW  Elec       q    Type
REMARK                         _______ _______ _______ _____ _____    ______ ____
ROOT
ATOM      1  C   UNL     1       1.941  -4.667   1.451  0.00  0.00    +0.100 C 
ATOM      2  C   UNL     1       2.858  -4.936   0.236  0.00  0.00    +0.121 C 
ATOM      3  N   UNL     1       4.156  -5.337   0.828  0.00  0.00    -0.300 N 
ATOM      4  C   UNL     1       3.787  -6.184   1.987  0.00  0.00    +0.115 C 
ATOM      5  C   UNL     1       2.553  -5.490   2.597  0.00  0.00    -0.004 C 
ATOM      6  C   UNL     1       2.976  -4.572   3.740  0.00  0.00    -0.010 C 
ATOM      7  C   UNL     1       3.529  -5.418   4.890  0.00  0.00    -0.082 C 
ATOM      8  N   UNL     1       2.498  -6.359   5.347  0.00  0.00    +0.379 N 
ATOM      9  C   UNL     1       2.163  -7.298   4.270  0.00  0.00    -0.082 C 
ATOM     10  C   UNL     1       1.554  -6.531   3.093  0.00  0.00    -0.010 C 
ATOM     11  C   UNL     1       5.393  -5.005   0.407  0.00  0.00    +0.222 C 
ATOM     12  O   UNL     1       5.532  -4.235  -0.519  0.00  0.00    -0.275 OA
ATOM     13  H   UNL     1       2.843  -6.873   6.144  0.00  0.00    -0.086 HD
ATOM     14  H   UNL     1       1.671  -5.846   5.614  0.00  0.00    -0.086 HD
ENDROOT
BRANCH  11  15
ATOM     15  C   UNL     1       6.603  -5.590   1.089  0.00  0.00    +0.044 C 
ATOM     16  C   UNL     1       6.703  -5.040   2.513  0.00  0.00    +0.016 C 
ATOM     17  C   UNL     1       6.833  -3.516   2.462  0.00  0.00    +0.001 C 
ATOM     18  C   UNL     1       8.092  -3.138   1.680  0.00  0.00    +0.000 C 
ATOM     19  C   UNL     1       7.992  -3.689   0.256  0.00  0.00    +0.001 C 
ATOM     20  C   UNL     1       7.862  -5.212   0.306  0.00  0.00    +0.016 C 
ATOM     21  C   UNL     1       6.472  -7.114   1.139  0.00  0.00    +0.021 C 
ENDBRANCH  11  15
BRANCH   1  23
ATOM     22  N   UNL     1       0.936  -2.675   2.518  0.00  0.00    -0.312 N 
ATOM     23  C   UNL     1       1.947  -3.200   1.798  0.00  0.00    +0.218 C 
ATOM     24  O   UNL     1       2.860  -2.494   1.428  0.00  0.00    -0.275 OA
ATOM     25  H   UNL     1       0.206  -3.240   2.813  0.00  0.00    +0.149 HD
BRANCH  22  26
ATOM     26  C   UNL     1       0.942  -1.249   2.855  0.00  0.00    +0.148 C 
BRANCH  26  28
ATOM     27  C   UNL     1      -0.303   0.576   4.022  0.00  0.00    +0.053 C 
ATOM     28  C   UNL     1      -0.308  -0.913   3.671  0.00  0.00    +0.187 C 
BRANCH  28  29
ATOM     29  O   UNL     1      -1.474  -1.217   2.903  0.00  0.00    -0.488 OA
BRANCH  29  30
ATOM     30  C   UNL     1      -2.564  -1.661   3.584  0.00  0.00    +0.121 A 
ATOM     31  C   UNL     1      -2.556  -1.674   4.971  0.00  0.00    +0.049 A 
ATOM     32  C   UNL     1      -3.663  -2.125   5.664  0.00  0.00    +0.049 A 
ATOM     33  C   UNL     1      -4.783  -2.563   4.972  0.00  0.00    +0.120 A 
ATOM     34  C   UNL     1      -4.791  -2.549   3.585  0.00  0.00    +0.049 A 
ATOM     35  C   UNL     1      -3.686  -2.094   2.893  0.00  0.00    +0.049 A 
BRANCH  33  36
ATOM     36  O   UNL     1      -5.872  -3.008   5.654  0.00  0.00    -0.495 OA
ATOM     37  C   UNL     1      -6.990  -3.445   4.877  0.00  0.00    +0.277 C 
ENDBRANCH  33  36
ENDBRANCH  29  30
ENDBRANCH  28  29
ENDBRANCH  26  28
ENDBRANCH  22  26
ENDBRANCH   1  23
TORSDOF 7
