REMARK  Name = ZINC32778845
REMARK  7 active torsions:
REMARK  status: ('A' for Active; 'I' for Inactive)
REMARK    1  A    between atoms: C_1  and  C_2
REMARK    2  A    between atoms: C_2  and  C_4
REMARK    3  A    between atoms: C_2  and  S_15
REMARK    4  A    between atoms: N_6  and  C_7
REMARK    5  A    between atoms: S_15  and  C_16
REMARK    6  A    between atoms: C_16  and  C_17
REMARK    7  A    between atoms: C_20  and  C_22
REMARK                            x       y       z     vdW  Elec       q    Type
REMARK                         _______ _______ _______ _____ _____    ______ ____
ROOT
ATOM      1  C   UNL     1      -2.918  -5.810   1.128  0.00  0.00    +0.029 C 
ATOM      2  C   UNL     1      -1.941  -6.987   1.156  0.00  0.00    +0.130 C 
ENDROOT
BRANCH   2   3
ATOM      3  C   UNL     1      -1.841  -7.524   2.560  0.00  0.00    +0.230 C 
ATOM      4  O   UNL     1      -0.952  -7.144   3.293  0.00  0.00    -0.274 OA
ATOM      5  N   UNL     1      -2.738  -8.427   3.002  0.00  0.00    -0.280 N 
ATOM      6  H   UNL     1      -3.592  -8.709   2.368  0.00  0.00    +0.155 HD
BRANCH   5   7
ATOM      7  C   UNL     1      -2.585  -9.006   4.269  0.00  0.00    +0.105 A 
ATOM      8  C   UNL     1      -1.843 -10.172   4.417  0.00  0.00    +0.147 A 
ATOM      9  C   UNL     1      -1.689 -10.737   5.670  0.00  0.00    +0.040 A 
ATOM     10  C   UNL     1      -2.281 -10.150   6.773  0.00  0.00    +0.006 A 
ATOM     11  C   UNL     1      -3.024  -8.993   6.629  0.00  0.00    +0.040 A 
ATOM     12  C   UNL     1      -3.179  -8.419   5.380  0.00  0.00    +0.147 A 
ATOM     13  F   UNL     1      -3.906  -7.289   5.240  0.00  0.00    -0.203 F 
ATOM     14  F   UNL     1      -1.268 -10.749   3.339  0.00  0.00    -0.203 F 
ENDBRANCH   5   7
ENDBRANCH   2   3
BRANCH   2  15
ATOM     15  S   UNL     1      -0.306  -6.427   0.604  0.00  0.00    -0.142 S 
BRANCH  15  16
ATOM     16  C   UNL     1      -0.563  -5.960  -1.129  0.00  0.00    +0.125 C 
BRANCH  16  17
ATOM     17  C   UNL     1       0.736  -5.470  -1.716  0.00  0.00    +0.059 A 
ATOM     18  C   UNL     1       1.060  -4.152  -1.647  0.00  0.00    +0.071 A 
ATOM     19  S   UNL     1       2.650  -4.160  -2.466  0.00  0.00    -0.075 S 
ATOM     20  C   UNL     1       2.704  -5.912  -2.820  0.00  0.00    +0.109 A 
ATOM     21  N   UNL     1       1.555  -6.316  -2.296  0.00  0.00    -0.243 NA
BRANCH  20  22
ATOM     22  C   UNL     1       3.750  -6.698  -3.507  0.00  0.00    +0.007 A 
ATOM     23  C   UNL     1       4.897  -6.068  -3.990  0.00  0.00    +0.010 A 
ATOM     24  C   UNL     1       5.870  -6.808  -4.629  0.00  0.00    +0.001 A 
ATOM     25  C   UNL     1       5.710  -8.172  -4.793  0.00  0.00    +0.000 A 
ATOM     26  C   UNL     1       4.575  -8.804  -4.316  0.00  0.00    +0.001 A 
ATOM     27  C   UNL     1       3.595  -8.075  -3.675  0.00  0.00    +0.010 A 
ENDBRANCH  20  22
ENDBRANCH  16  17
ENDBRANCH  15  16
ENDBRANCH   2  15
TORSDOF 6
