REMARK  Name = ZINC53479794
REMARK  13 active torsions:
REMARK  status: ('A' for Active; 'I' for Inactive)
REMARK    1  A    between atoms: C_1  and  C_2
REMARK    2  A    between atoms: C_2  and  C_3
REMARK    3  A    between atoms: C_3  and  C_4
REMARK    4  A    between atoms: C_4  and  N_5
REMARK    5  A    between atoms: C_6  and  C_8
REMARK    6  A    between atoms: C_14  and  C_16
REMARK    7  A    between atoms: C_16  and  C_18
REMARK    8  A    between atoms: C_16  and  N_19
REMARK    9  A    between atoms: C_20  and  O_22
REMARK   10  A    between atoms: O_22  and  C_23
REMARK   11  A    between atoms: C_23  and  C_24
REMARK   12  A    between atoms: C_23  and  C_25
REMARK   13  A    between atoms: C_23  and  C_26
REMARK                            x       y       z     vdW  Elec       q    Type
REMARK                         _______ _______ _______ _____ _____    ______ ____
ROOT
ATOM      1  C   UNL     1       0.878  -4.907  -3.635  0.00  0.00    +0.078 C 
ATOM      2  C   UNL     1       0.642  -4.182  -4.962  0.00  0.00    +0.032 C 
ATOM      3  C   UNL     1       1.810  -4.468  -5.911  0.00  0.00    +0.108 C 
ATOM      4  N   UNL     1       1.969  -5.923  -6.039  0.00  0.00    -0.300 N 
ATOM      5  C   UNL     1       2.113  -6.728  -4.818  0.00  0.00    +0.108 C 
ATOM      6  C   UNL     1       0.942  -6.416  -3.881  0.00  0.00    +0.032 C 
ATOM      7  C   UNL     1       1.983  -6.508  -7.253  0.00  0.00    +0.236 C 
ATOM      8  O   UNL     1       1.768  -5.848  -8.247  0.00  0.00    -0.274 OA
ENDROOT
BRANCH   1  10
ATOM      9  N   UNL     1      -0.499  -3.326  -2.323  0.00  0.00    -0.315 N 
ATOM     10  C   UNL     1      -0.252  -4.600  -2.687  0.00  0.00    +0.216 C 
ATOM     11  O   UNL     1      -0.939  -5.500  -2.251  0.00  0.00    -0.276 OA
ATOM     12  H   UNL     1       0.050  -2.607  -2.672  0.00  0.00    +0.149 HD
BRANCH   9  13
ATOM     13  C   UNL     1      -1.598  -3.028  -1.401  0.00  0.00    +0.104 C 
BRANCH  13  14
ATOM     14  C   UNL     1      -1.662  -1.519  -1.155  0.00  0.00    +0.018 C 
BRANCH  14  16
ATOM     15  C   UNL     1      -2.873   0.301   0.054  0.00  0.00    +0.004 C 
ATOM     16  C   UNL     1      -2.809  -1.208  -0.192  0.00  0.00    -0.002 C 
ENDBRANCH  14  16
ENDBRANCH  13  14
ENDBRANCH   9  13
ENDBRANCH   1  10
BRANCH   7  17
ATOM     17  C   UNL     1       2.265  -7.983  -7.375  0.00  0.00    +0.159 C 
ATOM     18  C   UNL     1       3.764  -8.233  -7.192  0.00  0.00    +0.038 C 
BRANCH  17  19
ATOM     19  N   UNL     1       1.851  -8.452  -8.700  0.00  0.00    -0.270 N 
ATOM     20  C   UNL     1       1.527  -9.747  -8.886  0.00  0.00    +0.401 C 
ATOM     21  O   UNL     1       1.578 -10.526  -7.954  0.00  0.00    -0.226 OA
ATOM     22  H   UNL     1       1.809  -7.830  -9.443  0.00  0.00    +0.153 HD
BRANCH  20  23
ATOM     23  O   UNL     1       1.145 -10.177 -10.103  0.00  0.00    -0.445 OA
BRANCH  23  24
ATOM     24  C   UNL     1       0.816 -11.562 -10.227  0.00  0.00    +0.107 C 
ATOM     25  C   UNL     1      -0.346 -11.897  -9.291  0.00  0.00    +0.055 C 
ATOM     26  C   UNL     1       0.410 -11.862 -11.672  0.00  0.00    +0.055 C 
ATOM     27  C   UNL     1       2.033 -12.411  -9.854  0.00  0.00    +0.055 C 
ENDBRANCH  23  24
ENDBRANCH  20  23
ENDBRANCH  17  19
ENDBRANCH   7  17
TORSDOF 8
