REMARK  Name = ZINC37820426
REMARK  10 active torsions:
REMARK  status: ('A' for Active; 'I' for Inactive)
REMARK    1  A    between atoms: C_1  and  C_2
REMARK    2  A    between atoms: C_2  and  C_3
REMARK    3  A    between atoms: C_3  and  C_5
REMARK    4  A    between atoms: C_3  and  C_6
REMARK    5  A    between atoms: C_6  and  C_8
REMARK    6  A    between atoms: C_6  and  N_23
REMARK    7  A    between atoms: C_14  and  C_17
REMARK    8  A    between atoms: C_17  and  N_18
REMARK    9  A    between atoms: N_18  and  S_19
REMARK   10  A    between atoms: S_19  and  N_22
REMARK                            x       y       z     vdW  Elec       q    Type
REMARK                         _______ _______ _______ _____ _____    ______ ____
ROOT
ATOM      1  C   UNL     1       1.336  -2.509  -2.568  0.00  0.00    +0.201 C 
ATOM      2  O   UNL     1       2.462  -2.953  -2.491  0.00  0.00    -0.277 OA
ATOM      3  N   UNL     1       0.715  -2.451  -3.763  0.00  0.00    -0.303 N 
ATOM      4  C   UNL     1      -0.647  -1.911  -3.874  0.00  0.00    +0.108 C 
ATOM      5  C   UNL     1      -0.654  -0.805  -4.935  0.00  0.00    +0.019 C 
ATOM      6  C   UNL     1      -0.088  -1.358  -6.245  0.00  0.00    +0.008 C 
ATOM      7  C   UNL     1       1.358  -1.810  -6.029  0.00  0.00    +0.022 C 
ATOM      8  C   UNL     1       1.390  -2.921  -4.981  0.00  0.00    +0.112 C 
ENDROOT
BRANCH   1   9
ATOM      9  C   UNL     1       0.630  -2.023  -1.329  0.00  0.00    +0.016 C 
BRANCH   9  10
ATOM     10  N   UNL     1       1.269  -2.607  -0.141  0.00  0.00    +0.386 N 
ATOM     11  H   UNL     1       0.797  -2.281   0.689  0.00  0.00    -0.089 HD
ATOM     12  H   UNL     1       1.211  -3.613  -0.189  0.00  0.00    -0.089 HD
ATOM     13  H   UNL     1       2.238  -2.327  -0.109  0.00  0.00    -0.089 HD
ENDBRANCH   9  10
BRANCH   9  14
ATOM     14  C   UNL     1       0.718  -0.497  -1.257  0.00  0.00    -0.020 C 
ATOM     15  C   UNL     1       2.187  -0.073  -1.207  0.00  0.00    +0.006 C 
BRANCH  14  17
ATOM     16  C   UNL     1      -0.019   1.526   0.010  0.00  0.00    +0.004 C 
ATOM     17  C   UNL     1       0.002  -0.004   0.002  0.00  0.00    -0.001 C 
ENDBRANCH  14  17
ENDBRANCH   9  14
ENDBRANCH   1   9
BRANCH   7  18
ATOM     18  C   UNL     1       1.933  -2.331  -7.347  0.00  0.00    +0.112 C 
BRANCH  18  19
ATOM     19  N   UNL     1       2.011  -1.233  -8.314  0.00  0.00    -0.180 NA
ATOM     20  H   UNL     1       1.528  -0.408  -8.150  0.00  0.00    +0.149 HD
BRANCH  19  21
ATOM     21  S   UNL     1       2.925  -1.400  -9.685  0.00  0.00    +0.092 S 
ATOM     22  O   UNL     1       2.778  -0.193 -10.420  0.00  0.00    -0.142 OA
ATOM     23  O   UNL     1       4.192  -1.891  -9.271  0.00  0.00    -0.142 OA
BRANCH  21  24
ATOM     24  N   UNL     1       2.228  -2.596 -10.594  0.00  0.00    -0.193 NA
ATOM     25  H   UNL     1       1.430  -3.046 -10.275  0.00  0.00    +0.145 HD
ATOM     26  H   UNL     1       2.619  -2.848 -11.445  0.00  0.00    +0.145 HD
ENDBRANCH  21  24
ENDBRANCH  19  21
ENDBRANCH  18  19
ENDBRANCH   7  18
TORSDOF 8
