REMARK  Name = ZINC13033893
REMARK  8 active torsions:
REMARK  status: ('A' for Active; 'I' for Inactive)
REMARK    1  A    between atoms: C_3  and  C_7
REMARK    2  A    between atoms: C_7  and  N_62
REMARK    3  A    between atoms: C_8  and  C_9
REMARK    4  A    between atoms: C_8  and  N_62
REMARK    5  A    between atoms: C_25  and  C_26
REMARK    6  A    between atoms: C_25  and  N_62
REMARK    7  A    between atoms: N_30  and  C_31
REMARK    8  A    between atoms: C_31  and  C_32
REMARK                            x       y       z     vdW  Elec       q    Type
REMARK                         _______ _______ _______ _____ _____    ______ ____
ROOT
ATOM      1  N   UNL     1       2.088  -2.583  -1.761  0.00  0.00    +0.390 N 
ATOM      2  H   UNL     1       1.331  -2.506  -2.450  0.00  0.00    -0.080 HD
ENDROOT
BRANCH   1   3
ATOM      3  C   UNL     1       3.305  -1.951  -2.312  0.00  0.00    -0.040 C 
BRANCH   3   6
ATOM      4  C   UNL     1       4.329  -3.938  -5.352  0.00  0.00    +0.020 A 
ATOM      5  C   UNL     1       4.196  -3.557  -4.025  0.00  0.00    +0.005 A 
ATOM      6  C   UNL     1       3.482  -2.404  -3.739  0.00  0.00    -0.046 A 
ATOM      7  C   UNL     1       2.939  -1.672  -4.778  0.00  0.00    +0.112 A 
ATOM      8  N   UNL     1       3.090  -2.062  -6.028  0.00  0.00    -0.263 NA
ATOM      9  C   UNL     1       3.758  -3.156  -6.338  0.00  0.00    +0.111 A 
ENDBRANCH   3   6
ENDBRANCH   1   3
BRANCH   1  10
ATOM     10  C   UNL     1       2.342  -4.013  -1.485  0.00  0.00    -0.036 C 
BRANCH  10  11
ATOM     11  C   UNL     1       1.019  -4.725  -1.372  0.00  0.00    +0.001 A 
ATOM     12  C   UNL     1       0.474  -5.318  -2.465  0.00  0.00    +0.017 A 
ATOM     13  C   UNL     1      -0.808  -6.006  -2.321  0.00  0.00    +0.002 A 
ATOM     14  C   UNL     1      -1.415  -6.639  -3.413  0.00  0.00    +0.059 A 
ATOM     15  C   UNL     1      -2.627  -7.276  -3.248  0.00  0.00    +0.163 A 
ATOM     16  C   UNL     1      -3.250  -7.291  -1.996  0.00  0.00    +0.164 A 
ATOM     17  C   UNL     1      -2.657  -6.668  -0.912  0.00  0.00    +0.075 A 
ATOM     18  C   UNL     1      -1.437  -6.021  -1.061  0.00  0.00    +0.053 A 
ATOM     19  N   UNL     1      -0.833  -5.394   0.010  0.00  0.00    -0.322 N 
ATOM     20  H   UNL     1      -1.267  -5.404   0.877  0.00  0.00    +0.169 HD
ATOM     21  C   UNL     1       0.349  -4.769  -0.132  0.00  0.00    +0.251 A 
ATOM     22  O   UNL     1       0.854  -4.225   0.835  0.00  0.00    -0.268 OA
ATOM     23  O   UNL     1      -4.444  -7.921  -1.825  0.00  0.00    -0.485 OA
ATOM     24  C   UNL     1      -5.193  -8.214  -3.008  0.00  0.00    +0.270 C 
ATOM     25  C   UNL     1      -4.241  -8.833  -4.040  0.00  0.00    +0.270 C 
ATOM     26  O   UNL     1      -3.206  -7.884  -4.321  0.00  0.00    -0.485 OA
ENDBRANCH  10  11
ENDBRANCH   1  10
BRANCH   1  27
ATOM     27  C   UNL     1       1.679  -1.894  -0.519  0.00  0.00    +0.001 C 
BRANCH  27  28
ATOM     28  C   UNL     1       1.284  -0.479  -0.854  0.00  0.00    +0.135 A 
ATOM     29  N   UNL     1       2.084   0.555  -0.948  0.00  0.00    -0.115 NA
ATOM     30  N   UNL     1       1.371   1.584  -1.252  0.00  0.00    -0.023 NA
ATOM     31  N   UNL     1       0.136   1.233  -1.354  0.00  0.00    -0.044 NA
ATOM     32  N   UNL     1       0.042  -0.031  -1.117  0.00  0.00    -0.227 N 
BRANCH  32  33
ATOM     33  C   UNL     1      -1.185  -0.830  -1.130  0.00  0.00    +0.182 C 
BRANCH  33  34
ATOM     34  C   UNL     1      -1.517  -1.218  -2.548  0.00  0.00    -0.026 A 
ATOM     35  C   UNL     1      -2.232  -0.350  -3.352  0.00  0.00    +0.008 A 
ATOM     36  C   UNL     1      -2.533  -0.702  -4.654  0.00  0.00    +0.038 A 
ATOM     37  C   UNL     1      -2.127  -1.930  -5.150  0.00  0.00    +0.123 A 
ATOM     38  C   UNL     1      -1.416  -2.801  -4.341  0.00  0.00    +0.038 A 
ATOM     39  C   UNL     1      -1.112  -2.444  -3.042  0.00  0.00    +0.008 A 
ATOM     40  F   UNL     1      -2.425  -2.278  -6.421  0.00  0.00    -0.205 F 
ENDBRANCH  33  34
ENDBRANCH  32  33
ENDBRANCH  27  28
ENDBRANCH   1  27
TORSDOF 8
