REMARK  Name = ZINC20477726
REMARK  14 active torsions:
REMARK  status: ('A' for Active; 'I' for Inactive)
REMARK    1  A    between atoms: C_1  and  C_2
REMARK    2  A    between atoms: C_2  and  O_3
REMARK    3  A    between atoms: O_3  and  C_4
REMARK    4  A    between atoms: C_5  and  C_13
REMARK    5  A    between atoms: C_9  and  O_10
REMARK    6  A    between atoms: O_10  and  C_11
REMARK    7  A    between atoms: C_13  and  N_14
REMARK    8  A    between atoms: N_14  and  C_15
REMARK    9  A    between atoms: C_15  and  C_16
REMARK   10  A    between atoms: C_16  and  N_17
REMARK   11  A    between atoms: N_17  and  C_18
REMARK   12  A    between atoms: C_18  and  C_19
REMARK   13  A    between atoms: C_19  and  C_21
REMARK   14  A    between atoms: C_19  and  O_22
REMARK                            x       y       z     vdW  Elec       q    Type
REMARK                         _______ _______ _______ _____ _____    ______ ____
ROOT
ATOM      1  C   UNL     1      -0.795   1.527  -1.120  0.00  0.00    -0.043 C 
ENDROOT
BRANCH   1   3
ATOM      2  C   UNL     1      -3.131   1.476  -0.212  0.00  0.00    +0.163 A 
ATOM      3  C   UNL     1      -2.186   0.947  -1.076  0.00  0.00    -0.018 A 
ATOM      4  C   UNL     1      -2.517  -0.117  -1.895  0.00  0.00    +0.020 A 
ATOM      5  C   UNL     1      -3.792  -0.652  -1.857  0.00  0.00    +0.022 A 
ATOM      6  C   UNL     1      -4.741  -0.124  -1.000  0.00  0.00    +0.064 A 
ATOM      7  C   UNL     1      -4.415   0.943  -0.178  0.00  0.00    +0.163 A 
ATOM      8 BR   UNL     1      -4.238  -2.107  -2.978  0.00  0.00    -0.050 Br
BRANCH   7   9
ATOM      9  O   UNL     1      -5.347   1.463   0.665  0.00  0.00    -0.491 OA
ATOM     10  C   UNL     1      -6.643   0.860   0.651  0.00  0.00    +0.277 C 
ENDBRANCH   7   9
BRANCH   2  11
ATOM     11  O   UNL     1      -2.804   2.520   0.597  0.00  0.00    -0.488 OA
BRANCH  11  13
ATOM     12  C   UNL     1      -2.596   4.869   1.125  0.00  0.00    +0.048 C 
ATOM     13  C   UNL     1      -3.018   3.834   0.079  0.00  0.00    +0.226 C 
ENDBRANCH  11  13
ENDBRANCH   2  11
ENDBRANCH   1   3
BRANCH   1  14
ATOM     14  N   UNL     1      -0.012   1.005   0.008  0.00  0.00    +0.383 N 
ATOM     15  H   UNL     1      -0.497   1.287   0.954  0.00  0.00    -0.085 HD
ATOM     16  H   UNL     1       0.046  -0.091  -0.062  0.00  0.00    -0.085 HD
BRANCH  14  17
ATOM     17  C   UNL     1       1.353   1.550  -0.003  0.00  0.00    -0.067 C 
BRANCH  17  18
ATOM     18  C   UNL     1       2.136   0.985   1.184  0.00  0.00    +0.062 C 
BRANCH  18  19
ATOM     19  N   UNL     1       3.501   1.530   1.173  0.00  0.00    -0.315 NA
ATOM     20  H   UNL     1       4.001   1.248   0.235  0.00  0.00    +0.122 HD
BRANCH  19  21
ATOM     21  C   UNL     1       4.284   1.008   2.301  0.00  0.00    +0.111 C 
BRANCH  21  22
ATOM     22  C   UNL     1       5.696   1.596   2.257  0.00  0.00    +0.125 C 
ATOM     23  C   UNL     1       6.549   0.959   3.355  0.00  0.00    +0.039 C 
BRANCH  22  24
ATOM     24  O   UNL     1       5.630   3.009   2.464  0.00  0.00    -0.391 OA
ATOM     25  H   UNL     1       6.552   3.608   2.466  0.00  0.00    +0.210 HD
ENDBRANCH  22  24
ENDBRANCH  21  22
ENDBRANCH  19  21
ENDBRANCH  18  19
ENDBRANCH  17  18
ENDBRANCH  14  17
ENDBRANCH   1  14
TORSDOF 11
