REMARK  Name = ZINC15849577
REMARK  8 active torsions:
REMARK  status: ('A' for Active; 'I' for Inactive)
REMARK    1  A    between atoms: C_1  and  C_2
REMARK    2  A    between atoms: C_2  and  C_4
REMARK    3  A    between atoms: C_2  and  O_15
REMARK    4  A    between atoms: N_6  and  C_7
REMARK    5  A    between atoms: C_8  and  C_12
REMARK    6  A    between atoms: O_15  and  C_16
REMARK    7  A    between atoms: C_16  and  C_18
REMARK    8  A    between atoms: C_20  and  C_28
REMARK                            x       y       z     vdW  Elec       q    Type
REMARK                         _______ _______ _______ _____ _____    ______ ____
ROOT
ATOM      1  C   UNL     1       1.383  -2.165  -0.024  0.00  0.00    +0.341 C 
ATOM      2  O   UNL     1       0.374  -2.834   0.074  0.00  0.00    -0.245 OA
ENDROOT
BRANCH   1   3
ATOM      3  C   UNL     1       1.296  -0.690  -0.015  0.00  0.00    +0.070 A 
ATOM      4  C   UNL     1       2.436   0.100  -0.007  0.00  0.00    +0.044 A 
ATOM      5  C   UNL     1       2.305   1.500   0.001  0.00  0.00    +0.079 A 
ATOM      6  N   UNL     1       1.129   2.097   0.003  0.00  0.00    -0.246 NA
ATOM      7  C   UNL     1      -0.017   1.413  -0.004  0.00  0.00    +0.072 A 
ATOM      8  C   UNL     1       0.002  -0.004  -0.013  0.00  0.00    +0.014 A 
ATOM      9  C   UNL     1      -1.202  -0.716  -0.019  0.00  0.00    +0.011 A 
ATOM     10  C   UNL     1      -2.385  -0.039  -0.017  0.00  0.00    +0.001 A 
ATOM     11  C   UNL     1      -2.411   1.354  -0.009  0.00  0.00    +0.002 A 
ATOM     12  C   UNL     1      -1.258   2.078   0.003  0.00  0.00    +0.028 A 
BRANCH   5  13
ATOM     13  C   UNL     1       3.525   2.329   0.009  0.00  0.00    +0.039 A 
ATOM     14  C   UNL     1       3.641   3.695   0.012  0.00  0.00    +0.019 A 
ATOM     15  C   UNL     1       4.898   4.252   0.024  0.00  0.00    +0.028 A 
ATOM     16  C   UNL     1       5.986   3.434   0.021  0.00  0.00    +0.079 A 
ATOM     17  S   UNL     1       5.235   1.814   0.009  0.00  0.00    -0.075 S 
ATOM     18 CL   UNL     1       7.669   3.856   0.028  0.00  0.00    -0.076 Cl
ENDBRANCH   5  13
ENDBRANCH   1   3
BRANCH   1  19
ATOM     19  O   UNL     1       2.582  -2.768  -0.141  0.00  0.00    -0.449 OA
BRANCH  19  21
ATOM     20  C   UNL     1       2.456  -4.729  -1.579  0.00  0.00    +0.062 C 
ATOM     21  C   UNL     1       2.592  -4.220  -0.142  0.00  0.00    +0.259 C 
BRANCH  21  22
ATOM     22  C   UNL     1       3.889  -4.714   0.445  0.00  0.00    +0.258 C 
ATOM     23  O   UNL     1       4.722  -3.921   0.828  0.00  0.00    -0.271 OA
ATOM     24  N   UNL     1       4.122  -6.038   0.545  0.00  0.00    -0.276 N 
ATOM     25  H   UNL     1       3.455  -6.673   0.239  0.00  0.00    +0.155 HD
BRANCH  24  26
ATOM     26  C   UNL     1       5.315  -6.492   1.086  0.00  0.00    +0.084 A 
ATOM     27  C   UNL     1       5.733  -7.804   1.276  0.00  0.00    +0.065 A 
ATOM     28  C   UNL     1       7.038  -7.992   1.863  0.00  0.00    +0.022 A 
ATOM     29  C   UNL     1       7.732  -6.885   2.184  0.00  0.00    +0.048 A 
ATOM     30  S   UNL     1       6.644  -5.563   1.695  0.00  0.00    -0.081 S 
BRANCH  27  31
ATOM     31  C   UNL     1       4.890  -8.942   0.896  0.00  0.00    +0.244 C 
ATOM     32  O   UNL     1       3.795  -8.750   0.400  0.00  0.00    -0.270 OA
ATOM     33  N   UNL     1       5.327 -10.201   1.095  0.00  0.00    -0.325 N 
ATOM     34  H   UNL     1       6.200 -10.355   1.490  0.00  0.00    +0.145 HD
ATOM     35  H   UNL     1       4.770 -10.954   0.844  0.00  0.00    +0.145 HD
ENDBRANCH  27  31
ENDBRANCH  24  26
ENDBRANCH  21  22
ENDBRANCH  19  21
ENDBRANCH   1  19
TORSDOF 7
