REMARK  Name = ZINC35636892
REMARK  13 active torsions:
REMARK  status: ('A' for Active; 'I' for Inactive)
REMARK    1  A    between atoms: C_1  and  C_2
REMARK    2  A    between atoms: C_2  and  C_3
REMARK    3  A    between atoms: C_2  and  C_4
REMARK    4  A    between atoms: C_4  and  N_5
REMARK    5  A    between atoms: C_6  and  C_8
REMARK    6  A    between atoms: C_8  and  C_10
REMARK    7  A    between atoms: C_8  and  N_13
REMARK    8  A    between atoms: C_10  and  C_11
REMARK    9  A    between atoms: C_10  and  C_12
REMARK   10  A    between atoms: C_19  and  C_28
REMARK   11  A    between atoms: N_24  and  C_25
REMARK   12  A    between atoms: C_25  and  C_26
REMARK   13  A    between atoms: C_31  and  C_34
REMARK                            x       y       z     vdW  Elec       q    Type
REMARK                         _______ _______ _______ _____ _____    ______ ____
ROOT
ATOM      1  N   UNL     1      -3.853  -4.893  -0.252  0.00  0.00    -0.280 N 
ATOM      2  C   UNL     1      -4.458  -5.500  -1.446  0.00  0.00    +0.160 C 
ATOM      3  C   UNL     1      -5.789  -6.042  -0.976  0.00  0.00    +0.043 C 
ATOM      4  C   UNL     1      -5.875  -5.748   0.338  0.00  0.00    +0.058 C 
ATOM      5  C   UNL     1      -4.716  -5.068   0.765  0.00  0.00    +0.247 C 
ATOM      6  O   UNL     1      -4.523  -4.686   1.905  0.00  0.00    -0.270 OA
ATOM      7  C   UNL     1      -7.125  -6.180   1.076  0.00  0.00    +0.142 C 
ATOM      8  N   UNL     1      -8.150  -6.890   0.293  0.00  0.00    -0.288 N 
ATOM      9  C   UNL     1      -7.919  -7.111  -1.017  0.00  0.00    +0.307 C 
ATOM     10  O   UNL     1      -8.759  -7.696  -1.672  0.00  0.00    -0.252 OA
ATOM     11  N   UNL     1      -6.793  -6.706  -1.619  0.00  0.00    -0.253 N 
ATOM     12  H   UNL     1      -8.973  -7.193   0.709  0.00  0.00    +0.151 HD
ENDROOT
BRANCH   7  13
ATOM     13  C   UNL     1      -6.707  -7.076   2.213  0.00  0.00    -0.023 A 
ATOM     14  C   UNL     1      -6.403  -8.403   1.972  0.00  0.00    +0.006 A 
ATOM     15  C   UNL     1      -6.020  -9.225   3.015  0.00  0.00    +0.013 A 
ATOM     16  C   UNL     1      -5.940  -8.720   4.300  0.00  0.00    +0.055 A 
ATOM     17  C   UNL     1      -6.243  -7.393   4.541  0.00  0.00    +0.013 A 
ATOM     18  C   UNL     1      -6.622  -6.570   3.497  0.00  0.00    +0.006 A 
BRANCH  16  19
ATOM     19  C   UNL     1      -5.523  -9.616   5.437  0.00  0.00    +0.417 C 
ATOM     20  F   UNL     1      -4.132  -9.568   5.583  0.00  0.00    -0.166 F 
ATOM     21  F   UNL     1      -6.130  -9.182   6.620  0.00  0.00    -0.166 F 
ATOM     22  F   UNL     1      -5.918 -10.930   5.165  0.00  0.00    -0.166 F 
ENDBRANCH  16  19
ENDBRANCH   7  13
BRANCH   1  23
ATOM     23  C   UNL     1      -2.550  -4.227  -0.181  0.00  0.00    +0.165 C 
BRANCH  23  25
ATOM     24  N   UNL     1      -1.788  -1.874  -0.169  0.00  0.00    -0.314 N 
ATOM     25  C   UNL     1      -2.748  -2.768   0.141  0.00  0.00    +0.234 C 
ATOM     26  O   UNL     1      -3.770  -2.399   0.678  0.00  0.00    -0.274 OA
ATOM     27  H   UNL     1      -0.940  -2.177  -0.529  0.00  0.00    +0.149 HD
BRANCH  24  28
ATOM     28  C   UNL     1      -2.026  -0.443   0.039  0.00  0.00    +0.107 C 
BRANCH  28  30
ATOM     29  C   UNL     1      -1.080   1.846  -0.290  0.00  0.00    +0.009 C 
ATOM     30  C   UNL     1      -0.788   0.347  -0.389  0.00  0.00    -0.000 C 
ATOM     31  C   UNL     1       0.385  -0.006   0.528  0.00  0.00    +0.009 C 
ENDBRANCH  28  30
ENDBRANCH  24  28
ENDBRANCH  23  25
BRANCH  23  32
ATOM     32  C   UNL     1      -1.702  -4.880   0.913  0.00  0.00    +0.012 C 
ATOM     33  C   UNL     1      -1.491  -6.359   0.581  0.00  0.00    +0.009 C 
ATOM     34  C   UNL     1      -0.346  -4.177   0.996  0.00  0.00    +0.009 C 
ENDBRANCH  23  32
ENDBRANCH   1  23
BRANCH  11  35
ATOM     35  C   UNL     1      -6.631  -6.991  -3.047  0.00  0.00    +0.141 C 
BRANCH  35  36
ATOM     36  C   UNL     1      -5.959  -8.329  -3.219  0.00  0.00    -0.015 C 
ATOM     37  C   UNL     1      -6.524  -9.256  -3.952  0.00  0.00    +0.005 C 
ENDBRANCH  35  36
ENDBRANCH  11  35
TORSDOF 9
