REMARK  Name = ZINC59332585
REMARK  11 active torsions:
REMARK  status: ('A' for Active; 'I' for Inactive)
REMARK    1  A    between atoms: C_1  and  C_2
REMARK    2  A    between atoms: C_2  and  C_3
REMARK    3  A    between atoms: C_2  and  C_4
REMARK    4  A    between atoms: C_2  and  C_5
REMARK    5  A    between atoms: C_5  and  C_7
REMARK    6  A    between atoms: C_5  and  N_18
REMARK    7  A    between atoms: C_7  and  N_8
REMARK    8  A    between atoms: C_19  and  C_21
REMARK    9  A    between atoms: C_25  and  S_27
REMARK   10  A    between atoms: S_27  and  N_30
REMARK   11  A    between atoms: N_30  and  C_31
REMARK                            x       y       z     vdW  Elec       q    Type
REMARK                         _______ _______ _______ _____ _____    ______ ____
ROOT
ATOM      1  C   UNL     1       0.718  -0.497  -1.257  0.00  0.00    +0.062 C 
ENDROOT
BRANCH   1   3
ATOM      2  C   UNL     1      -0.019   1.526   0.010  0.00  0.00    +0.012 C 
ATOM      3  C   UNL     1       0.002  -0.004   0.002  0.00  0.00    -0.021 C 
ATOM      4  C   UNL     1       0.742  -0.511   1.242  0.00  0.00    +0.012 C 
ATOM      5  C   UNL     1      -1.433  -0.534   0.013  0.00  0.00    +0.012 C 
ENDBRANCH   1   3
BRANCH   1   6
ATOM      6  N   UNL     1       0.738  -1.962  -1.265  0.00  0.00    -0.310 N 
ATOM      7  C   UNL     1      -0.315  -2.648  -1.752  0.00  0.00    +0.244 C 
ATOM      8  O   UNL     1      -1.282  -2.051  -2.184  0.00  0.00    -0.270 OA
ATOM      9  H   UNL     1       1.509  -2.439  -0.920  0.00  0.00    +0.149 HD
BRANCH   7  10
ATOM     10  C   UNL     1      -0.295  -4.126  -1.760  0.00  0.00    +0.039 A 
ATOM     11  C   UNL     1       0.811  -4.815  -1.259  0.00  0.00    +0.013 A 
ATOM     12  C   UNL     1       0.823  -6.194  -1.269  0.00  0.00    +0.003 A 
ATOM     13  C   UNL     1      -0.258  -6.895  -1.775  0.00  0.00    +0.028 A 
ATOM     14  C   UNL     1      -1.357  -6.219  -2.273  0.00  0.00    +0.106 A 
ATOM     15  C   UNL     1      -1.384  -4.839  -2.263  0.00  0.00    +0.041 A 
BRANCH  14  16
ATOM     16  S   UNL     1      -2.727  -7.121  -2.915  0.00  0.00    +0.058 S 
ATOM     17  O   UNL     1      -3.397  -6.253  -3.820  0.00  0.00    -0.153 OA
ATOM     18  O   UNL     1      -2.229  -8.392  -3.308  0.00  0.00    -0.153 OA
BRANCH  16  19
ATOM     19  N   UNL     1      -3.770  -7.389  -1.657  0.00  0.00    -0.193 NA
ATOM     20  C   UNL     1      -4.439  -6.259  -1.006  0.00  0.00    +0.127 C 
ATOM     21  H   UNL     1      -3.938  -8.293  -1.351  0.00  0.00    +0.148 HD
ENDBRANCH  16  19
ENDBRANCH  14  16
ENDBRANCH   7  10
ENDBRANCH   1   6
BRANCH   1  22
ATOM     22  C   UNL     1       2.154   0.032  -1.268  0.00  0.00    -0.055 C 
BRANCH  22  23
ATOM     23  N   UNL     1       2.877  -0.538  -2.412  0.00  0.00    +0.384 N 
ATOM     24  C   UNL     1       4.285  -0.116  -2.364  0.00  0.00    -0.074 C 
ATOM     25  C   UNL     1       5.080  -0.953  -3.367  0.00  0.00    +0.017 C 
ATOM     26  C   UNL     1       4.400  -0.916  -4.712  0.00  0.00    -0.048 A 
ATOM     27  C   UNL     1       5.118  -1.311  -5.831  0.00  0.00    +0.004 A 
ATOM     28  C   UNL     1       4.528  -1.294  -7.079  0.00  0.00    +0.000 A 
ATOM     29  C   UNL     1       3.215  -0.882  -7.213  0.00  0.00    +0.000 A 
ATOM     30  C   UNL     1       2.500  -0.488  -6.100  0.00  0.00    +0.002 A 
ATOM     31  C   UNL     1       3.092  -0.503  -4.846  0.00  0.00    -0.061 A 
ATOM     32  C   UNL     1       2.278  -0.056  -3.660  0.00  0.00    -0.043 C 
ATOM     33  H   UNL     1       2.823  -1.545  -2.378  0.00  0.00    -0.081 HD
ENDBRANCH  22  23
ENDBRANCH   1  22
TORSDOF 7
