REMARK  Name = ZINC12323743
REMARK  7 active torsions:
REMARK  status: ('A' for Active; 'I' for Inactive)
REMARK    1  A    between atoms: C_6  and  S_7
REMARK    2  A    between atoms: S_7  and  N_10
REMARK    3  A    between atoms: N_10  and  C_11
REMARK    4  A    between atoms: C_16  and  C_20
REMARK    5  A    between atoms: N_22  and  C_23
REMARK    6  A    between atoms: C_23  and  C_24
REMARK    7  A    between atoms: C_24  and  C_25
REMARK                            x       y       z     vdW  Elec       q    Type
REMARK                         _______ _______ _______ _____ _____    ______ ____
ROOT
ATOM      1  C   UNL     1      -3.106  -1.833  -1.865  0.00  0.00    +0.202 A 
ATOM      2  N   UNL     1      -3.987  -2.360  -1.042  0.00  0.00    -0.222 NA
ATOM      3  C   UNL     1      -5.085  -3.010  -1.476  0.00  0.00    +0.080 A 
ATOM      4  C   UNL     1      -6.102  -3.618  -0.698  0.00  0.00    +0.030 A 
ATOM      5  C   UNL     1      -7.154  -4.240  -1.285  0.00  0.00    +0.015 A 
ATOM      6  C   UNL     1      -7.279  -4.308  -2.679  0.00  0.00    +0.038 A 
ATOM      7  C   UNL     1      -6.293  -3.718  -3.478  0.00  0.00    +0.030 A 
ATOM      8  C   UNL     1      -5.234  -3.091  -2.882  0.00  0.00    +0.042 A 
ATOM      9  S   UNL     1      -3.796  -2.226  -3.466  0.00  0.00    -0.049 S 
ENDROOT
BRANCH   6  10
ATOM     10  C   UNL     1      -8.431  -4.991  -3.295  0.00  0.00    +0.244 C 
ATOM     11  O   UNL     1      -8.531  -5.044  -4.506  0.00  0.00    -0.270 OA
ATOM     12  N   UNL     1      -9.375  -5.556  -2.516  0.00  0.00    -0.311 N 
ATOM     13  H   UNL     1      -9.296  -5.514  -1.550  0.00  0.00    +0.149 HD
BRANCH  12  14
ATOM     14  C   UNL     1     -10.520  -6.235  -3.128  0.00  0.00    +0.110 C 
BRANCH  14  15
ATOM     15  C   UNL     1     -11.434  -6.784  -2.030  0.00  0.00    +0.073 C 
BRANCH  15  16
ATOM     16  C   UNL     1     -12.612  -7.482  -2.660  0.00  0.00    +0.035 A 
ATOM     17  C   UNL     1     -13.754  -6.907  -3.081  0.00  0.00    +0.105 A 
ATOM     18  N   UNL     1     -14.544  -7.870  -3.578  0.00  0.00    -0.352 N 
ATOM     19  H   UNL     1     -12.058  -9.501  -2.730  0.00  0.00    +0.166 HD
ATOM     20  C   UNL     1     -13.935  -9.020  -3.481  0.00  0.00    +0.171 A 
ATOM     21  N   UNL     1     -12.724  -8.821  -2.918  0.00  0.00    -0.350 N 
ATOM     22  H   UNL     1     -15.429  -7.733  -3.951  0.00  0.00    +0.166 HD
ENDBRANCH  15  16
ENDBRANCH  14  15
ENDBRANCH  12  14
ENDBRANCH   6  10
BRANCH   1  23
ATOM     23  N   UNL     1      -1.948  -1.147  -1.567  0.00  0.00    -0.070 NA
BRANCH  23  24
ATOM     24  S   UNL     1      -1.512  -0.905   0.012  0.00  0.00    +0.093 S 
ATOM     25  O   UNL     1      -1.218  -2.186   0.553  0.00  0.00    -0.148 OA
ATOM     26  O   UNL     1      -2.492  -0.046   0.577  0.00  0.00    -0.148 OA
BRANCH  24  32
ATOM     27  C   UNL     1      -0.017   1.378   0.010  0.00  0.00    +0.030 A 
ATOM     28  C   UNL     1       1.171   2.086   0.002  0.00  0.00    +0.022 A 
ATOM     29  C   UNL     1       2.378   1.410  -0.013  0.00  0.00    +0.041 A 
ATOM     30  C   UNL     1       2.396   0.027  -0.021  0.00  0.00    +0.022 A 
ATOM     31  C   UNL     1       1.208  -0.679  -0.013  0.00  0.00    +0.030 A 
ATOM     32  C   UNL     1       0.002  -0.004   0.002  0.00  0.00    +0.111 A 
ATOM     33 CL   UNL     1       3.870   2.298  -0.023  0.00  0.00    -0.084 Cl
ENDBRANCH  24  32
ENDBRANCH  23  24
ENDBRANCH   1  23
TORSDOF 7
