REMARK  Name = ZINC59446984
REMARK  4 active torsions:
REMARK  status: ('A' for Active; 'I' for Inactive)
REMARK    1  A    between atoms: C_4  and  C_7
REMARK    2  A    between atoms: C_7  and  O_9
REMARK    3  A    between atoms: O_9  and  N_10
REMARK    4  A    between atoms: C_11  and  C_22
REMARK                            x       y       z     vdW  Elec       q    Type
REMARK                         _______ _______ _______ _____ _____    ______ ____
ROOT
ATOM      1  N   UNL     1       5.012  -2.577   0.048  0.00  0.00    -0.098 N 
ATOM      2  C   UNL     1       5.785  -2.826  -1.168  0.00  0.00    +0.268 C 
ATOM      3  N   UNL     1       6.676  -3.978  -0.978  0.00  0.00    -0.317 N 
ATOM      4  C   UNL     1       7.396  -4.072   0.208  0.00  0.00    +0.041 A 
ATOM      5  C   UNL     1       8.629  -4.696   0.269  0.00  0.00    +0.024 A 
ATOM      6  C   UNL     1       9.305  -4.760   1.472  0.00  0.00    +0.002 A 
ATOM      7  C   UNL     1       8.758  -4.203   2.618  0.00  0.00    +0.001 A 
ATOM      8  C   UNL     1       7.528  -3.578   2.574  0.00  0.00    +0.015 A 
ATOM      9  C   UNL     1       6.836  -3.509   1.369  0.00  0.00    +0.061 A 
ATOM     10  C   UNL     1       5.517  -2.857   1.268  0.00  0.00    +0.282 C 
ATOM     11  O   UNL     1       4.890  -2.577   2.272  0.00  0.00    -0.267 OA
ATOM     12  H   UNL     1       6.760  -4.658  -1.665  0.00  0.00    +0.148 HD
ENDROOT
BRANCH   2  13
ATOM     13  C   UNL     1       6.612  -1.608  -1.491  0.00  0.00    +0.146 A 
ATOM     14  C   UNL     1       7.748  -1.597  -2.212  0.00  0.00    +0.048 A 
ATOM     15  C   UNL     1       8.185  -0.254  -2.267  0.00  0.00    +0.041 A 
ATOM     16  C   UNL     1       7.291   0.476  -1.576  0.00  0.00    +0.195 A 
ATOM     17  O   UNL     1       6.337  -0.349  -1.114  0.00  0.00    -0.464 OA
ENDBRANCH   2  13
BRANCH   1  18
ATOM     18  O   UNL     1       3.711  -2.027  -0.056  0.00  0.00    -0.337 OA
BRANCH  18  19
ATOM     19  C   UNL     1       2.729  -2.944  -0.070  0.00  0.00    +0.362 C 
ATOM     20  O   UNL     1       3.004  -4.128  -0.095  0.00  0.00    -0.243 OA
BRANCH  19  24
ATOM     21  C   UNL     1      -1.333  -1.707  -0.028  0.00  0.00    +0.000 A 
ATOM     22  C   UNL     1      -1.024  -3.055  -0.057  0.00  0.00    +0.001 A 
ATOM     23  C   UNL     1       0.293  -3.464  -0.071  0.00  0.00    +0.015 A 
ATOM     24  C   UNL     1       1.316  -2.514  -0.056  0.00  0.00    +0.061 A 
ATOM     25  C   UNL     1       0.997  -1.155  -0.027  0.00  0.00    +0.015 A 
ATOM     26  C   UNL     1      -0.325  -0.760  -0.013  0.00  0.00    +0.001 A 
ENDBRANCH  19  24
ENDBRANCH  18  19
ENDBRANCH   1  18
TORSDOF 4
