REMARK  Name = ZINC33897441
REMARK  13 active torsions:
REMARK  status: ('A' for Active; 'I' for Inactive)
REMARK    1  A    between atoms: C_1  and  C_2
REMARK    2  A    between atoms: C_2  and  C_3
REMARK    3  A    between atoms: C_2  and  C_4
REMARK    4  A    between atoms: C_4  and  C_5
REMARK    5  A    between atoms: C_5  and  C_7
REMARK    6  A    between atoms: C_5  and  N_19
REMARK    7  A    between atoms: N_9  and  C_10
REMARK    8  A    between atoms: C_13  and  N_16
REMARK    9  A    between atoms: C_20  and  C_22
REMARK   10  A    between atoms: C_25  and  C_27
REMARK   11  A    between atoms: C_27  and  C_29
REMARK   12  A    between atoms: C_27  and  N_40
REMARK   13  A    between atoms: C_29  and  C_30
REMARK                            x       y       z     vdW  Elec       q    Type
REMARK                         _______ _______ _______ _____ _____    ______ ____
ROOT
ATOM      1  N   UNL     1      -2.298   1.320  -1.971  0.00  0.00    -0.299 N 
ATOM      2  C   UNL     1      -1.249   1.718  -2.717  0.00  0.00    +0.266 C 
ATOM      3  O   UNL     1      -0.345   0.942  -2.958  0.00  0.00    -0.268 OA
ATOM      4  H   UNL     1      -3.053   1.915  -1.839  0.00  0.00    +0.150 HD
ENDROOT
BRANCH   2   5
ATOM      5  C   UNL     1      -1.198   3.095  -3.241  0.00  0.00    +0.163 A 
ATOM      6  C   UNL     1      -0.210   3.632  -4.009  0.00  0.00    +0.230 A 
ATOM      7  O   UNL     1      -0.559   4.903  -4.263  0.00  0.00    -0.449 OA
ATOM      8  C   UNL     1      -1.734   5.143  -3.664  0.00  0.00    +0.182 A 
ATOM      9  N   UNL     1      -2.131   4.067  -3.053  0.00  0.00    -0.210 NA
BRANCH   8  10
ATOM     10  C   UNL     1      -2.480   6.452  -3.700  0.00  0.00    +0.017 C 
BRANCH  10  11
ATOM     11  N   UNL     1      -1.543   7.556  -3.455  0.00  0.00    +0.386 N 
ATOM     12  H   UNL     1      -0.830   7.556  -4.169  0.00  0.00    -0.089 HD
ATOM     13  H   UNL     1      -2.042   8.433  -3.479  0.00  0.00    -0.089 HD
ATOM     14  H   UNL     1      -1.113   7.438  -2.550  0.00  0.00    -0.089 HD
ENDBRANCH  10  11
BRANCH  10  15
ATOM     15  C   UNL     1      -3.132   6.630  -5.072  0.00  0.00    +0.030 C 
BRANCH  15  16
ATOM     16  C   UNL     1      -3.978   7.878  -5.068  0.00  0.00    -0.023 A 
ATOM     17  C   UNL     1      -5.296   7.948  -4.822  0.00  0.00    +0.087 A 
ATOM     18  N   UNL     1      -5.718   9.247  -4.906  0.00  0.00    -0.360 N 
ATOM     19  H   UNL     1      -6.630   9.546  -4.768  0.00  0.00    +0.165 HD
ATOM     20  C   UNL     1      -4.655  10.065  -5.216  0.00  0.00    +0.047 A 
ATOM     21  C   UNL     1      -3.517   9.244  -5.325  0.00  0.00    +0.003 A 
ATOM     22  C   UNL     1      -2.277   9.809  -5.630  0.00  0.00    +0.010 A 
ATOM     23  C   UNL     1      -2.174  11.158  -5.817  0.00  0.00    +0.001 A 
ATOM     24  C   UNL     1      -3.292  11.973  -5.707  0.00  0.00    +0.002 A 
ATOM     25  C   UNL     1      -4.528  11.435  -5.417  0.00  0.00    +0.026 A 
ENDBRANCH  15  16
ENDBRANCH  10  15
ENDBRANCH   8  10
ENDBRANCH   2   5
BRANCH   1  26
ATOM     26  C   UNL     1      -2.298  -0.011  -1.358  0.00  0.00    +0.160 C 
BRANCH  26  27
ATOM     27  C   UNL     1      -3.718  -0.491  -1.200  0.00  0.00    +0.238 C 
ATOM     28  O   UNL     1      -4.633   0.305  -1.217  0.00  0.00    -0.273 OA
ATOM     29  N   UNL     1      -3.971  -1.805  -1.039  0.00  0.00    -0.284 N 
ATOM     30  H   UNL     1      -3.237  -2.433  -0.950  0.00  0.00    +0.155 HD
BRANCH  29  31
ATOM     31  C   UNL     1      -5.293  -2.263  -1.000  0.00  0.00    +0.034 A 
ATOM     32  C   UNL     1      -5.617  -3.500  -1.542  0.00  0.00    +0.025 A 
ATOM     33  C   UNL     1      -6.922  -3.949  -1.502  0.00  0.00    +0.034 A 
ATOM     34  C   UNL     1      -7.906  -3.169  -0.923  0.00  0.00    +0.126 A 
ATOM     35  C   UNL     1      -7.587  -1.937  -0.383  0.00  0.00    +0.034 A 
ATOM     36  C   UNL     1      -6.282  -1.484  -0.414  0.00  0.00    +0.025 A 
BRANCH  34  37
ATOM     37  N   UNL     1      -9.304  -3.654  -0.882  0.00  0.00    +0.056 N 
ATOM     38  O   UNL     1      -9.584  -4.731  -1.354  0.00  0.00    -0.126 OA
ATOM     39  O   UNL     1     -10.165  -2.973  -0.376  0.00  0.00    -0.126 OA
ENDBRANCH  34  37
ENDBRANCH  29  31
ENDBRANCH  26  27
BRANCH  26  40
ATOM     40  C   UNL     1      -1.628   0.060   0.015  0.00  0.00    +0.034 C 
BRANCH  40  42
ATOM     41  C   UNL     1      -0.548  -2.178  -0.246  0.00  0.00    +0.007 C 
ATOM     42  C   UNL     1      -1.516  -1.349   0.601  0.00  0.00    -0.015 C 
ATOM     43  C   UNL     1      -0.993  -1.264   2.037  0.00  0.00    +0.007 C 
ENDBRANCH  40  42
ENDBRANCH  26  40
ENDBRANCH   1  26
TORSDOF 11
