REMARK  Name = ZINC20275571
REMARK  5 active torsions:
REMARK  status: ('A' for Active; 'I' for Inactive)
REMARK    1  A    between atoms: C_1  and  C_2
REMARK    2  A    between atoms: C_2  and  N_3
REMARK    3  A    between atoms: C_6  and  N_16
REMARK    4  A    between atoms: C_11  and  C_14
REMARK    5  A    between atoms: C_11  and  C_15
REMARK                            x       y       z     vdW  Elec       q    Type
REMARK                         _______ _______ _______ _____ _____    ______ ____
ROOT
ATOM      1  N   UNL     1       1.197   2.092   0.002  0.00  0.00    -0.265 N 
ATOM      2  C   UNL     1      -0.017   1.390   0.010  0.00  0.00    +0.080 A 
ATOM      3  C   UNL     1      -1.225   2.067   0.031  0.00  0.00    +0.050 A 
ATOM      4  C   UNL     1      -2.415   1.352   0.034  0.00  0.00    +0.027 A 
ATOM      5  C   UNL     1      -2.393  -0.036   0.026  0.00  0.00    +0.026 A 
ATOM      6  C   UNL     1      -1.187  -0.712   0.011  0.00  0.00    +0.049 A 
ATOM      7  C   UNL     1       0.002  -0.004   0.002  0.00  0.00    +0.143 A 
ATOM      8  O   UNL     1       1.196  -0.657  -0.015  0.00  0.00    -0.475 OA
ATOM      9  C   UNL     1       2.267  -0.019  -0.716  0.00  0.00    +0.181 C 
ATOM     10  C   UNL     1       2.331   1.436  -0.328  0.00  0.00    +0.263 C 
ATOM     11  O   UNL     1       3.396   2.016  -0.313  0.00  0.00    -0.271 OA
ATOM     12  C   UNL     1       3.589  -0.700  -0.356  0.00  0.00    +0.065 C 
ATOM     13  C   UNL     1       2.029  -0.134  -2.223  0.00  0.00    +0.065 C 
ENDROOT
BRANCH   4  14
ATOM     14  N   UNL     1      -3.638   2.032   0.049  0.00  0.00    -0.358 N 
ATOM     15  H   UNL     1      -4.582   1.466   0.052  0.00  0.00    +0.142 HD
ATOM     16  H   UNL     1      -3.656   3.132   0.059  0.00  0.00    +0.142 HD
ENDBRANCH   4  14
BRANCH   1  18
ATOM     17  C   UNL     1       1.454   3.670   1.852  0.00  0.00    +0.025 C 
ATOM     18  C   UNL     1       1.234   3.515   0.346  0.00  0.00    +0.110 C 
ENDBRANCH   1  18
TORSDOF 2
