REMARK  Name = ZINC08711011
REMARK  9 active torsions:
REMARK  status: ('A' for Active; 'I' for Inactive)
REMARK    1  A    between atoms: C_1  and  C_2
REMARK    2  A    between atoms: C_2  and  N_3
REMARK    3  A    between atoms: C_5  and  C_14
REMARK    4  A    between atoms: C_14  and  N_65
REMARK    5  A    between atoms: C_15  and  N_65
REMARK    6  A    between atoms: C_16  and  C_17
REMARK    7  A    between atoms: C_16  and  N_65
REMARK    8  A    between atoms: N_19  and  N_20
REMARK    9  A    between atoms: C_26  and  C_29
REMARK                            x       y       z     vdW  Elec       q    Type
REMARK                         _______ _______ _______ _____ _____    ______ ____
ROOT
ATOM      1  C   UNL     1       1.401   4.252   0.261  0.00  0.00    +0.213 C 
ATOM      2  O   UNL     1       0.974   3.534   1.140  0.00  0.00    -0.276 OA
ATOM      3  N   UNL     1       1.609   3.755  -0.974  0.00  0.00    -0.225 N 
ATOM      4  H   UNL     1       1.950   4.329  -1.677  0.00  0.00    +0.173 HD
ENDROOT
BRANCH   3   5
ATOM      5  N   UNL     1       1.331   2.408  -1.243  0.00  0.00    -0.137 N 
ATOM      6  C   UNL     1       2.273   1.453  -1.386  0.00  0.00    +0.263 C 
ATOM      7  O   UNL     1       3.476   1.591  -1.310  0.00  0.00    -0.271 OA
ATOM      8  C   UNL     1       1.515   0.175  -1.661  0.00  0.00    +0.114 C 
ATOM      9  C   UNL     1       1.889  -0.382  -3.030  0.00  0.00    +0.035 C 
ATOM     10  C   UNL     1       1.084  -1.655  -3.302  0.00  0.00    +0.006 C 
ATOM     11  C   UNL     1       1.382  -2.688  -2.213  0.00  0.00    -0.014 C 
ATOM     12  C   UNL     1       0.982  -2.123  -0.848  0.00  0.00    +0.006 C 
ATOM     13  C   UNL     1       1.788  -0.852  -0.568  0.00  0.00    +0.035 C 
ATOM     14  C   UNL     1       0.585  -3.964  -2.489  0.00  0.00    +0.007 C 
ATOM     15  N   UNL     1       0.105   0.586  -1.641  0.00  0.00    -0.284 N 
ATOM     16  C   UNL     1       0.098   1.909  -1.389  0.00  0.00    +0.326 C 
ATOM     17  O   UNL     1      -0.915   2.575  -1.308  0.00  0.00    -0.251 OA
ATOM     18  H   UNL     1      -0.668   0.017  -1.781  0.00  0.00    +0.151 HD
ENDBRANCH   3   5
BRANCH   1  19
ATOM     19  C   UNL     1       1.700   5.701   0.550  0.00  0.00    +0.020 C 
BRANCH  19  21
ATOM     20  C   UNL     1      -0.049   5.875   2.215  0.00  0.00    -0.095 C 
ATOM     21  N   UNL     1       1.406   5.974   1.972  0.00  0.00    +0.386 N 
ATOM     22  H   UNL     1       1.889   5.278   2.552  0.00  0.00    -0.081 HD
BRANCH  21  23
ATOM     23  C   UNL     1       1.889   7.322   2.338  0.00  0.00    -0.032 C 
BRANCH  23  26
ATOM     24  N   UNL     1       5.410   8.600   2.907  0.00  0.00    -0.324 N 
ATOM     25  C   UNL     1       3.948   8.674   2.801  0.00  0.00    +0.147 C 
ATOM     26  C   UNL     1       3.406   7.265   2.525  0.00  0.00    +0.174 C 
ATOM     27  O   UNL     1       3.725   6.441   3.651  0.00  0.00    -0.487 OA
ATOM     28  C   UNL     1       4.992   6.540   4.142  0.00  0.00    +0.142 A 
ATOM     29  C   UNL     1       5.824   7.596   3.788  0.00  0.00    +0.072 A 
ATOM     30  C   UNL     1       7.108   7.664   4.320  0.00  0.00    +0.027 A 
ATOM     31  C   UNL     1       7.553   6.688   5.191  0.00  0.00    +0.002 A 
ATOM     32  C   UNL     1       6.724   5.638   5.538  0.00  0.00    +0.004 A 
ATOM     33  C   UNL     1       5.447   5.564   5.016  0.00  0.00    +0.047 A 
BRANCH  24  35
ATOM     34  C   UNL     1       5.552  10.243   4.718  0.00  0.00    +0.024 C 
ATOM     35  C   UNL     1       5.977   9.901   3.288  0.00  0.00    +0.102 C 
ENDBRANCH  24  35
ENDBRANCH  23  26
ENDBRANCH  21  23
ENDBRANCH  19  21
ENDBRANCH   1  19
TORSDOF 6
