REMARK  Name = ZINC36273720
REMARK  5 active torsions:
REMARK  status: ('A' for Active; 'I' for Inactive)
REMARK    1  A    between atoms: C_11  and  C_13
REMARK    2  A    between atoms: C_13  and  O_14
REMARK    3  A    between atoms: O_14  and  C_15
REMARK    4  A    between atoms: C_22  and  C_24
REMARK    5  A    between atoms: C_27  and  N_30
REMARK                            x       y       z     vdW  Elec       q    Type
REMARK                         _______ _______ _______ _____ _____    ______ ____
ROOT
ATOM      1  C   UNL     1       6.126   3.230  -1.489  0.00  0.00    +0.162 A 
ATOM      2  C   UNL     1       5.030   4.042  -1.526  0.00  0.00    +0.051 A 
ATOM      3  C   UNL     1       5.169   5.378  -1.936  0.00  0.00    +0.022 A 
ATOM      4  C   UNL     1       6.378   5.860  -2.292  0.00  0.00    +0.093 A 
ATOM      5  N   UNL     1       7.486   5.059  -2.260  0.00  0.00    -0.305 N 
ATOM      6  C   UNL     1       7.387   3.753  -1.859  0.00  0.00    +0.159 A 
ATOM      7  N   UNL     1       8.593   3.208  -1.913  0.00  0.00    -0.337 N 
ATOM      8  C   UNL     1       9.473   4.130  -2.332  0.00  0.00    +0.065 A 
ATOM      9  C   UNL     1       8.798   5.291  -2.563  0.00  0.00    +0.119 A 
ATOM     10  H   UNL     1       8.806   2.289  -1.685  0.00  0.00    +0.167 HD
ENDROOT
BRANCH   8  11
ATOM     11  C   UNL     1      10.929   3.917  -2.524  0.00  0.00    -0.000 A 
ATOM     12  C   UNL     1      11.492   2.668  -2.267  0.00  0.00    +0.012 A 
ATOM     13  C   UNL     1      12.845   2.473  -2.446  0.00  0.00    +0.023 A 
ATOM     14  C   UNL     1      13.648   3.521  -2.883  0.00  0.00    +0.025 A 
ATOM     15  C   UNL     1      13.088   4.767  -3.139  0.00  0.00    +0.023 A 
ATOM     16  C   UNL     1      11.735   4.965  -2.966  0.00  0.00    +0.012 A 
BRANCH  14  17
ATOM     17  N   UNL     1      15.018   3.321  -3.063  0.00  0.00    -0.358 N 
ATOM     18  H   UNL     1      15.409   2.452  -2.884  0.00  0.00    +0.142 HD
ATOM     19  H   UNL     1      15.579   4.052  -3.368  0.00  0.00    +0.142 HD
ENDBRANCH  14  17
ENDBRANCH   8  11
BRANCH   1  20
ATOM     20  O   UNL     1       6.007   1.935  -1.095  0.00  0.00    -0.479 OA
BRANCH  20  21
ATOM     21  C   UNL     1       4.700   1.482  -0.737  0.00  0.00    +0.325 C 
BRANCH  21  32
ATOM     22  C   UNL     1       3.776  -4.736   0.701  0.00  0.00    +0.000 A 
ATOM     23  C   UNL     1       4.866  -4.093   0.143  0.00  0.00    +0.002 A 
ATOM     24  C   UNL     1       4.812  -2.737  -0.105  0.00  0.00    +0.024 A 
ATOM     25  C   UNL     1       3.663  -2.018   0.205  0.00  0.00    +0.040 A 
ATOM     26  C   UNL     1       2.570  -2.663   0.761  0.00  0.00    -0.026 A 
ATOM     27  C   UNL     1       2.633  -4.024   1.009  0.00  0.00    +0.005 A 
ATOM     28  C   UNL     1       1.306  -1.919   1.100  0.00  0.00    +0.038 C 
ATOM     29  C   UNL     1       1.585  -0.422   1.239  0.00  0.00    +0.024 C 
ATOM     30  C   UNL     1       2.338   0.059  -0.008  0.00  0.00    +0.114 C 
ATOM     31  N   UNL     1       3.630  -0.640  -0.050  0.00  0.00    -0.268 N 
ATOM     32  C   UNL     1       4.764   0.033  -0.330  0.00  0.00    +0.257 C 
ATOM     33  O   UNL     1       5.837  -0.529  -0.254  0.00  0.00    -0.272 OA
ENDBRANCH  21  32
ENDBRANCH  20  21
ENDBRANCH   1  20
TORSDOF 5
