REMARK  Name = ZINC54163297
REMARK  7 active torsions:
REMARK  status: ('A' for Active; 'I' for Inactive)
REMARK    1  A    between atoms: C_1  and  C_2
REMARK    2  A    between atoms: C_2  and  C_3
REMARK    3  A    between atoms: C_3  and  C_5
REMARK    4  A    between atoms: C_3  and  N_10
REMARK    5  A    between atoms: C_5  and  C_6
REMARK    6  A    between atoms: N_7  and  O_8
REMARK    7  A    between atoms: C_11  and  C_13
REMARK                            x       y       z     vdW  Elec       q    Type
REMARK                         _______ _______ _______ _____ _____    ______ ____
ROOT
ATOM      1  N   UNL     1      -0.055  -0.114  -2.441  0.00  0.00    -0.308 N 
ATOM      2  C   UNL     1       0.107   1.109  -2.984  0.00  0.00    +0.246 C 
ATOM      3  O   UNL     1       0.895   1.893  -2.492  0.00  0.00    -0.270 OA
ATOM      4  H   UNL     1      -0.683  -0.740  -2.833  0.00  0.00    +0.149 HD
ENDROOT
BRANCH   2   5
ATOM      5  C   UNL     1      -0.673   1.496  -4.178  0.00  0.00    +0.056 A 
ATOM      6  C   UNL     1      -1.583   0.599  -4.742  0.00  0.00    +0.029 A 
ATOM      7  C   UNL     1      -2.308   0.967  -5.857  0.00  0.00    +0.019 A 
ATOM      8  C   UNL     1      -2.134   2.222  -6.417  0.00  0.00    +0.017 A 
ATOM      9  C   UNL     1      -1.235   3.115  -5.864  0.00  0.00    +0.022 A 
ATOM     10  C   UNL     1      -0.507   2.762  -4.744  0.00  0.00    +0.053 A 
ATOM     11 CL   UNL     1       0.616   3.887  -4.046  0.00  0.00    -0.083 Cl
ATOM     12 BR   UNL     1      -3.540  -0.246  -6.623  0.00  0.00    -0.050 Br
ENDBRANCH   2   5
BRANCH   1  13
ATOM     13  C   UNL     1       0.718  -0.497  -1.257  0.00  0.00    +0.080 C 
BRANCH  13  15
ATOM     14  C   UNL     1      -0.019   1.526   0.010  0.00  0.00    +0.006 C 
ATOM     15  C   UNL     1       0.002  -0.004   0.002  0.00  0.00    +0.019 C 
ENDBRANCH  13  15
BRANCH  13  16
ATOM     16  C   UNL     1       0.849  -2.021  -1.205  0.00  0.00    +0.096 C 
BRANCH  16  17
ATOM     17  C   UNL     1       1.661  -2.496  -2.382  0.00  0.00    +0.133 C 
ATOM     18  N   UNL     1       2.121  -1.642  -3.236  0.00  0.00    -0.077 NA
ATOM     19  N   UNL     1       1.913  -3.840  -2.548  0.00  0.00    -0.344 N 
ATOM     20  H   UNL     1       1.568  -4.480  -1.907  0.00  0.00    +0.144 HD
ATOM     21  H   UNL     1       2.436  -4.145  -3.306  0.00  0.00    +0.144 HD
BRANCH  18  22
ATOM     22  O   UNL     1       2.884  -2.088  -4.343  0.00  0.00    -0.408 OA
ATOM     23  H   UNL     1       3.183  -1.377  -4.926  0.00  0.00    +0.328 HD
ENDBRANCH  18  22
ENDBRANCH  16  17
ENDBRANCH  13  16
ENDBRANCH   1  13
TORSDOF 6
