REMARK  Name = ZINC18244011
REMARK  10 active torsions:
REMARK  status: ('A' for Active; 'I' for Inactive)
REMARK    1  A    between atoms: C_2  and  C_3
REMARK    2  A    between atoms: C_3  and  N_4
REMARK    3  A    between atoms: C_8  and  C_10
REMARK    4  A    between atoms: C_10  and  O_11
REMARK    5  A    between atoms: O_11  and  C_12
REMARK    6  A    between atoms: C_12  and  C_14
REMARK    7  A    between atoms: C_14  and  C_16
REMARK    8  A    between atoms: C_14  and  N_27
REMARK    9  A    between atoms: C_16  and  C_17
REMARK   10  A    between atoms: C_28  and  C_30
REMARK                            x       y       z     vdW  Elec       q    Type
REMARK                         _______ _______ _______ _____ _____    ______ ____
ROOT
ATOM      1  C   UNL     1      -1.495   3.860   2.581  0.00  0.00    +0.186 C 
ENDROOT
BRANCH   1   2
ATOM      2  N   UNL     1      -1.477   5.323   2.522  0.00  0.00    -0.298 N 
ATOM      3  C   UNL     1      -1.560   6.044   3.658  0.00  0.00    +0.246 C 
ATOM      4  O   UNL     1      -1.649   5.480   4.731  0.00  0.00    -0.270 OA
ATOM      5  H   UNL     1      -1.406   5.774   1.666  0.00  0.00    +0.150 HD
BRANCH   3   6
ATOM      6  C   UNL     1      -1.542   7.521   3.599  0.00  0.00    +0.055 A 
ATOM      7  C   UNL     1      -1.433   8.172   2.369  0.00  0.00    +0.014 A 
ATOM      8  C   UNL     1      -1.423   9.550   2.320  0.00  0.00    +0.001 A 
ATOM      9  C   UNL     1      -1.508  10.289   3.487  0.00  0.00    +0.001 A 
ATOM     10  C   UNL     1      -1.609   9.651   4.710  0.00  0.00    +0.021 A 
ATOM     11  C   UNL     1      -1.627   8.271   4.774  0.00  0.00    +0.053 A 
ATOM     12 CL   UNL     1      -1.754   7.472   6.310  0.00  0.00    -0.083 Cl
ENDBRANCH   3   6
ENDBRANCH   1   2
BRANCH   1  13
ATOM     13  C   UNL     1      -0.802   3.300   1.365  0.00  0.00    +0.328 C 
ATOM     14  O   UNL     1      -0.341   4.046   0.535  0.00  0.00    -0.249 OA
BRANCH  13  15
ATOM     15  O   UNL     1      -0.698   1.971   1.205  0.00  0.00    -0.454 OA
BRANCH  15  16
ATOM     16  C   UNL     1      -0.018   1.503   0.010  0.00  0.00    +0.328 C 
BRANCH  16  21
ATOM     17  N   UNL     1       1.186  -2.673  -2.045  0.00  0.00    -0.296 N 
ATOM     18  C   UNL     1       0.603  -2.012  -1.025  0.00  0.00    +0.306 C 
ATOM     19  O   UNL     1       0.094  -2.632  -0.112  0.00  0.00    -0.252 OA
ATOM     20  N   UNL     1       0.585  -0.664  -1.018  0.00  0.00    -0.237 N 
ATOM     21  C   UNL     1       0.002  -0.004   0.002  0.00  0.00    +0.258 C 
ATOM     22  O   UNL     1      -0.506  -0.622   0.913  0.00  0.00    -0.272 OA
ATOM     23  H   UNL     1       1.593  -2.178  -2.774  0.00  0.00    +0.151 HD
ATOM     24  H   UNL     1       0.992  -0.170  -1.747  0.00  0.00    +0.159 HD
BRANCH  17  25
ATOM     25  C   UNL     1       1.206  -4.137  -2.053  0.00  0.00    +0.132 C 
BRANCH  25  27
ATOM     26  C   UNL     1       2.929  -5.442  -3.190  0.00  0.00    +0.005 C 
ATOM     27  C   UNL     1       1.912  -4.623  -3.293  0.00  0.00    -0.016 C 
ENDBRANCH  25  27
ENDBRANCH  17  25
ENDBRANCH  16  21
ENDBRANCH  15  16
ENDBRANCH  13  15
ENDBRANCH   1  13
BRANCH   1  28
ATOM     28  C   UNL     1      -2.943   3.368   2.615  0.00  0.00    +0.071 C 
BRANCH  28  29
ATOM     29  C   UNL     1      -3.600   3.826   3.891  0.00  0.00    -0.020 A 
ATOM     30  C   UNL     1      -3.715   3.121   5.028  0.00  0.00    +0.087 A 
ATOM     31  N   UNL     1      -4.369   3.864   5.973  0.00  0.00    -0.360 N 
ATOM     32  H   UNL     1      -4.568   3.567   6.875  0.00  0.00    +0.165 HD
ATOM     33  C   UNL     1      -4.706   5.093   5.452  0.00  0.00    +0.047 A 
ATOM     34  C   UNL     1      -4.239   5.123   4.125  0.00  0.00    +0.003 A 
ATOM     35  C   UNL     1      -4.442   6.261   3.342  0.00  0.00    +0.010 A 
ATOM     36  C   UNL     1      -5.093   7.341   3.869  0.00  0.00    +0.001 A 
ATOM     37  C   UNL     1      -5.556   7.315   5.177  0.00  0.00    +0.002 A 
ATOM     38  C   UNL     1      -5.367   6.203   5.968  0.00  0.00    +0.026 A 
ENDBRANCH  28  29
ENDBRANCH   1  28
TORSDOF 10
