REMARK  Name = ZINC12413069
REMARK  5 active torsions:
REMARK  status: ('A' for Active; 'I' for Inactive)
REMARK    1  A    between atoms: C_1  and  C_2
REMARK    2  A    between atoms: N_4  and  C_19
REMARK    3  A    between atoms: N_8  and  N_9
REMARK    4  A    between atoms: N_9  and  C_10
REMARK    5  A    between atoms: C_15  and  N_16
REMARK                            x       y       z     vdW  Elec       q    Type
REMARK                         _______ _______ _______ _____ _____    ______ ____
ROOT
ATOM      1  C   UNL     1       1.266   1.393   0.091  0.00  0.00    +0.070 C 
ATOM      2  C   UNL     1       1.229  -0.114   0.103  0.00  0.00    +0.089 C 
ATOM      3  N   UNL     1       1.413  -0.893  -0.918  0.00  0.00    -0.175 NA
ATOM      4  N   UNL     1       1.311  -2.237  -0.558  0.00  0.00    -0.155 N 
ATOM      5  C   UNL     1       1.048  -2.346   0.760  0.00  0.00    +0.292 C 
ATOM      6  O   UNL     1       0.898  -3.374   1.396  0.00  0.00    -0.266 OA
ATOM      7  C   UNL     1       0.983  -0.967   1.276  0.00  0.00    +0.168 C 
ATOM      8  N   UNL     1       0.752  -0.582   2.518  0.00  0.00    -0.175 NA
ENDROOT
BRANCH   4   9
ATOM      9  C   UNL     1       1.461  -3.316  -1.438  0.00  0.00    +0.060 A 
ATOM     10  C   UNL     1       1.332  -4.618  -0.970  0.00  0.00    +0.025 A 
ATOM     11  C   UNL     1       1.480  -5.680  -1.841  0.00  0.00    +0.002 A 
ATOM     12  C   UNL     1       1.755  -5.449  -3.176  0.00  0.00    +0.000 A 
ATOM     13  C   UNL     1       1.885  -4.154  -3.644  0.00  0.00    +0.002 A 
ATOM     14  C   UNL     1       1.732  -3.087  -2.780  0.00  0.00    +0.025 A 
ENDBRANCH   4   9
BRANCH   8  15
ATOM     15  N   UNL     1       0.554  -1.463   3.440  0.00  0.00    -0.235 N 
ATOM     16  H   UNL     1       0.574  -2.407   3.220  0.00  0.00    +0.174 HD
BRANCH  15  17
ATOM     17  C   UNL     1       0.310  -1.056   4.752  0.00  0.00    +0.078 A 
ATOM     18  C   UNL     1       0.393   0.290   5.091  0.00  0.00    +0.027 A 
ATOM     19  C   UNL     1       0.151   0.688   6.390  0.00  0.00    +0.002 A 
ATOM     20  C   UNL     1      -0.172  -0.249   7.354  0.00  0.00    +0.002 A 
ATOM     21  C   UNL     1      -0.256  -1.589   7.021  0.00  0.00    +0.034 A 
ATOM     22  C   UNL     1      -0.022  -1.994   5.721  0.00  0.00    +0.149 A 
BRANCH  22  23
ATOM     23  N   UNL     1      -0.117  -3.428   5.364  0.00  0.00    +0.058 N 
ATOM     24  O   UNL     1      -0.574  -3.754   4.293  0.00  0.00    -0.126 OA
ATOM     25  O   UNL     1       0.261  -4.271   6.143  0.00  0.00    -0.126 OA
ENDBRANCH  22  23
ENDBRANCH  15  17
ENDBRANCH   8  15
TORSDOF 4
