REMARK  Name = ZINC21251159
REMARK  9 active torsions:
REMARK  status: ('A' for Active; 'I' for Inactive)
REMARK    1  A    between atoms: C_1  and  C_2
REMARK    2  A    between atoms: C_2  and  C_4
REMARK    3  A    between atoms: C_2  and  N_7
REMARK    4  A    between atoms: C_4  and  O_5
REMARK    5  A    between atoms: O_5  and  C_6
REMARK    6  A    between atoms: C_17  and  S_18
REMARK    7  A    between atoms: S_18  and  C_19
REMARK    8  A    between atoms: C_19  and  C_20
REMARK    9  A    between atoms: C_20  and  C_22
REMARK                            x       y       z     vdW  Elec       q    Type
REMARK                         _______ _______ _______ _____ _____    ______ ____
ROOT
ATOM      1  N   UNL     1       1.238  -0.740   0.025  0.00  0.00    -0.282 N 
ATOM      2  C   UNL     1       2.473  -0.191   0.101  0.00  0.00    +0.263 A 
ATOM      3  O   UNL     1       3.473  -0.885   0.132  0.00  0.00    -0.267 OA
ATOM      4  C   UNL     1       2.562   1.275   0.143  0.00  0.00    +0.065 A 
ATOM      5  C   UNL     1       3.786   1.937   0.221  0.00  0.00    +0.015 A 
ATOM      6  C   UNL     1       3.812   3.304   0.258  0.00  0.00    +0.001 A 
ATOM      7  C   UNL     1       2.632   4.038   0.218  0.00  0.00    +0.002 A 
ATOM      8  C   UNL     1       1.419   3.414   0.143  0.00  0.00    +0.028 A 
ATOM      9  C   UNL     1       1.359   2.018   0.104  0.00  0.00    +0.079 A 
ATOM     10  N   UNL     1       0.184   1.363   0.029  0.00  0.00    -0.223 NA
ATOM     11  C   UNL     1       0.128   0.054  -0.008  0.00  0.00    +0.173 A 
ENDROOT
BRANCH   1  13
ATOM     12  C   UNL     1       1.848  -2.822   1.155  0.00  0.00    +0.033 C 
ATOM     13  C   UNL     1       1.092  -2.197  -0.020  0.00  0.00    +0.115 C 
BRANCH  13  14
ATOM     14  C   UNL     1       1.666  -2.727  -1.335  0.00  0.00    +0.184 C 
BRANCH  14  15
ATOM     15  O   UNL     1       3.079  -2.513  -1.359  0.00  0.00    -0.381 OA
ATOM     16  C   UNL     1       3.716  -2.974  -2.552  0.00  0.00    +0.194 C 
ENDBRANCH  14  15
ENDBRANCH  13  14
ENDBRANCH   1  13
BRANCH  11  17
ATOM     17  S   UNL     1      -1.453  -0.717  -0.107  0.00  0.00    -0.080 S 
BRANCH  17  18
ATOM     18  C   UNL     1      -2.517   0.748  -0.121  0.00  0.00    +0.157 C 
BRANCH  18  19
ATOM     19  C   UNL     1      -3.959   0.321  -0.203  0.00  0.00    +0.173 C 
ATOM     20  O   UNL     1      -4.241  -0.858  -0.248  0.00  0.00    -0.291 OA
BRANCH  19  21
ATOM     21  C   UNL     1      -5.024   1.332  -0.229  0.00  0.00    +0.019 A 
ATOM     22  C   UNL     1      -4.702   2.693  -0.177  0.00  0.00    +0.013 A 
ATOM     23  C   UNL     1      -5.693   3.632  -0.202  0.00  0.00    +0.024 A 
ATOM     24  C   UNL     1      -7.027   3.242  -0.277  0.00  0.00    +0.037 A 
ATOM     25  C   UNL     1      -7.358   1.890  -0.329  0.00  0.00    -0.025 A 
ATOM     26  C   UNL     1      -6.366   0.937  -0.312  0.00  0.00    +0.016 A 
ATOM     27  C   UNL     1      -8.804   1.474  -0.411  0.00  0.00    +0.046 C 
ATOM     28  C   UNL     1      -9.664   2.462   0.378  0.00  0.00    +0.101 C 
ATOM     29  C   UNL     1      -9.304   3.873  -0.004  0.00  0.00    +0.218 C 
ATOM     30  O   UNL     1     -10.169   4.722  -0.044  0.00  0.00    -0.275 OA
ATOM     31  N   UNL     1      -8.034   4.204  -0.302  0.00  0.00    -0.285 N 
ATOM     32  H   UNL     1      -7.795   5.244  -0.566  0.00  0.00    +0.155 HD
ENDBRANCH  19  21
ENDBRANCH  18  19
ENDBRANCH  17  18
ENDBRANCH  11  17
TORSDOF 7
