REMARK  Name = ZINC36302055
REMARK  19 active torsions:
REMARK  status: ('A' for Active; 'I' for Inactive)
REMARK    1  A    between atoms: C_1  and  C_2
REMARK    2  A    between atoms: C_2  and  C_3
REMARK    3  A    between atoms: C_3  and  C_5
REMARK    4  A    between atoms: C_3  and  N_6
REMARK    5  A    between atoms: N_6  and  C_7
REMARK    6  A    between atoms: N_6  and  C_29
REMARK    7  A    between atoms: C_7  and  C_8
REMARK    8  A    between atoms: C_9  and  C_28
REMARK    9  A    between atoms: N_11  and  C_22
REMARK   10  A    between atoms: C_12  and  O_13
REMARK   11  A    between atoms: O_13  and  C_14
REMARK   12  A    between atoms: C_19  and  O_20
REMARK   13  A    between atoms: O_20  and  C_21
REMARK   14  A    between atoms: C_29  and  C_30
REMARK   15  A    between atoms: C_30  and  C_32
REMARK   16  A    between atoms: C_30  and  O_41
REMARK   17  A    between atoms: C_32  and  O_33
REMARK   18  A    between atoms: O_33  and  C_34
REMARK   19  A    between atoms: C_34  and  C_35
REMARK                            x       y       z     vdW  Elec       q    Type
REMARK                         _______ _______ _______ _____ _____    ______ ____
ROOT
ATOM      1  C   UNL     1      -3.410  -1.978  -2.013  0.00  0.00    +0.021 A 
ATOM      2  C   UNL     1      -3.107  -2.461  -3.289  0.00  0.00    +0.065 A 
ATOM      3  N   UNL     1      -2.875  -3.746  -3.201  0.00  0.00    -0.168 NA
ATOM      4  N   UNL     1      -3.022  -4.131  -1.863  0.00  0.00    -0.200 N 
ATOM      5  C   UNL     1      -3.346  -3.022  -1.145  0.00  0.00    +0.225 A 
ATOM      6  C   UNL     1      -3.057  -1.641  -4.553  0.00  0.00    +0.068 C 
ENDROOT
BRANCH   4   7
ATOM      7  C   UNL     1      -2.857  -5.426  -1.353  0.00  0.00    +0.069 A 
ATOM      8  C   UNL     1      -2.179  -5.622  -0.157  0.00  0.00    +0.028 A 
ATOM      9  C   UNL     1      -2.018  -6.900   0.343  0.00  0.00    +0.002 A 
ATOM     10  C   UNL     1      -2.532  -7.983  -0.347  0.00  0.00    +0.000 A 
ATOM     11  C   UNL     1      -3.207  -7.791  -1.538  0.00  0.00    +0.002 A 
ATOM     12  C   UNL     1      -3.377  -6.515  -2.040  0.00  0.00    +0.028 A 
ENDBRANCH   4   7
BRANCH   1  13
ATOM     13  C   UNL     1      -3.741  -0.550  -1.661  0.00  0.00    -0.035 C 
BRANCH  13  14
ATOM     14  N   UNL     1      -2.576   0.303  -1.927  0.00  0.00    +0.386 N 
ATOM     15  H   UNL     1      -2.202   0.087  -2.839  0.00  0.00    -0.081 HD
BRANCH  14  16
ATOM     16  C   UNL     1      -1.548   0.060  -0.906  0.00  0.00    -0.071 C 
ATOM     17  C   UNL     1      -2.205  -0.010   0.474  0.00  0.00    -0.013 C 
BRANCH  16  19
ATOM     18  C   UNL     1      -0.135  -1.173  -2.557  0.00  0.00    +0.002 C 
ATOM     19  C   UNL     1      -0.839  -1.263  -1.201  0.00  0.00    -0.019 C 
ENDBRANCH  16  19
ENDBRANCH  14  16
BRANCH  14  20
ATOM     20  C   UNL     1      -2.982   1.714  -1.885  0.00  0.00    -0.044 C 
BRANCH  20  21
ATOM     21  C   UNL     1      -1.855   2.587  -2.441  0.00  0.00    +0.124 C 
BRANCH  21  22
ATOM     22  O   UNL     1      -0.741   2.551  -1.546  0.00  0.00    -0.391 OA
ATOM     23  H   UNL     1      -0.914   2.956  -0.686  0.00  0.00    +0.210 HD
ENDBRANCH  21  22
BRANCH  21  24
ATOM     24  C   UNL     1      -2.348   4.028  -2.584  0.00  0.00    +0.189 C 
BRANCH  24  25
ATOM     25  O   UNL     1      -1.335   4.818  -3.210  0.00  0.00    -0.373 OA
BRANCH  25  26
ATOM     26  C   UNL     1      -1.697   6.188  -3.392  0.00  0.00    +0.195 C 
BRANCH  26  27
ATOM     27  C   UNL     1      -0.562   6.923  -4.057  0.00  0.00    -0.022 A 
ATOM     28  C   UNL     1       0.420   7.519  -3.288  0.00  0.00    +0.006 A 
ATOM     29  C   UNL     1       1.462   8.193  -3.898  0.00  0.00    +0.000 A 
ATOM     30  C   UNL     1       1.521   8.271  -5.277  0.00  0.00    +0.000 A 
ATOM     31  C   UNL     1       0.540   7.674  -6.046  0.00  0.00    +0.000 A 
ATOM     32  C   UNL     1      -0.499   6.997  -5.436  0.00  0.00    +0.006 A 
ENDBRANCH  26  27
ENDBRANCH  25  26
ENDBRANCH  24  25
ENDBRANCH  21  24
ENDBRANCH  20  21
ENDBRANCH  14  20
ENDBRANCH  13  14
ENDBRANCH   1  13
BRANCH   5  33
ATOM     33  O   UNL     1      -3.569  -2.969   0.193  0.00  0.00    -0.434 OA
BRANCH  33  34
ATOM     34  C   UNL     1      -4.825  -3.232   0.642  0.00  0.00    +0.172 A 
ATOM     35  C   UNL     1      -5.807  -3.646  -0.245  0.00  0.00    +0.050 A 
ATOM     36  C   UNL     1      -7.083  -3.914   0.213  0.00  0.00    +0.004 A 
ATOM     37  C   UNL     1      -7.384  -3.770   1.555  0.00  0.00    +0.004 A 
ATOM     38  C   UNL     1      -6.410  -3.357   2.445  0.00  0.00    +0.049 A 
ATOM     39  C   UNL     1      -5.127  -3.093   1.993  0.00  0.00    +0.162 A 
BRANCH  39  40
ATOM     40  O   UNL     1      -4.166  -2.692   2.868  0.00  0.00    -0.491 OA
ATOM     41  C   UNL     1      -4.547  -2.570   4.240  0.00  0.00    +0.277 C 
ENDBRANCH  39  40
ENDBRANCH  33  34
ENDBRANCH   5  33
TORSDOF 15
