REMARK  Name = ZINC60526290
REMARK  7 active torsions:
REMARK  status: ('A' for Active; 'I' for Inactive)
REMARK    1  A    between atoms: C_1  and  N_2
REMARK    2  A    between atoms: N_2  and  C_3
REMARK    3  A    between atoms: C_3  and  N_5
REMARK    4  A    between atoms: N_5  and  N_6
REMARK    5  A    between atoms: C_7  and  C_9
REMARK    6  A    between atoms: C_10  and  C_11
REMARK    7  A    between atoms: C_14  and  C_16
REMARK                            x       y       z     vdW  Elec       q    Type
REMARK                         _______ _______ _______ _____ _____    ______ ____
ROOT
ATOM      1  C   UNL     1      -0.579  -4.783  -1.119  0.00  0.00    +0.072 C 
ATOM      2  C   UNL     1      -0.561  -6.141  -1.126  0.00  0.00    +0.051 C 
ENDROOT
BRANCH   2   3
ATOM      3  C   UNL     1      -1.173  -6.851  -2.184  0.00  0.00    +0.129 A 
ATOM      4  C   UNL     1      -1.231  -8.226  -2.311  0.00  0.00    +0.050 A 
ATOM      5  C   UNL     1      -1.923  -8.494  -3.495  0.00  0.00    +0.050 A 
ATOM      6  C   UNL     1      -2.261  -7.279  -4.047  0.00  0.00    +0.138 A 
ATOM      7  O   UNL     1      -1.807  -6.302  -3.242  0.00  0.00    -0.455 OA
BRANCH   6   8
ATOM      8  C   UNL     1      -3.002  -7.081  -5.307  0.00  0.00    +0.052 A 
ATOM      9  C   UNL     1      -2.606  -7.752  -6.467  0.00  0.00    +0.014 A 
ATOM     10  C   UNL     1      -3.303  -7.563  -7.642  0.00  0.00    +0.001 A 
ATOM     11  C   UNL     1      -4.393  -6.711  -7.675  0.00  0.00    +0.003 A 
ATOM     12  C   UNL     1      -4.794  -6.043  -6.532  0.00  0.00    +0.039 A 
ATOM     13  C   UNL     1      -4.109  -6.227  -5.346  0.00  0.00    +0.134 A 
ATOM     14  F   UNL     1      -4.504  -5.578  -4.228  0.00  0.00    -0.205 F 
ENDBRANCH   6   8
ENDBRANCH   2   3
BRANCH   1  16
ATOM     15  N   UNL     1       0.016  -2.726  -0.053  0.00  0.00    -0.232 N 
ATOM     16  C   UNL     1       0.034  -4.074  -0.060  0.00  0.00    +0.253 C 
ATOM     17  O   UNL     1       0.578  -4.680   0.845  0.00  0.00    -0.269 OA
ATOM     18  H   UNL     1      -0.418  -2.243  -0.773  0.00  0.00    +0.173 HD
BRANCH  15  19
ATOM     19  N   UNL     1       0.623  -2.023   0.996  0.00  0.00    -0.246 N 
ATOM     20  H   UNL     1       1.056  -2.506   1.717  0.00  0.00    +0.172 HD
BRANCH  19  21
ATOM     21  C   UNL     1       0.604  -0.675   1.004  0.00  0.00    +0.147 C 
ATOM     22  S   UNL     1       1.346   0.184   2.285  0.00  0.00    -0.017 S 
BRANCH  21  24
ATOM     23  C   UNL     1      -0.018   1.461   0.010  0.00  0.00    +0.127 C 
ATOM     24  N   UNL     1       0.002  -0.004   0.002  0.00  0.00    -0.329 N 
ATOM     25  H   UNL     1      -0.418  -0.491  -0.724  0.00  0.00    +0.147 HD
ENDBRANCH  21  24
ENDBRANCH  19  21
ENDBRANCH  15  19
ENDBRANCH   1  16
TORSDOF 6
