REMARK  Name = ZINC09111195
REMARK  9 active torsions:
REMARK  status: ('A' for Active; 'I' for Inactive)
REMARK    1  A    between atoms: C_1  and  C_2
REMARK    2  A    between atoms: C_16  and  C_30
REMARK    3  A    between atoms: C_18  and  C_27
REMARK    4  A    between atoms: C_27  and  C_29
REMARK    5  A    between atoms: C_30  and  C_32
REMARK    6  A    between atoms: C_34  and  O_40
REMARK    7  A    between atoms: C_37  and  O_38
REMARK    8  A    between atoms: O_38  and  C_39
REMARK    9  A    between atoms: O_40  and  C_41
REMARK                            x       y       z     vdW  Elec       q    Type
REMARK                         _______ _______ _______ _____ _____    ______ ____
ROOT
ATOM      1  C   UNL     1       3.697   3.829   4.261  0.00  0.00    +0.044 C 
ATOM      2  C   UNL     1       3.010   4.354   3.026  0.00  0.00    -0.044 C 
ATOM      3  C   UNL     1       2.102   3.613   2.365  0.00  0.00    +0.000 C 
ATOM      4  C   UNL     1       1.489   4.243   1.152  0.00  0.00    +0.118 C 
ATOM      5  C   UNL     1       0.889   3.275   0.144  0.00  0.00    +0.108 C 
ATOM      6  C   UNL     1      -0.564   3.028   0.369  0.00  0.00    -0.008 A 
ATOM      7  C   UNL     1      -1.647   3.879   0.412  0.00  0.00    +0.006 A 
ATOM      8  C   UNL     1      -2.892   3.307   0.648  0.00  0.00    +0.000 A 
ATOM      9  C   UNL     1      -3.035   1.946   0.829  0.00  0.00    +0.002 A 
ATOM     10  C   UNL     1      -1.951   1.083   0.788  0.00  0.00    +0.023 A 
ATOM     11  C   UNL     1      -0.696   1.644   0.546  0.00  0.00    +0.038 A 
ATOM     12  N   UNL     1       0.540   1.027   0.460  0.00  0.00    -0.284 N 
ATOM     13  C   UNL     1       1.532   1.913   0.221  0.00  0.00    +0.231 C 
ATOM     14  O   UNL     1       2.711   1.661   0.093  0.00  0.00    -0.274 OA
ATOM     15  C   UNL     1       1.148   3.921  -1.233  0.00  0.00    +0.109 C 
ATOM     16  C   UNL     1       1.950   5.215  -0.914  0.00  0.00    +0.152 C 
ATOM     17  N   UNL     1       2.569   4.921   0.384  0.00  0.00    -0.311 N 
ATOM     18  C   UNL     1       3.074   5.961   1.127  0.00  0.00    +0.038 A 
ATOM     19  C   UNL     1       3.309   5.705   2.496  0.00  0.00    -0.001 A 
ATOM     20  C   UNL     1       3.812   6.711   3.309  0.00  0.00    +0.010 A 
ATOM     21  C   UNL     1       4.082   7.955   2.771  0.00  0.00    +0.001 A 
ATOM     22  C   UNL     1       3.855   8.203   1.429  0.00  0.00    +0.002 A 
ATOM     23  C   UNL     1       3.353   7.210   0.607  0.00  0.00    +0.024 A 
ATOM     24  H   UNL     1       0.677   0.071   0.556  0.00  0.00    +0.155 HD
ENDROOT
BRANCH  16  25
ATOM     25  C   UNL     1       3.002   5.460  -1.965  0.00  0.00    +0.151 C 
ATOM     26  O   UNL     1       4.151   5.156  -1.752  0.00  0.00    -0.296 OA
ATOM     27  C   UNL     1       2.620   6.085  -3.282  0.00  0.00    +0.088 C 
ENDBRANCH  16  25
BRANCH  15  28
ATOM     28  C   UNL     1       1.964   2.998  -2.101  0.00  0.00    +0.173 C 
ATOM     29  O   UNL     1       3.171   2.967  -1.988  0.00  0.00    -0.292 OA
BRANCH  28  30
ATOM     30  C   UNL     1       1.297   2.135  -3.085  0.00  0.00    +0.063 A 
ATOM     31  C   UNL     1      -0.096   2.167  -3.219  0.00  0.00    +0.060 A 
ATOM     32  C   UNL     1      -0.716   1.352  -4.147  0.00  0.00    +0.121 A 
ATOM     33  C   UNL     1       0.040   0.502  -4.947  0.00  0.00    +0.049 A 
ATOM     34  C   UNL     1       1.414   0.463  -4.822  0.00  0.00    +0.050 A 
ATOM     35  C   UNL     1       2.053   1.278  -3.900  0.00  0.00    +0.131 A 
BRANCH  35  36
ATOM     36  O   UNL     1       3.404   1.243  -3.782  0.00  0.00    -0.494 OA
ATOM     37  C   UNL     1       4.108   0.347  -4.644  0.00  0.00    +0.277 C 
ENDBRANCH  35  36
BRANCH  32  38
ATOM     38  O   UNL     1      -2.069   1.382  -4.279  0.00  0.00    -0.495 OA
ATOM     39  C   UNL     1      -2.644   0.514  -5.257  0.00  0.00    +0.277 C 
ENDBRANCH  32  38
ENDBRANCH  28  30
ENDBRANCH  15  28
TORSDOF 5
