REMARK  Name = ZINC10023193
REMARK  9 active torsions:
REMARK  status: ('A' for Active; 'I' for Inactive)
REMARK    1  A    between atoms: C_1  and  C_2
REMARK    2  A    between atoms: C_2  and  C_3
REMARK    3  A    between atoms: C_3  and  C_5
REMARK    4  A    between atoms: C_3  and  C_6
REMARK    5  A    between atoms: C_9  and  S_12
REMARK    6  A    between atoms: S_12  and  N_15
REMARK    7  A    between atoms: C_20  and  C_22
REMARK    8  A    between atoms: C_20  and  C_29
REMARK    9  A    between atoms: C_20  and  N_58
REMARK                            x       y       z     vdW  Elec       q    Type
REMARK                         _______ _______ _______ _____ _____    ______ ____
ROOT
ATOM      1  N   UNL     1       1.369   2.014  -0.000  0.00  0.00    -0.180 NA
ATOM      2  C   UNL     1      -0.019   1.528   0.010  0.00  0.00    +0.091 C 
ATOM      3  C   UNL     1       0.002  -0.004   0.002  0.00  0.00    -0.060 C 
ATOM      4  C   UNL     1       2.233  -0.058   0.950  0.00  0.00    -0.060 C 
ATOM      5  C   UNL     1       2.304   1.472   0.998  0.00  0.00    +0.091 C 
ATOM      6  N   UNL     1       0.827  -0.474   1.137  0.00  0.00    +0.392 N 
ATOM      7  H   UNL     1       0.468  -0.057   2.004  0.00  0.00    -0.080 HD
ENDROOT
BRANCH   1   8
ATOM      8  S   UNL     1       1.866   3.142  -1.106  0.00  0.00    +0.061 S 
ATOM      9  O   UNL     1       3.273   2.988  -1.239  0.00  0.00    -0.153 OA
ATOM     10  O   UNL     1       0.981   3.044  -2.213  0.00  0.00    -0.153 OA
BRANCH   8  14
ATOM     11  C   UNL     1       1.181   7.219   0.739  0.00  0.00    -0.044 A 
ATOM     12  C   UNL     1       2.387   6.569   0.926  0.00  0.00    +0.006 A 
ATOM     13  C   UNL     1       2.596   5.325   0.362  0.00  0.00    +0.029 A 
ATOM     14  C   UNL     1       1.600   4.729  -0.388  0.00  0.00    +0.105 A 
ATOM     15  C   UNL     1       0.395   5.380  -0.579  0.00  0.00    +0.029 A 
ATOM     16  C   UNL     1       0.184   6.623  -0.011  0.00  0.00    +0.006 A 
BRANCH  11  17
ATOM     17  C   UNL     1       0.953   8.576   1.353  0.00  0.00    +0.016 C 
ATOM     18  C   UNL     1       0.664   9.594   0.248  0.00  0.00    +0.012 C 
BRANCH  17  20
ATOM     19  C   UNL     1      -0.395   9.851   3.027  0.00  0.00    +0.004 C 
ATOM     20  C   UNL     1      -0.240   8.509   2.309  0.00  0.00    +0.004 C 
ENDBRANCH  17  20
ENDBRANCH  11  17
ENDBRANCH   8  14
ENDBRANCH   1   8
BRANCH   6  21
ATOM     21  C   UNL     1       0.746  -1.946   1.243  0.00  0.00    +0.050 C 
BRANCH  21  22
ATOM     22  C   UNL     1       1.614  -2.401   2.388  0.00  0.00    -0.052 A 
ATOM     23  C   UNL     1       1.669  -1.657   3.551  0.00  0.00    +0.004 A 
ATOM     24  C   UNL     1       2.461  -2.078   4.604  0.00  0.00    +0.020 A 
ATOM     25  C   UNL     1       3.207  -3.238   4.487  0.00  0.00    +0.041 A 
ATOM     26  C   UNL     1       3.155  -3.979   3.320  0.00  0.00    +0.020 A 
ATOM     27  C   UNL     1       2.358  -3.560   2.271  0.00  0.00    +0.004 A 
ATOM     28 CL   UNL     1       4.207  -3.763   5.806  0.00  0.00    -0.084 Cl
ENDBRANCH  21  22
BRANCH  21  29
ATOM     29  C   UNL     1      -0.685  -2.337   1.510  0.00  0.00    +0.201 C 
ATOM     30  O   UNL     1      -1.543  -1.484   1.583  0.00  0.00    -0.277 OA
ATOM     31  N   UNL     1      -1.010  -3.635   1.669  0.00  0.00    -0.330 N 
ATOM     32  H   UNL     1      -0.323  -4.318   1.610  0.00  0.00    +0.145 HD
ATOM     33  H   UNL     1      -1.930  -3.888   1.841  0.00  0.00    +0.145 HD
ENDBRANCH  21  29
ENDBRANCH   6  21
TORSDOF 7
