REMARK  Name = ZINC49056936
REMARK  2 active torsions:
REMARK  status: ('A' for Active; 'I' for Inactive)
REMARK    1  A    between atoms: C_6  and  C_7
REMARK    2  A    between atoms: C_7  and  N_11
REMARK                            x       y       z     vdW  Elec       q    Type
REMARK                         _______ _______ _______ _____ _____    ______ ____
ROOT
ATOM      1  C   UNL     1      -1.291  -0.773   0.012  0.00  0.00    +0.061 C 
ATOM      2  C   UNL     1      -1.607  -1.428  -1.343  0.00  0.00    +0.031 C 
ATOM      3  C   UNL     1      -2.113  -2.644  -0.548  0.00  0.00    +0.005 C 
ATOM      4  C   UNL     1      -1.173  -2.196   0.584  0.00  0.00    +0.031 C 
ENDROOT
BRANCH   1   5
ATOM      5  N   UNL     1      -2.408  -0.007   0.570  0.00  0.00    -0.290 N 
ATOM      6  C   UNL     1      -2.847   1.101  -0.060  0.00  0.00    +0.306 C 
ATOM      7  O   UNL     1      -2.379   1.413  -1.138  0.00  0.00    -0.252 OA
ATOM      8  N   UNL     1      -3.804   1.863   0.505  0.00  0.00    -0.247 N 
ATOM      9  C   UNL     1      -4.257   3.006  -0.144  0.00  0.00    +0.189 A 
ATOM     10  N   UNL     1      -3.885   3.504  -1.307  0.00  0.00    -0.126 NA
ATOM     11  N   UNL     1      -4.393   4.563  -1.774  0.00  0.00    -0.148 NA
ATOM     12  C   UNL     1      -5.322   5.188  -1.079  0.00  0.00    +0.183 A 
ATOM     13  S   UNL     1      -5.430   4.113   0.345  0.00  0.00    -0.039 S 
ATOM     14  H   UNL     1      -2.832  -0.297   1.393  0.00  0.00    +0.151 HD
ATOM     15  H   UNL     1      -4.177   1.614   1.365  0.00  0.00    +0.158 HD
ENDBRANCH   1   5
BRANCH   1  21
ATOM     16  C   UNL     1       1.126  -0.535  -0.594  0.00  0.00    +0.008 A 
ATOM     17  C   UNL     1       2.317   0.166  -0.583  0.00  0.00    +0.038 A 
ATOM     18  C   UNL     1       2.390   1.396   0.047  0.00  0.00    +0.123 A 
ATOM     19  C   UNL     1       1.269   1.923   0.666  0.00  0.00    +0.038 A 
ATOM     20  C   UNL     1       0.079   1.221   0.654  0.00  0.00    +0.008 A 
ATOM     21  C   UNL     1       0.007  -0.008   0.024  0.00  0.00    -0.024 A 
ATOM     22  F   UNL     1       3.554   2.082   0.058  0.00  0.00    -0.205 F 
ENDBRANCH   1  21
TORSDOF 2
