REMARK  Name = ZINC32655379
REMARK  8 active torsions:
REMARK  status: ('A' for Active; 'I' for Inactive)
REMARK    1  A    between atoms: C_1  and  C_2
REMARK    2  A    between atoms: C_2  and  O_3
REMARK    3  A    between atoms: O_3  and  C_4
REMARK    4  A    between atoms: C_7  and  C_10
REMARK    5  A    between atoms: C_15  and  S_28
REMARK    6  A    between atoms: C_24  and  C_26
REMARK    7  A    between atoms: C_24  and  C_27
REMARK    8  A    between atoms: S_28  and  C_29
REMARK                            x       y       z     vdW  Elec       q    Type
REMARK                         _______ _______ _______ _____ _____    ______ ____
ROOT
ATOM      1  C   UNL     1       0.002  -0.004   0.002  0.00  0.00    +0.090 C 
ATOM      2  C   UNL     1      -0.668  -0.510   1.243  0.00  0.00    +0.044 A 
ATOM      3  C   UNL     1      -0.005  -0.486   2.469  0.00  0.00    +0.126 A 
ATOM      4  N   UNL     1      -0.634  -0.942   3.549  0.00  0.00    -0.207 NA
ATOM      5  C   UNL     1      -1.870  -1.414   3.468  0.00  0.00    +0.191 A 
ATOM      6  N   UNL     1      -2.528  -1.452   2.318  0.00  0.00    -0.206 NA
ATOM      7  C   UNL     1      -1.960  -1.013   1.199  0.00  0.00    +0.133 A 
ATOM      8  N   UNL     1      -2.639  -1.051  -0.007  0.00  0.00    -0.302 N 
ATOM      9  C   UNL     1      -1.957  -0.981  -1.191  0.00  0.00    +0.017 C 
ATOM     10  C   UNL     1      -0.696  -0.500  -1.239  0.00  0.00    +0.024 C 
ATOM     11  C   UNL     1       0.012  -0.448  -2.453  0.00  0.00    +0.162 C 
ATOM     12  O   UNL     1       1.141   0.000  -2.465  0.00  0.00    -0.292 OA
ATOM     13  C   UNL     1      -0.601  -0.934  -3.737  0.00  0.00    +0.086 C 
ATOM     14  C   UNL     1      -1.624  -2.030  -3.418  0.00  0.00    -0.023 C 
ATOM     15  C   UNL     1      -2.654  -1.460  -2.441  0.00  0.00    +0.058 C 
ATOM     16  C   UNL     1      -0.915  -3.226  -2.779  0.00  0.00    +0.011 C 
ATOM     17  C   UNL     1      -2.324  -2.473  -4.704  0.00  0.00    +0.011 C 
ATOM     18  N   UNL     1       1.288   0.006   2.561  0.00  0.00    -0.343 N 
ATOM     19  H   UNL     1      -3.735  -1.139  -0.018  0.00  0.00    +0.153 HD
ATOM     20  H   UNL     1       1.802   0.021   3.533  0.00  0.00    +0.144 HD
ATOM     21  H   UNL     1       1.799   0.382   1.663  0.00  0.00    +0.144 HD
ENDROOT
BRANCH   1  25
ATOM     22  C   UNL     1      -0.056   4.269   0.025  0.00  0.00    +0.121 A 
ATOM     23  C   UNL     1       1.154   3.591   0.010  0.00  0.00    +0.046 A 
ATOM     24  C   UNL     1       1.170   2.209   0.003  0.00  0.00    +0.008 A 
ATOM     25  C   UNL     1      -0.018   1.503   0.010  0.00  0.00    -0.035 A 
ATOM     26  C   UNL     1      -1.226   2.177   0.020  0.00  0.00    +0.008 A 
ATOM     27  C   UNL     1      -1.247   3.558   0.033  0.00  0.00    +0.046 A 
BRANCH  22  28
ATOM     28  O   UNL     1      -0.074   5.628   0.032  0.00  0.00    -0.492 OA
BRANCH  28  30
ATOM     29  C   UNL     1      -1.176   7.779   0.053  0.00  0.00    +0.048 C 
ATOM     30  C   UNL     1      -1.356   6.259   0.047  0.00  0.00    +0.225 C 
ENDBRANCH  28  30
ENDBRANCH  22  28
ENDBRANCH   1  25
BRANCH   5  31
ATOM     31  S   UNL     1      -2.660  -2.005   4.928  0.00  0.00    -0.089 S 
ATOM     32  C   UNL     1      -1.343  -1.719   6.136  0.00  0.00    +0.093 C 
ENDBRANCH   5  31
TORSDOF 4
