REMARK  Name = ZINC40890934
REMARK  10 active torsions:
REMARK  status: ('A' for Active; 'I' for Inactive)
REMARK    1  A    between atoms: C_1  and  C_2
REMARK    2  A    between atoms: C_7  and  O_8
REMARK    3  A    between atoms: O_8  and  C_9
REMARK    4  A    between atoms: C_9  and  C_11
REMARK    5  A    between atoms: C_9  and  C_12
REMARK    6  A    between atoms: C_12  and  O_14
REMARK    7  A    between atoms: O_14  and  C_15
REMARK    8  A    between atoms: C_20  and  C_26
REMARK    9  A    between atoms: N_28  and  C_29
REMARK   10  A    between atoms: C_29  and  C_30
REMARK                            x       y       z     vdW  Elec       q    Type
REMARK                         _______ _______ _______ _____ _____    ______ ____
ROOT
ATOM      1  C   UNL     1      -1.537   0.501   6.584  0.00  0.00    +0.135 A 
ATOM      2  C   UNL     1      -1.905   1.766   6.127  0.00  0.00    +0.047 A 
ATOM      3  C   UNL     1      -2.578   2.627   6.942  0.00  0.00    +0.015 A 
ATOM      4  C   UNL     1      -2.895   2.244   8.255  0.00  0.00    +0.019 A 
ATOM      5  C   UNL     1      -3.562   3.141   9.123  0.00  0.00    +0.031 A 
ATOM      6  C   UNL     1      -3.674   2.793  10.464  0.00  0.00    +0.122 A 
ATOM      7  C   UNL     1      -3.058   1.523  10.888  0.00  0.00    +0.350 A 
ATOM      8  O   UNL     1      -2.698   1.351  12.037  0.00  0.00    -0.244 OA
ATOM      9  O   UNL     1      -2.906   0.556   9.954  0.00  0.00    -0.422 OA
ATOM     10  C   UNL     1      -2.551   0.955   8.709  0.00  0.00    +0.143 A 
ATOM     11  C   UNL     1      -1.865   0.094   7.867  0.00  0.00    +0.093 A 
ENDROOT
BRANCH   6  12
ATOM     12  C   UNL     1      -4.381   3.658  11.423  0.00  0.00    +0.251 C 
ATOM     13  O   UNL     1      -4.882   4.700  11.047  0.00  0.00    -0.270 OA
ATOM     14  N   UNL     1      -4.474   3.294  12.718  0.00  0.00    -0.308 N 
ATOM     15  H   UNL     1      -4.074   2.462  13.017  0.00  0.00    +0.149 HD
BRANCH  14  16
ATOM     16  C   UNL     1      -5.177   4.154  13.672  0.00  0.00    +0.131 C 
BRANCH  16  17
ATOM     17  C   UNL     1      -5.137   3.524  15.041  0.00  0.00    -0.016 C 
ATOM     18  C   UNL     1      -4.663   4.199  16.058  0.00  0.00    +0.005 C 
ENDBRANCH  16  17
ENDBRANCH  14  16
ENDBRANCH   6  12
BRANCH   1  19
ATOM     19  O   UNL     1      -0.857  -0.340   5.763  0.00  0.00    -0.423 OA
BRANCH  19  20
ATOM     20  C   UNL     1       0.390   0.004   5.401  0.00  0.00    +0.353 C 
ATOM     21  O   UNL     1       0.908   0.987   5.877  0.00  0.00    -0.246 OA
BRANCH  20  22
ATOM     22  C   UNL     1       1.143  -0.835   4.401  0.00  0.00    +0.279 C 
ATOM     23  C   UNL     1       1.295  -2.258   4.941  0.00  0.00    +0.064 C 
BRANCH  22  24
ATOM     24  O   UNL     1       2.436  -0.268   4.181  0.00  0.00    -0.478 OA
BRANCH  24  31
ATOM     25  C   UNL     1       4.855   1.088   3.646  0.00  0.00    +0.047 C 
ATOM     26  C   UNL     1       4.145   0.254   2.610  0.00  0.00    -0.007 A 
ATOM     27  C   UNL     1       4.677   0.126   1.342  0.00  0.00    +0.027 A 
ATOM     28  C   UNL     1       4.025  -0.639   0.391  0.00  0.00    +0.041 A 
ATOM     29  C   UNL     1       2.839  -1.277   0.709  0.00  0.00    +0.023 A 
ATOM     30  C   UNL     1       2.303  -1.151   1.976  0.00  0.00    +0.047 A 
ATOM     31  C   UNL     1       2.958  -0.389   2.932  0.00  0.00    +0.125 A 
ATOM     32 CL   UNL     1       4.696  -0.799  -1.202  0.00  0.00    -0.084 Cl
ENDBRANCH  24  31
ENDBRANCH  22  24
ENDBRANCH  20  22
ENDBRANCH  19  20
ENDBRANCH   1  19
TORSDOF 8
