REMARK  Name = ZINC49803313
REMARK  20 active torsions:
REMARK  status: ('A' for Active; 'I' for Inactive)
REMARK    1  A    between atoms: C_1  and  C_2
REMARK    2  A    between atoms: C_4  and  C_38
REMARK    3  A    between atoms: C_5  and  C_37
REMARK    4  A    between atoms: N_6  and  C_30
REMARK    5  A    between atoms: C_7  and  C_29
REMARK    6  A    between atoms: C_8  and  C_9
REMARK    7  A    between atoms: N_11  and  C_12
REMARK    8  A    between atoms: C_12  and  C_14
REMARK    9  A    between atoms: C_12  and  C_21
REMARK   10  A    between atoms: C_14  and  C_15
REMARK   11  A    between atoms: C_21  and  C_23
REMARK   12  A    between atoms: C_21  and  O_28
REMARK   13  A    between atoms: C_23  and  N_24
REMARK   14  A    between atoms: N_24  and  C_25
REMARK   15  A    between atoms: C_30  and  C_31
REMARK   16  A    between atoms: C_31  and  O_33
REMARK   17  A    between atoms: O_33  and  C_34
REMARK   18  A    between atoms: C_34  and  C_35
REMARK   19  A    between atoms: C_34  and  C_36
REMARK   20  A    between atoms: C_38  and  C_40
REMARK                            x       y       z     vdW  Elec       q    Type
REMARK                         _______ _______ _______ _____ _____    ______ ____
ROOT
ATOM      1  C   UNL     1       0.136  -0.376   2.512  0.00  0.00    +0.242 C 
ATOM      2  O   UNL     1       0.716  -0.779   3.504  0.00  0.00    -0.270 OA
ATOM      3  N   UNL     1      -1.099   0.151   2.621  0.00  0.00    -0.306 N 
ATOM      4  H   UNL     1      -1.561   0.472   1.830  0.00  0.00    +0.149 HD
ENDROOT
BRANCH   1  11
ATOM      5  C   UNL     1       0.068   1.569   0.015  0.00  0.00    +0.018 C 
ATOM      6  C   UNL     1       0.030   0.040   0.029  0.00  0.00    +0.057 C 
ATOM      7  C   UNL     1       0.666  -0.483  -1.227  0.00  0.00    +0.019 C 
ATOM      8  C   UNL     1       1.908  -1.012  -1.218  0.00  0.00    +0.015 C 
ATOM      9  N   UNL     1       2.622  -1.096  -0.058  0.00  0.00    -0.296 N 
ATOM     10  C   UNL     1       1.990  -0.990   1.153  0.00  0.00    +0.017 C 
ATOM     11  C   UNL     1       0.760  -0.462   1.243  0.00  0.00    +0.038 C 
ATOM     12  C   UNL     1       2.686  -1.472   2.399  0.00  0.00    +0.061 C 
ATOM     13  C   UNL     1       2.512  -1.516  -2.503  0.00  0.00    +0.061 C 
BRANCH   7  14
ATOM     14  C   UNL     1      -0.045  -0.419  -2.436  0.00  0.00    +0.158 C 
ATOM     15  O   UNL     1       0.354   0.291  -3.339  0.00  0.00    -0.293 OA
ATOM     16  C   UNL     1      -1.302  -1.230  -2.615  0.00  0.00    +0.091 C 
ENDBRANCH   7  14
BRANCH   9  17
ATOM     17  C   UNL     1       4.072  -1.300  -0.107  0.00  0.00    +0.230 C 
BRANCH  17  18
ATOM     18  C   UNL     1       4.771   0.030   0.005  0.00  0.00    +0.325 C 
ATOM     19  O   UNL     1       4.124   1.045   0.115  0.00  0.00    -0.249 OA
BRANCH  18  20
ATOM     20  O   UNL     1       6.112   0.088  -0.018  0.00  0.00    -0.461 OA
BRANCH  20  21
ATOM     21  C   UNL     1       6.707   1.382   0.093  0.00  0.00    +0.170 C 
ATOM     22  C   UNL     1       8.070   1.259   0.777  0.00  0.00    +0.052 C 
ATOM     23  C   UNL     1       6.890   1.980  -1.303  0.00  0.00    +0.052 C 
ENDBRANCH  20  21
ENDBRANCH  18  20
ENDBRANCH  17  18
ENDBRANCH   9  17
ENDBRANCH   1  11
BRANCH   3  24
ATOM     24  C   UNL     1      -1.745   0.240   3.933  0.00  0.00    +0.104 C 
BRANCH  24  25
ATOM     25  C   UNL     1      -1.295   1.522   4.637  0.00  0.00    +0.060 C 
BRANCH  25  26
ATOM     26  C   UNL     1       0.183   1.446   4.923  0.00  0.00    -0.046 A 
ATOM     27  C   UNL     1       0.628   0.903   6.114  0.00  0.00    +0.004 A 
ATOM     28  C   UNL     1       1.984   0.833   6.378  0.00  0.00    +0.000 A 
ATOM     29  C   UNL     1       2.893   1.304   5.449  0.00  0.00    +0.000 A 
ATOM     30  C   UNL     1       2.448   1.845   4.258  0.00  0.00    +0.000 A 
ATOM     31  C   UNL     1       1.093   1.912   3.993  0.00  0.00    +0.004 A 
ENDBRANCH  25  26
ENDBRANCH  24  25
BRANCH  24  32
ATOM     32  C   UNL     1      -3.264   0.264   3.753  0.00  0.00    +0.118 C 
BRANCH  32  33
ATOM     33  O   UNL     1      -3.644   1.456   3.064  0.00  0.00    -0.392 OA
ATOM     34  H   UNL     1      -3.398   2.271   3.522  0.00  0.00    +0.210 HD
ENDBRANCH  32  33
BRANCH  32  35
ATOM     35  C   UNL     1      -3.940   0.231   5.125  0.00  0.00    -0.049 C 
BRANCH  35  36
ATOM     36  N   UNL     1      -5.396   0.133   4.952  0.00  0.00    +0.383 N 
ATOM     37  H   UNL     1      -5.727   0.932   4.433  0.00  0.00    -0.085 HD
ATOM     38  H   UNL     1      -5.618  -0.712   4.447  0.00  0.00    -0.085 HD
BRANCH  36  39
ATOM     39  C   UNL     1      -6.045   0.101   6.269  0.00  0.00    -0.072 C 
ATOM     40  C   UNL     1      -6.816  -1.165   6.647  0.00  0.00    -0.017 C 
ATOM     41  C   UNL     1      -7.574   0.118   6.304  0.00  0.00    -0.017 C 
ENDBRANCH  36  39
ENDBRANCH  35  36
ENDBRANCH  32  35
ENDBRANCH  24  32
ENDBRANCH   3  24
TORSDOF 14
