REMARK  Name = ZINC38337298
REMARK  18 active torsions:
REMARK  status: ('A' for Active; 'I' for Inactive)
REMARK    1  A    between atoms: C_1  and  C_2
REMARK    2  A    between atoms: C_2  and  C_4
REMARK    3  A    between atoms: C_2  and  N_10
REMARK    4  A    between atoms: N_6  and  C_7
REMARK    5  A    between atoms: C_7  and  C_8
REMARK    6  A    between atoms: C_8  and  N_9
REMARK    7  A    between atoms: C_11  and  C_13
REMARK    8  A    between atoms: C_13  and  C_15
REMARK    9  A    between atoms: C_13  and  N_26
REMARK   10  A    between atoms: C_15  and  C_16
REMARK   11  A    between atoms: C_27  and  C_29
REMARK   12  A    between atoms: C_29  and  C_31
REMARK   13  A    between atoms: C_29  and  C_35
REMARK   14  A    between atoms: C_31  and  C_32
REMARK   15  A    between atoms: C_32  and  C_33
REMARK   16  A    between atoms: C_32  and  C_34
REMARK   17  A    between atoms: C_35  and  C_36
REMARK   18  A    between atoms: N_38  and  O_39
REMARK                            x       y       z     vdW  Elec       q    Type
REMARK                         _______ _______ _______ _____ _____    ______ ____
ROOT
ATOM      1  C   UNL     1       0.630  -2.267   3.972  0.00  0.00    +0.163 C 
ENDROOT
BRANCH   1   3
ATOM      2  N   UNL     1       0.858  -1.850   1.545  0.00  0.00    -0.303 N 
ATOM      3  C   UNL     1       0.118  -1.722   2.664  0.00  0.00    +0.234 C 
ATOM      4  O   UNL     1      -0.960  -1.168   2.618  0.00  0.00    -0.274 OA
ATOM      5  H   UNL     1       1.720  -2.293   1.581  0.00  0.00    +0.149 HD
BRANCH   2   7
ATOM      6  C   UNL     1       0.718   0.163   0.163  0.00  0.00    +0.038 C 
ATOM      7  C   UNL     1       0.360  -1.320   0.273  0.00  0.00    +0.156 C 
BRANCH   7   8
ATOM      8  C   UNL     1       0.993  -2.075  -0.868  0.00  0.00    +0.233 C 
ATOM      9  O   UNL     1       1.782  -2.968  -0.641  0.00  0.00    -0.274 OA
ATOM     10  N   UNL     1       0.681  -1.758  -2.140  0.00  0.00    -0.316 N 
ATOM     11  H   UNL     1       0.050  -1.044  -2.322  0.00  0.00    +0.149 HD
BRANCH  10  12
ATOM     12  C   UNL     1       1.296  -2.492  -3.249  0.00  0.00    +0.085 C 
BRANCH  12  13
ATOM     13  C   UNL     1       0.776  -1.939  -4.578  0.00  0.00    -0.067 C 
BRANCH  13  14
ATOM     14  N   UNL     1       1.393  -2.675  -5.689  0.00  0.00    +0.379 N 
ATOM     15  H   UNL     1       2.395  -2.567  -5.649  0.00  0.00    -0.090 HD
ATOM     16  H   UNL     1       1.157  -3.653  -5.617  0.00  0.00    -0.090 HD
ATOM     17  H   UNL     1       1.050  -2.310  -6.566  0.00  0.00    -0.090 HD
ENDBRANCH  13  14
ENDBRANCH  12  13
ENDBRANCH  10  12
ENDBRANCH   7   8
ENDBRANCH   2   7
ENDBRANCH   1   3
BRANCH   1  18
ATOM     18  N   UNL     1      -0.190  -1.750   5.071  0.00  0.00    -0.303 N 
ATOM     19  C   UNL     1       0.400  -1.219   6.160  0.00  0.00    +0.217 C 
ATOM     20  O   UNL     1       1.605  -1.090   6.195  0.00  0.00    -0.275 OA
ATOM     21  H   UNL     1      -1.157  -1.791   5.014  0.00  0.00    +0.149 HD
BRANCH  19  22
ATOM     22  C   UNL     1      -0.439  -0.784   7.334  0.00  0.00    +0.084 C 
BRANCH  22  23
ATOM     23  C   UNL     1      -1.261   0.446   6.946  0.00  0.00    +0.016 C 
BRANCH  23  24
ATOM     24  C   UNL     1      -2.250   0.772   8.067  0.00  0.00    -0.016 C 
ATOM     25  C   UNL     1      -2.979   2.078   7.740  0.00  0.00    +0.007 C 
ATOM     26  C   UNL     1      -3.269  -0.362   8.195  0.00  0.00    +0.007 C 
ENDBRANCH  23  24
ENDBRANCH  22  23
BRANCH  22  27
ATOM     27  C   UNL     1       0.474  -0.437   8.512  0.00  0.00    +0.110 C 
BRANCH  27  28
ATOM     28  C   UNL     1      -0.301  -0.550   9.799  0.00  0.00    +0.236 C 
ATOM     29  O   UNL     1      -1.415  -1.030   9.796  0.00  0.00    -0.274 OA
ATOM     30  N   UNL     1       0.243  -0.119  10.954  0.00  0.00    -0.197 N 
ATOM     31  H   UNL     1       1.134   0.265  10.957  0.00  0.00    +0.182 HD
BRANCH  30  32
ATOM     32  O   UNL     1      -0.486  -0.225  12.164  0.00  0.00    -0.295 OA
ATOM     33  H   UNL     1      -0.014   0.111  12.938  0.00  0.00    +0.241 HD
ENDBRANCH  30  32
ENDBRANCH  27  28
ENDBRANCH  22  27
ENDBRANCH  19  22
ENDBRANCH   1  18
BRANCH   1  34
ATOM     34  C   UNL     1       0.554  -3.795   3.953  0.00  0.00    +0.067 C 
BRANCH  34  35
ATOM     35  C   UNL     1       1.178  -4.345   5.210  0.00  0.00    -0.037 A 
ATOM     36  C   UNL     1       2.484  -4.730   5.213  0.00  0.00    +0.004 A 
ATOM     37  C   UNL     1       3.079  -5.240   6.364  0.00  0.00    +0.001 A 
ATOM     38  C   UNL     1       2.371  -5.370   7.520  0.00  0.00    +0.008 A 
ATOM     39  C   UNL     1       1.021  -4.982   7.556  0.00  0.00    -0.018 A 
ATOM     40  C   UNL     1       0.418  -4.457   6.386  0.00  0.00    -0.015 A 
ATOM     41  C   UNL     1      -0.931  -4.064   6.423  0.00  0.00    +0.009 A 
ATOM     42  C   UNL     1      -1.637  -4.188   7.580  0.00  0.00    +0.001 A 
ATOM     43  C   UNL     1      -1.042  -4.698   8.732  0.00  0.00    +0.001 A 
ATOM     44  C   UNL     1       0.258  -5.101   8.730  0.00  0.00    +0.008 A 
ENDBRANCH  34  35
ENDBRANCH   1  34
TORSDOF 15
