REMARK  Name = ZINC06392250
REMARK  5 active torsions:
REMARK  status: ('A' for Active; 'I' for Inactive)
REMARK    1  A    between atoms: C_3  and  N_22
REMARK    2  A    between atoms: C_6  and  C_7
REMARK    3  A    between atoms: C_10  and  C_16
REMARK    4  A    between atoms: C_11  and  N_15
REMARK    5  A    between atoms: C_12  and  C_13
REMARK                            x       y       z     vdW  Elec       q    Type
REMARK                         _______ _______ _______ _____ _____    ______ ____
ROOT
ATOM      1  C   UNL     1      -4.207   0.657  -0.009  0.00  0.00    +0.005 A 
ATOM      2  C   UNL     1      -2.835   0.936   0.002  0.00  0.00    -0.034 A 
ATOM      3  C   UNL     1      -2.209   1.258   1.180  0.00  0.00    -0.024 A 
ATOM      4  C   UNL     1      -2.943   1.300   2.377  0.00  0.00    +0.077 A 
ATOM      5  C   UNL     1      -4.316   1.022   2.383  0.00  0.00    +0.061 A 
ATOM      6  C   UNL     1      -4.956   0.699   1.178  0.00  0.00    +0.082 A 
ATOM      7  C   UNL     1      -0.739   1.584   1.256  0.00  0.00    +0.037 C 
ATOM      8  C   UNL     1      -0.013   1.086   0.008  0.00  0.00    +0.005 C 
ATOM      9  C   UNL     1      -0.765   1.599  -1.225  0.00  0.00    +0.005 C 
ATOM     10  C   UNL     1      -2.101   0.865  -1.313  0.00  0.00    +0.036 C 
ENDROOT
BRANCH   1  16
ATOM     11  C   UNL     1      -4.966   1.264  -2.304  0.00  0.00    +0.011 A 
ATOM     12  C   UNL     1      -5.586   0.938  -3.493  0.00  0.00    +0.033 A 
ATOM     13  C   UNL     1      -6.125  -0.324  -3.672  0.00  0.00    +0.126 A 
ATOM     14  C   UNL     1      -6.043  -1.267  -2.663  0.00  0.00    +0.033 A 
ATOM     15  C   UNL     1      -5.422  -0.954  -1.472  0.00  0.00    +0.011 A 
ATOM     16  C   UNL     1      -4.875   0.316  -1.286  0.00  0.00    -0.016 A 
BRANCH  13  17
ATOM     17  N   UNL     1      -6.793  -0.665  -4.948  0.00  0.00    +0.056 N 
ATOM     18  O   UNL     1      -7.269  -1.775  -5.109  0.00  0.00    -0.126 OA
ATOM     19  O   UNL     1      -6.867   0.163  -5.838  0.00  0.00    -0.126 OA
ENDBRANCH  13  17
ENDBRANCH   1  16
BRANCH   5  20
ATOM     20  N   UNL     1      -5.033   1.066   3.566  0.00  0.00    -0.356 N 
ATOM     21  H   UNL     1      -4.586   1.289   4.397  0.00  0.00    +0.142 HD
ATOM     22  H   UNL     1      -5.984   0.872   3.564  0.00  0.00    +0.142 HD
ENDBRANCH   5  20
BRANCH   6  23
ATOM     23  C   UNL     1      -6.359   0.414   1.158  0.00  0.00    +0.102 C 
ATOM     24  N   UNL     1      -7.473   0.189   1.142  0.00  0.00    -0.191 NA
ENDBRANCH   6  23
BRANCH   4  25
ATOM     25  C   UNL     1      -2.282   1.630   3.604  0.00  0.00    +0.101 C 
ATOM     26  N   UNL     1      -1.757   1.892   4.577  0.00  0.00    -0.191 NA
ENDBRANCH   4  25
TORSDOF 5
