REMARK  Name = ZINC40348516
REMARK  7 active torsions:
REMARK  status: ('A' for Active; 'I' for Inactive)
REMARK    1  A    between atoms: C_1  and  C_2
REMARK    2  A    between atoms: C_2  and  C_4
REMARK    3  A    between atoms: C_2  and  N_10
REMARK    4  A    between atoms: C_4  and  C_5
REMARK    5  A    between atoms: N_10  and  S_11
REMARK    6  A    between atoms: S_11  and  C_14
REMARK    7  A    between atoms: C_19  and  N_20
REMARK                            x       y       z     vdW  Elec       q    Type
REMARK                         _______ _______ _______ _____ _____    ______ ____
ROOT
ATOM      1  S   UNL     1      -2.000  -1.000   1.389  0.00  0.00    +0.060 S 
ATOM      2  O   UNL     1      -3.263  -1.615   1.173  0.00  0.00    -0.153 OA
ATOM      3  O   UNL     1      -0.898  -1.701   1.950  0.00  0.00    -0.153 OA
ENDROOT
BRANCH   1   4
ATOM      4  C   UNL     1      -2.289   0.396   2.424  0.00  0.00    +0.128 A 
ATOM      5  C   UNL     1      -1.523   0.587   3.557  0.00  0.00    +0.068 A 
ATOM      6  C   UNL     1      -1.750   1.684   4.370  0.00  0.00    +0.125 A 
ATOM      7  C   UNL     1      -2.745   2.592   4.050  0.00  0.00    +0.040 A 
ATOM      8  C   UNL     1      -3.514   2.405   2.918  0.00  0.00    +0.027 A 
ATOM      9  C   UNL     1      -3.284   1.308   2.097  0.00  0.00    +0.051 A 
ATOM     10  F   UNL     1      -1.000   1.869   5.479  0.00  0.00    -0.205 F 
BRANCH   9  11
ATOM     11  N   UNL     1      -4.057   1.120   0.947  0.00  0.00    -0.356 N 
ATOM     12  H   UNL     1      -3.866   0.380   0.350  0.00  0.00    +0.142 HD
ATOM     13  H   UNL     1      -4.784   1.730   0.746  0.00  0.00    +0.142 HD
ENDBRANCH   9  11
ENDBRANCH   1   4
BRANCH   1  14
ATOM     14  N   UNL     1      -1.496  -0.425  -0.080  0.00  0.00    -0.187 NA
ATOM     15  H   UNL     1      -2.040  -0.569  -0.870  0.00  0.00    +0.148 HD
BRANCH  14  17
ATOM     16  C   UNL     1      -0.503   1.754  -0.575  0.00  0.00    +0.026 C 
ATOM     17  C   UNL     1      -0.228   0.300  -0.187  0.00  0.00    +0.081 C 
BRANCH  17  18
ATOM     18  C   UNL     1       0.647  -0.356  -1.256  0.00  0.00    +0.094 C 
BRANCH  18  19
ATOM     19  C   UNL     1       1.020  -1.748  -0.815  0.00  0.00    +0.106 A 
ATOM     20  C   UNL     1       0.325  -2.869  -1.077  0.00  0.00    +0.044 A 
ATOM     21  C   UNL     1       1.031  -3.938  -0.478  0.00  0.00    +0.041 A 
ATOM     22  C   UNL     1       2.115  -3.406   0.115  0.00  0.00    +0.195 A 
ATOM     23  O   UNL     1       2.106  -2.080  -0.097  0.00  0.00    -0.468 OA
ENDBRANCH  18  19
ENDBRANCH  17  18
ENDBRANCH  14  17
ENDBRANCH   1  14
TORSDOF 6
