REMARK  Name = ZINC03261306
REMARK  9 active torsions:
REMARK  status: ('A' for Active; 'I' for Inactive)
REMARK    1  A    between atoms: C_1  and  O_2
REMARK    2  A    between atoms: O_2  and  C_3
REMARK    3  A    between atoms: C_8  and  N_9
REMARK    4  A    between atoms: N_9  and  S_10
REMARK    5  A    between atoms: S_10  and  C_13
REMARK    6  A    between atoms: C_16  and  C_19
REMARK    7  A    between atoms: C_19  and  O_21
REMARK    8  A    between atoms: O_21  and  C_22
REMARK    9  A    between atoms: C_22  and  C_23
REMARK                            x       y       z     vdW  Elec       q    Type
REMARK                         _______ _______ _______ _____ _____    ______ ____
ROOT
ATOM      1  C   UNL     1      -1.556   2.388  -1.771  0.00  0.00    +0.109 A 
ATOM      2  C   UNL     1      -1.078   3.656  -2.049  0.00  0.00    +0.029 A 
ATOM      3  C   UNL     1      -1.145   4.156  -3.333  0.00  0.00    +0.017 A 
ATOM      4  C   UNL     1      -1.707   3.383  -4.351  0.00  0.00    +0.059 A 
ATOM      5  C   UNL     1      -2.193   2.106  -4.062  0.00  0.00    +0.017 A 
ATOM      6  C   UNL     1      -2.114   1.617  -2.775  0.00  0.00    +0.029 A 
ENDROOT
BRANCH   1   7
ATOM      7  S   UNL     1      -1.460   1.755  -0.129  0.00  0.00    +0.072 S 
ATOM      8  O   UNL     1      -2.474   0.766  -0.016  0.00  0.00    -0.150 OA
ATOM      9  O   UNL     1      -1.393   2.880   0.736  0.00  0.00    -0.150 OA
BRANCH   7  10
ATOM     10  N   UNL     1      -0.011   0.966   0.007  0.00  0.00    -0.213 N 
ATOM     11  H   UNL     1       0.007   0.019   0.216  0.00  0.00    +0.174 HD
BRANCH  10  17
ATOM     12  C   UNL     1       2.270   1.038  -0.796  0.00  0.00    +0.142 A 
ATOM     13  C   UNL     1       3.453   1.734  -0.982  0.00  0.00    +0.047 A 
ATOM     14  C   UNL     1       3.557   3.047  -0.561  0.00  0.00    +0.004 A 
ATOM     15  C   UNL     1       2.482   3.669   0.046  0.00  0.00    +0.002 A 
ATOM     16  C   UNL     1       1.297   2.983   0.232  0.00  0.00    +0.028 A 
ATOM     17  C   UNL     1       1.187   1.664  -0.183  0.00  0.00    +0.090 A 
BRANCH  12  19
ATOM     18  C   UNL     1       3.317  -0.830  -1.830  0.00  0.00    +0.277 C 
ATOM     19  O   UNL     1       2.167  -0.253  -1.210  0.00  0.00    -0.493 OA
ENDBRANCH  12  19
ENDBRANCH  10  17
ENDBRANCH   7  10
ENDBRANCH   1   7
BRANCH   4  20
ATOM     20  C   UNL     1      -1.788   3.914  -5.727  0.00  0.00    +0.340 C 
ATOM     21  O   UNL     1      -2.277   3.239  -6.611  0.00  0.00    -0.245 OA
BRANCH  20  22
ATOM     22  O   UNL     1      -1.318   5.146  -6.003  0.00  0.00    -0.452 OA
BRANCH  22  23
ATOM     23  C   UNL     1      -1.430   5.603  -7.376  0.00  0.00    +0.328 C 
BRANCH  23  24
ATOM     24  C   UNL     1      -0.858   6.992  -7.492  0.00  0.00    +0.254 C 
ATOM     25  O   UNL     1      -0.401   7.543  -6.514  0.00  0.00    -0.272 OA
ATOM     26  N   UNL     1      -0.854   7.622  -8.684  0.00  0.00    -0.294 N 
ATOM     27  C   UNL     1      -0.302   8.979  -8.831  0.00  0.00    +0.113 C 
ATOM     28  C   UNL     1       0.911   8.895  -9.756  0.00  0.00    +0.054 C 
ATOM     29  C   UNL     1       0.592   8.086 -10.986  0.00  0.00    -0.041 A 
ATOM     30  C   UNL     1       1.410   8.255 -12.097  0.00  0.00    +0.004 A 
ATOM     31  C   UNL     1       1.179   7.540 -13.254  0.00  0.00    +0.000 A 
ATOM     32  C   UNL     1       0.125   6.646 -13.311  0.00  0.00    +0.000 A 
ATOM     33  C   UNL     1      -0.690   6.479 -12.210  0.00  0.00    +0.005 A 
ATOM     34  C   UNL     1      -0.461   7.202 -11.047  0.00  0.00    -0.027 A 
ATOM     35  C   UNL     1      -1.393   6.980  -9.888  0.00  0.00    +0.143 C 
ENDBRANCH  23  24
ENDBRANCH  22  23
ENDBRANCH  20  22
ENDBRANCH   4  20
TORSDOF 8
