REMARK  Name = ZINC04973411
REMARK  6 active torsions:
REMARK  status: ('A' for Active; 'I' for Inactive)
REMARK    1  A    between atoms: C_1  and  C_2
REMARK    2  A    between atoms: C_2  and  C_3
REMARK    3  A    between atoms: C_3  and  N_4
REMARK    4  A    between atoms: C_5  and  C_7
REMARK    5  A    between atoms: C_7  and  N_8
REMARK    6  A    between atoms: C_12  and  C_25
REMARK                            x       y       z     vdW  Elec       q    Type
REMARK                         _______ _______ _______ _____ _____    ______ ____
ROOT
ATOM      1  N   UNL     1       2.466   3.649  -0.002  0.00  0.00    -0.325 N 
ATOM      2  C   UNL     1       1.164   3.196   0.008  0.00  0.00    +0.052 A 
ATOM      3  C   UNL     1      -0.063   3.857   0.024  0.00  0.00    +0.027 A 
ATOM      4  C   UNL     1      -1.233   3.131   0.032  0.00  0.00    +0.005 A 
ATOM      5  C   UNL     1      -1.204   1.744   0.017  0.00  0.00    -0.050 A 
ATOM      6  C   UNL     1      -0.013   1.076   0.008  0.00  0.00    +0.015 A 
ATOM      7  C   UNL     1       1.186   1.791   0.000  0.00  0.00    +0.026 A 
ATOM      8  C   UNL     1       2.600   1.397  -0.015  0.00  0.00    +0.105 A 
ATOM      9  C   UNL     1       3.344   2.575  -0.016  0.00  0.00    +0.134 A 
ATOM     10  C   UNL     1       4.746   2.487  -0.030  0.00  0.00    +0.279 A 
ATOM     11  O   UNL     1       5.419   3.504  -0.031  0.00  0.00    -0.265 OA
ATOM     12  N   UNL     1       5.360   1.261  -0.042  0.00  0.00    -0.285 N 
ATOM     13  C   UNL     1       4.555   0.159  -0.041  0.00  0.00    +0.172 A 
ATOM     14  N   UNL     1       3.244   0.221  -0.028  0.00  0.00    -0.221 NA
ATOM     15  S   UNL     1       5.628  -1.262  -0.059  0.00  0.00    -0.086 S 
ATOM     16  C   UNL     1       7.248  -0.410  -0.069  0.00  0.00    +0.099 C 
ATOM     17  C   UNL     1       6.809   1.061  -0.057  0.00  0.00    +0.138 C 
ATOM     18  C   UNL     1      -2.497   0.969   0.019  0.00  0.00    +0.044 C 
ENDROOT
BRANCH   1  19
ATOM     19  C   UNL     1       2.864   5.059   0.001  0.00  0.00    +0.218 C 
BRANCH  19  21
ATOM     20  N   UNL     1       3.377   6.809   1.673  0.00  0.00    -0.314 N 
ATOM     21  C   UNL     1       3.014   5.535   1.423  0.00  0.00    +0.233 C 
ATOM     22  O   UNL     1       2.809   4.772   2.343  0.00  0.00    -0.274 OA
ATOM     23  H   UNL     1       3.540   7.419   0.937  0.00  0.00    +0.149 HD
BRANCH  20  24
ATOM     24  C   UNL     1       3.523   7.272   3.055  0.00  0.00    +0.104 C 
BRANCH  24  26
ATOM     25  C   UNL     1       4.091   9.228   4.502  0.00  0.00    +0.005 C 
ATOM     26  C   UNL     1       3.938   8.744   3.058  0.00  0.00    +0.015 C 
ENDBRANCH  24  26
ENDBRANCH  20  24
ENDBRANCH  19  21
ENDBRANCH   1  19
TORSDOF 4
