REMARK  Name = ZINC07303997
REMARK  10 active torsions:
REMARK  status: ('A' for Active; 'I' for Inactive)
REMARK    1  A    between atoms: C_1  and  C_2
REMARK    2  A    between atoms: C_4  and  C_28
REMARK    3  A    between atoms: C_5  and  S_9
REMARK    4  A    between atoms: C_6  and  C_8
REMARK    5  A    between atoms: S_9  and  N_12
REMARK    6  A    between atoms: N_12  and  C_13
REMARK    7  A    between atoms: N_12  and  C_14
REMARK    8  A    between atoms: C_14  and  C_15
REMARK    9  A    between atoms: N_17  and  C_18
REMARK   10  A    between atoms: C_23  and  C_24
REMARK                            x       y       z     vdW  Elec       q    Type
REMARK                         _______ _______ _______ _____ _____    ______ ____
ROOT
ATOM      1  C   UNL     1      -0.590   2.506   0.302  0.00  0.00    +0.205 C 
ENDROOT
BRANCH   1   2
ATOM      2  C   UNL     1      -0.726   2.872   1.757  0.00  0.00    +0.233 C 
ATOM      3  O   UNL     1      -0.044   2.312   2.590  0.00  0.00    -0.274 OA
ATOM      4  N   UNL     1      -1.605   3.821   2.134  0.00  0.00    -0.284 N 
ATOM      5  H   UNL     1      -2.104   4.314   1.464  0.00  0.00    +0.155 HD
BRANCH   4   6
ATOM      6  C   UNL     1      -1.798   4.097   3.492  0.00  0.00    +0.045 A 
ATOM      7  C   UNL     1      -0.738   3.985   4.383  0.00  0.00    +0.024 A 
ATOM      8  C   UNL     1      -0.931   4.262   5.722  0.00  0.00    +0.002 A 
ATOM      9  C   UNL     1      -2.181   4.641   6.178  0.00  0.00    +0.001 A 
ATOM     10  C   UNL     1      -3.239   4.748   5.295  0.00  0.00    +0.014 A 
ATOM     11  C   UNL     1      -3.052   4.477   3.954  0.00  0.00    +0.076 A 
BRANCH  11  12
ATOM     12  C   UNL     1      -4.206   4.593   2.992  0.00  0.00    +0.419 C 
ATOM     13  F   UNL     1      -5.354   4.987   3.687  0.00  0.00    -0.166 F 
ATOM     14  F   UNL     1      -3.903   5.545   2.013  0.00  0.00    -0.166 F 
ATOM     15  F   UNL     1      -4.432   3.354   2.383  0.00  0.00    -0.166 F 
ENDBRANCH  11  12
ENDBRANCH   4   6
ENDBRANCH   1   2
BRANCH   1  16
ATOM     16  N   UNL     1       0.423   1.457   0.155  0.00  0.00    -0.171 NA
ATOM     17  C   UNL     1       1.839   1.817   0.046  0.00  0.00    +0.132 C 
BRANCH  16  18
ATOM     18  S   UNL     1      -0.033  -0.134   0.105  0.00  0.00    +0.062 S 
ATOM     19  O   UNL     1      -1.387  -0.155  -0.326  0.00  0.00    -0.153 OA
ATOM     20  O   UNL     1       0.996  -0.830  -0.584  0.00  0.00    -0.153 OA
BRANCH  18  25
ATOM     21  C   UNL     1       0.001  -2.178   5.782  0.00  0.00    +0.044 C 
ATOM     22  C   UNL     1      -0.008  -1.667   4.364  0.00  0.00    -0.050 A 
ATOM     23  C   UNL     1       1.148  -1.709   3.607  0.00  0.00    +0.008 A 
ATOM     24  C   UNL     1       1.141  -1.241   2.307  0.00  0.00    -0.024 A 
ATOM     25  C   UNL     1      -0.023  -0.731   1.762  0.00  0.00    +0.111 A 
ATOM     26  C   UNL     1      -1.178  -0.684   2.521  0.00  0.00    -0.024 A 
ATOM     27  C   UNL     1      -1.172  -1.157   3.820  0.00  0.00    +0.008 A 
ATOM     28  C   UNL     1      -2.446  -0.122   1.930  0.00  0.00    +0.046 C 
ATOM     29  C   UNL     1       2.401  -1.287   1.482  0.00  0.00    +0.046 C 
ENDBRANCH  18  25
ENDBRANCH  16  18
ENDBRANCH   1  16
TORSDOF 6
