REMARK  Name = ZINC12026704
REMARK  6 active torsions:
REMARK  status: ('A' for Active; 'I' for Inactive)
REMARK    1  A    between atoms: C_1  and  C_2
REMARK    2  A    between atoms: C_3  and  C_20
REMARK    3  A    between atoms: C_11  and  C_13
REMARK    4  A    between atoms: N_22  and  C_23
REMARK    5  A    between atoms: C_23  and  C_24
REMARK    6  A    between atoms: C_24  and  N_65
REMARK                            x       y       z     vdW  Elec       q    Type
REMARK                         _______ _______ _______ _____ _____    ______ ____
ROOT
ATOM      1  C   UNL     1      -6.386  -2.118  -0.337  0.00  0.00    +0.066 C 
ATOM      2  C   UNL     1      -6.049  -0.662  -0.136  0.00  0.00    +0.057 A 
ATOM      3  C   UNL     1      -6.946   0.358   0.104  0.00  0.00    +0.077 A 
ATOM      4  C   UNL     1      -6.198   1.552   0.223  0.00  0.00    +0.148 A 
ATOM      5  N   UNL     1      -4.937   1.257   0.068  0.00  0.00    -0.171 NA
ATOM      6  N   UNL     1      -4.817  -0.119  -0.153  0.00  0.00    -0.202 N 
ATOM      7  C   UNL     1      -3.623  -0.811  -0.362  0.00  0.00    +0.252 A 
ATOM      8  N   UNL     1      -3.663  -2.119  -0.560  0.00  0.00    -0.219 NA
ATOM      9  C   UNL     1      -2.553  -2.812  -0.763  0.00  0.00    +0.117 A 
ATOM     10  C   UNL     1      -1.337  -2.153  -0.772  0.00  0.00    +0.048 A 
ATOM     11  C   UNL     1      -1.327  -0.772  -0.555  0.00  0.00    +0.079 A 
ATOM     12  N   UNL     1      -2.483  -0.142  -0.358  0.00  0.00    -0.211 NA
ENDROOT
BRANCH  11  13
ATOM     13  C   UNL     1      -0.049  -0.020  -0.550  0.00  0.00    +0.036 A 
ATOM     14  C   UNL     1       1.164  -0.700  -0.639  0.00  0.00    +0.013 A 
ATOM     15  C   UNL     1       2.350   0.005  -0.635  0.00  0.00    +0.001 A 
ATOM     16  C   UNL     1       2.338   1.385  -0.542  0.00  0.00    +0.003 A 
ATOM     17  C   UNL     1       1.139   2.068  -0.453  0.00  0.00    +0.039 A 
ATOM     18  C   UNL     1      -0.056   1.373  -0.457  0.00  0.00    +0.133 A 
ATOM     19  F   UNL     1      -1.228   2.040  -0.370  0.00  0.00    -0.205 F 
ENDBRANCH  11  13
BRANCH   3  20
ATOM     20  C   UNL     1      -8.410   0.229   0.211  0.00  0.00    +0.247 C 
ATOM     21  O   UNL     1      -8.935  -0.861   0.089  0.00  0.00    -0.270 OA
ATOM     22  N   UNL     1      -9.168   1.319   0.444  0.00  0.00    -0.313 N 
ATOM     23  H   UNL     1      -8.749   2.189   0.542  0.00  0.00    +0.149 HD
BRANCH  22  24
ATOM     24  C   UNL     1     -10.623   1.191   0.551  0.00  0.00    +0.092 C 
BRANCH  24  25
ATOM     25  C   UNL     1     -11.248   2.580   0.700  0.00  0.00    -0.050 C 
ATOM     26  C   UNL     1     -10.917   3.443  -0.535  0.00  0.00    -0.010 C 
ATOM     27  C   UNL     1     -10.696   4.864   0.044  0.00  0.00    -0.001 C 
ATOM     28  C   UNL     1      -9.966   4.579   1.381  0.00  0.00    -0.001 C 
ATOM     29  C   UNL     1     -10.644   3.301   1.917  0.00  0.00    -0.010 C 
BRANCH  25  35
ATOM     30  C   UNL     1     -13.045   1.774   2.107  0.00  0.00    -0.078 C 
ATOM     31  C   UNL     1     -14.562   1.798   2.307  0.00  0.00    -0.019 C 
ATOM     32  C   UNL     1     -15.239   1.105   1.121  0.00  0.00    -0.004 C 
ATOM     33  C   UNL     1     -14.829   1.811  -0.174  0.00  0.00    -0.019 C 
ATOM     34  C   UNL     1     -13.304   1.787  -0.302  0.00  0.00    -0.078 C 
ATOM     35  N   UNL     1     -12.714   2.490   0.857  0.00  0.00    +0.384 N 
ATOM     36  H   UNL     1     -13.104   3.439   0.903  0.00  0.00    -0.081 HD
ENDBRANCH  25  35
ENDBRANCH  24  25
ENDBRANCH  22  24
ENDBRANCH   3  20
TORSDOF 5
