REMARK  Name = ZINC64352970
REMARK  9 active torsions:
REMARK  status: ('A' for Active; 'I' for Inactive)
REMARK    1  A    between atoms: C_1  and  C_2
REMARK    2  A    between atoms: C_2  and  C_4
REMARK    3  A    between atoms: C_2  and  N_18
REMARK    4  A    between atoms: C_4  and  C_6
REMARK    5  A    between atoms: C_15  and  C_17
REMARK    6  A    between atoms: N_18  and  C_19
REMARK    7  A    between atoms: C_19  and  C_20
REMARK    8  A    between atoms: C_20  and  C_22
REMARK    9  A    between atoms: C_20  and  C_28
REMARK                            x       y       z     vdW  Elec       q    Type
REMARK                         _______ _______ _______ _____ _____    ______ ____
ROOT
ATOM      1  N   UNL     1      -1.376  -0.512   0.012  0.00  0.00    -0.306 NA
ATOM      2  H   UNL     1      -1.974   0.053  -0.571  0.00  0.00    +0.123 HD
ENDROOT
BRANCH   1   4
ATOM      3  C   UNL     1      -0.019   1.526   0.010  0.00  0.00    +0.032 C 
ATOM      4  C   UNL     1       0.002  -0.004   0.002  0.00  0.00    +0.122 C 
BRANCH   4   5
ATOM      5  C   UNL     1       0.707  -0.490  -1.238  0.00  0.00    +0.180 C 
ATOM      6  O   UNL     1       0.063  -0.868  -2.194  0.00  0.00    -0.290 OA
BRANCH   5   7
ATOM      7  C   UNL     1       2.175  -0.506  -1.289  0.00  0.00    +0.019 A 
ATOM      8  C   UNL     1       2.925  -0.077  -0.187  0.00  0.00    +0.013 A 
ATOM      9  C   UNL     1       4.286  -0.092  -0.236  0.00  0.00    +0.024 A 
ATOM     10  C   UNL     1       4.954  -0.536  -1.384  0.00  0.00    +0.040 A 
ATOM     11  C   UNL     1       4.212  -0.963  -2.479  0.00  0.00    -0.024 A 
ATOM     12  C   UNL     1       2.836  -0.957  -2.438  0.00  0.00    +0.017 A 
ATOM     13  C   UNL     1       5.169  -1.384  -3.572  0.00  0.00    +0.056 C 
ATOM     14  C   UNL     1       6.565  -1.148  -2.973  0.00  0.00    +0.118 C 
ATOM     15  N   UNL     1       6.322  -0.626  -1.626  0.00  0.00    -0.271 N 
ATOM     16  C   UNL     1       7.285  -0.281  -0.748  0.00  0.00    +0.217 C 
ATOM     17  O   UNL     1       8.453  -0.396  -1.052  0.00  0.00    -0.276 OA
ATOM     18  C   UNL     1       6.909   0.246   0.613  0.00  0.00    +0.109 C 
ENDBRANCH   5   7
ENDBRANCH   4   5
ENDBRANCH   1   4
BRANCH   1  19
ATOM     19  C   UNL     1      -1.898  -0.590   1.383  0.00  0.00    +0.094 C 
BRANCH  19  20
ATOM     20  C   UNL     1      -3.332  -1.123   1.353  0.00  0.00    +0.061 C 
BRANCH  20  21
ATOM     21  C   UNL     1      -3.825  -1.318   2.764  0.00  0.00    -0.033 C 
ATOM     22  C   UNL     1      -4.234  -2.477   3.329  0.00  0.00    -0.000 A 
ATOM     23  C   UNL     1      -4.341  -3.849   2.819  0.00  0.00    +0.010 A 
ATOM     24  C   UNL     1      -4.797  -4.821   3.641  0.00  0.00    +0.001 A 
ATOM     25  C   UNL     1      -5.170  -4.552   4.965  0.00  0.00    +0.002 A 
ATOM     26  C   UNL     1      -5.101  -3.317   5.505  0.00  0.00    +0.026 A 
ATOM     27  C   UNL     1      -4.635  -2.219   4.731  0.00  0.00    +0.043 A 
ATOM     28  N   UNL     1      -4.479  -0.950   5.021  0.00  0.00    -0.380 N 
ATOM     29  C   UNL     1      -3.955  -0.260   3.837  0.00  0.00    +0.145 C 
ATOM     30  H   UNL     1      -4.673  -0.537   5.877  0.00  0.00    +0.160 HD
ENDBRANCH  20  21
BRANCH  20  31
ATOM     31  C   UNL     1      -4.221  -0.134   0.644  0.00  0.00    -0.039 A 
ATOM     32  C   UNL     1      -4.348   1.154   1.130  0.00  0.00    +0.004 A 
ATOM     33  C   UNL     1      -5.163   2.062   0.478  0.00  0.00    +0.000 A 
ATOM     34  C   UNL     1      -5.850   1.681  -0.659  0.00  0.00    +0.000 A 
ATOM     35  C   UNL     1      -5.722   0.393  -1.145  0.00  0.00    +0.000 A 
ATOM     36  C   UNL     1      -4.904  -0.513  -0.496  0.00  0.00    +0.004 A 
ENDBRANCH  20  31
ENDBRANCH  19  20
ENDBRANCH   1  19
TORSDOF 7
