REMARK  Name = ZINC21731623
REMARK  11 active torsions:
REMARK  status: ('A' for Active; 'I' for Inactive)
REMARK    1  A    between atoms: C_1  and  C_2
REMARK    2  A    between atoms: C_2  and  C_3
REMARK    3  A    between atoms: C_3  and  N_4
REMARK    4  A    between atoms: N_4  and  C_5
REMARK    5  A    between atoms: C_5  and  C_6
REMARK    6  A    between atoms: C_9  and  C_11
REMARK    7  A    between atoms: C_16  and  C_18
REMARK    8  A    between atoms: C_18  and  S_19
REMARK    9  A    between atoms: S_19  and  C_20
REMARK   10  A    between atoms: N_25  and  C_26
REMARK   11  A    between atoms: C_26  and  C_27
REMARK                            x       y       z     vdW  Elec       q    Type
REMARK                         _______ _______ _______ _____ _____    ______ ____
ROOT
ATOM      1  N   UNL     1       3.807   8.049   1.393  0.00  0.00    -0.292 N 
ATOM      2  C   UNL     1       4.691   7.245   2.015  0.00  0.00    +0.226 C 
ATOM      3  O   UNL     1       5.153   6.286   1.433  0.00  0.00    -0.275 OA
ENDROOT
BRANCH   1   4
ATOM      4  C   UNL     1       3.249   9.207   2.096  0.00  0.00    +0.108 C 
BRANCH   4   6
ATOM      5  C   UNL     1       1.388  10.003   3.560  0.00  0.00    +0.005 C 
ATOM      6  C   UNL     1       1.970   8.793   2.826  0.00  0.00    +0.016 C 
ENDBRANCH   4   6
ENDBRANCH   1   4
BRANCH   1   7
ATOM      7  C   UNL     1       3.403   7.765   0.014  0.00  0.00    +0.205 C 
BRANCH   7   8
ATOM      8  C   UNL     1       2.196   6.863   0.019  0.00  0.00    +0.235 A 
ATOM      9  N   UNL     1       0.950   7.245   0.033  0.00  0.00    -0.110 NA
ATOM     10  N   UNL     1       0.182   6.213   0.034  0.00  0.00    -0.107 NA
ATOM     11  C   UNL     1       0.920   5.124   0.021  0.00  0.00    +0.255 A 
ATOM     12  O   UNL     1       2.211   5.518   0.017  0.00  0.00    -0.418 OA
BRANCH  11  13
ATOM     13  C   UNL     1       0.430   3.737   0.018  0.00  0.00    +0.076 A 
ATOM     14  C   UNL     1      -0.872   3.273   0.028  0.00  0.00    +0.021 A 
ATOM     15  C   UNL     1      -1.082   1.914   0.017  0.00  0.00    +0.008 A 
ATOM     16  C   UNL     1      -0.013   1.076   0.008  0.00  0.00    +0.046 A 
ATOM     17  S   UNL     1       1.362   2.215   0.001  0.00  0.00    -0.092 S 
ENDBRANCH  11  13
ENDBRANCH   7   8
ENDBRANCH   1   7
BRANCH   2  18
ATOM     18  C   UNL     1       5.107   7.537   3.434  0.00  0.00    +0.172 C 
BRANCH  18  19
ATOM     19  S   UNL     1       6.298   6.285   3.985  0.00  0.00    -0.088 S 
BRANCH  19  20
ATOM     20  C   UNL     1       6.681   6.759   5.638  0.00  0.00    +0.160 A 
ATOM     21  N   UNL     1       6.227   7.779   6.342  0.00  0.00    -0.133 NA
ATOM     22  N   UNL     1       6.663   7.967   7.633  0.00  0.00    -0.125 NA
ATOM     23  C   UNL     1       7.532   7.128   8.162  0.00  0.00    +0.182 A 
ATOM     24  S   UNL     1       7.781   5.984   6.813  0.00  0.00    -0.025 S 
ATOM     25  N   UNL     1       8.098   7.130   9.431  0.00  0.00    -0.320 N 
ATOM     26  H   UNL     1       8.815   6.346   9.714  0.00  0.00    +0.148 HD
BRANCH  25  27
ATOM     27  C   UNL     1       7.740   8.177  10.392  0.00  0.00    +0.135 C 
BRANCH  27  28
ATOM     28  C   UNL     1       8.497   7.948  11.701  0.00  0.00    +0.135 C 
ATOM     29  C   UNL     1       8.042   8.966  12.770  0.00  0.00    +0.035 C 
ATOM     30  C   UNL     1       9.337   9.306  13.541  0.00  0.00    +0.031 C 
ATOM     31  C   UNL     1      10.422   8.454  12.846  0.00  0.00    +0.160 C 
ATOM     32  O   UNL     1       9.906   8.210  11.519  0.00  0.00    -0.375 OA
ENDBRANCH  27  28
ENDBRANCH  25  27
ENDBRANCH  19  20
ENDBRANCH  18  19
ENDBRANCH   2  18
TORSDOF 10
