REMARK  Name = ZINC12426920
REMARK  8 active torsions:
REMARK  status: ('A' for Active; 'I' for Inactive)
REMARK    1  A    between atoms: C_1  and  N_2
REMARK    2  A    between atoms: C_6  and  C_8
REMARK    3  A    between atoms: C_8  and  C_10
REMARK    4  A    between atoms: C_8  and  O_16
REMARK    5  A    between atoms: O_16  and  C_17
REMARK    6  A    between atoms: C_17  and  C_19
REMARK    7  A    between atoms: C_19  and  C_20
REMARK    8  A    between atoms: C_27  and  C_32
REMARK                            x       y       z     vdW  Elec       q    Type
REMARK                         _______ _______ _______ _____ _____    ______ ____
ROOT
ATOM      1  C   UNL     1      -3.499   7.111   4.574  0.00  0.00    +0.310 C 
ATOM      2  O   UNL     1      -4.298   6.400   5.137  0.00  0.00    -0.251 OA
ENDROOT
BRANCH   1   3
ATOM      3  O   UNL     1      -2.437   6.569   3.956  0.00  0.00    -0.447 OA
BRANCH   3   4
ATOM      4  C   UNL     1      -2.313   5.123   4.005  0.00  0.00    +0.292 C 
BRANCH   4  10
ATOM      5  C   UNL     1      -0.013   1.086   0.008  0.00  0.00    +0.129 C 
ATOM      6  N   UNL     1      -0.698   1.558   1.213  0.00  0.00    -0.302 N 
ATOM      7  C   UNL     1      -0.838   2.880   1.435  0.00  0.00    +0.306 C 
ATOM      8  O   UNL     1      -0.394   3.681   0.635  0.00  0.00    -0.252 OA
ATOM      9  N   UNL     1      -1.468   3.315   2.544  0.00  0.00    -0.237 N 
ATOM     10  C   UNL     1      -1.607   4.637   2.766  0.00  0.00    +0.266 C 
ATOM     11  O   UNL     1      -1.165   5.435   1.968  0.00  0.00    -0.271 OA
ATOM     12  H   UNL     1      -1.052   0.920   1.852  0.00  0.00    +0.150 HD
ATOM     13  H   UNL     1      -1.822   2.676   3.182  0.00  0.00    +0.159 HD
ENDBRANCH   4  10
BRANCH   4  14
ATOM     14  C   UNL     1      -1.517   4.729   5.223  0.00  0.00    +0.002 A 
ATOM     15  C   UNL     1      -0.476   5.527   5.657  0.00  0.00    +0.008 A 
ATOM     16  C   UNL     1       0.251   5.167   6.777  0.00  0.00    +0.000 A 
ATOM     17  C   UNL     1      -0.058   4.004   7.457  0.00  0.00    +0.000 A 
ATOM     18  C   UNL     1      -1.097   3.203   7.020  0.00  0.00    +0.000 A 
ATOM     19  C   UNL     1      -1.826   3.565   5.903  0.00  0.00    +0.008 A 
ENDBRANCH   4  14
ENDBRANCH   3   4
ENDBRANCH   1   3
BRANCH   1  20
ATOM     20  C   UNL     1      -3.694   8.605   4.565  0.00  0.00    +0.144 C 
BRANCH  20  21
ATOM     21  C   UNL     1      -4.970   8.957   5.333  0.00  0.00    +0.148 C 
ATOM     22  C   UNL     1      -5.235  10.436   5.223  0.00  0.00    +0.231 C 
ATOM     23  O   UNL     1      -6.036  10.818   4.396  0.00  0.00    -0.274 OA
ATOM     24  N   UNL     1      -4.635  11.342   5.988  0.00  0.00    -0.284 N 
ATOM     25  C   UNL     1      -3.784  11.091   7.060  0.00  0.00    +0.047 A 
ATOM     26  C   UNL     1      -2.974  12.117   7.537  0.00  0.00    +0.036 A 
ATOM     27  C   UNL     1      -2.114  11.891   8.594  0.00  0.00    +0.057 A 
ATOM     28  C   UNL     1      -2.046  10.644   9.188  0.00  0.00    +0.013 A 
ATOM     29  C   UNL     1      -2.848   9.617   8.727  0.00  0.00    +0.017 A 
ATOM     30  C   UNL     1      -3.716   9.840   7.671  0.00  0.00    +0.030 A 
ATOM     31  S   UNL     1      -4.760   8.539   7.091  0.00  0.00    -0.110 S 
ATOM     32  H   UNL     1      -4.807  12.273   5.777  0.00  0.00    +0.155 HD
BRANCH  27  33
ATOM     33  C   UNL     1      -1.242  13.011   9.102  0.00  0.00    +0.417 C 
ATOM     34  F   UNL     1      -0.463  12.548  10.167  0.00  0.00    -0.166 F 
ATOM     35  F   UNL     1      -0.407  13.456   8.072  0.00  0.00    -0.166 F 
ATOM     36  F   UNL     1      -2.048  14.067   9.539  0.00  0.00    -0.166 F 
ENDBRANCH  27  33
ENDBRANCH  20  21
ENDBRANCH   1  20
TORSDOF 7
