REMARK  Name = ZINC11297232
REMARK  8 active torsions:
REMARK  status: ('A' for Active; 'I' for Inactive)
REMARK    1  A    between atoms: C_1  and  C_2
REMARK    2  A    between atoms: C_2  and  C_4
REMARK    3  A    between atoms: C_2  and  S_11
REMARK    4  A    between atoms: N_9  and  C_10
REMARK    5  A    between atoms: S_11  and  C_12
REMARK    6  A    between atoms: C_16  and  C_19
REMARK    7  A    between atoms: N_27  and  C_28
REMARK    8  A    between atoms: C_28  and  C_29
REMARK                            x       y       z     vdW  Elec       q    Type
REMARK                         _______ _______ _______ _____ _____    ______ ____
ROOT
ATOM      1  C   UNL     1      -2.365  -0.093  -1.525  0.00  0.00    +0.174 A 
ATOM      2  N   UNL     1      -1.608   0.597  -2.354  0.00  0.00    -0.216 NA
ATOM      3  C   UNL     1      -2.082   1.016  -3.522  0.00  0.00    +0.117 A 
ATOM      4  C   UNL     1      -3.400   0.748  -3.930  0.00  0.00    +0.080 A 
ATOM      5  C   UNL     1      -3.760   1.281  -5.241  0.00  0.00    +0.004 A 
ATOM      6  C   UNL     1      -2.830   1.970  -5.942  0.00  0.00    +0.056 A 
ATOM      7  S   UNL     1      -1.403   1.943  -4.874  0.00  0.00    -0.076 S 
ATOM      8  C   UNL     1      -4.197  -0.002  -3.012  0.00  0.00    +0.264 A 
ATOM      9  O   UNL     1      -5.353  -0.281  -3.282  0.00  0.00    -0.267 OA
ATOM     10  N   UNL     1      -3.655  -0.401  -1.847  0.00  0.00    -0.283 N 
ENDROOT
BRANCH   5  11
ATOM     11  C   UNL     1      -5.119   1.071  -5.794  0.00  0.00    -0.017 A 
ATOM     12  C   UNL     1      -5.679  -0.205  -5.809  0.00  0.00    +0.008 A 
ATOM     13  C   UNL     1      -6.945  -0.395  -6.324  0.00  0.00    +0.001 A 
ATOM     14  C   UNL     1      -7.659   0.679  -6.826  0.00  0.00    +0.000 A 
ATOM     15  C   UNL     1      -7.108   1.948  -6.814  0.00  0.00    +0.001 A 
ATOM     16  C   UNL     1      -5.845   2.151  -6.296  0.00  0.00    +0.008 A 
ENDBRANCH   5  11
BRANCH   1  17
ATOM     17  S   UNL     1      -1.700  -0.632   0.015  0.00  0.00    -0.075 S 
BRANCH  17  19
ATOM     18  C   UNL     1      -0.019   1.526   0.010  0.00  0.00    +0.029 C 
ATOM     19  C   UNL     1       0.002  -0.004   0.002  0.00  0.00    +0.137 C 
BRANCH  19  20
ATOM     20  C   UNL     1       0.731  -0.503   1.223  0.00  0.00    +0.233 C 
ATOM     21  O   UNL     1       0.105  -0.891   2.186  0.00  0.00    -0.274 OA
ATOM     22  N   UNL     1       2.079  -0.519   1.244  0.00  0.00    -0.239 N 
ATOM     23  C   UNL     1       2.730  -0.965   2.336  0.00  0.00    +0.306 C 
ATOM     24  O   UNL     1       2.103  -1.354   3.301  0.00  0.00    -0.252 OA
ATOM     25  N   UNL     1       4.078  -0.981   2.357  0.00  0.00    -0.302 N 
ATOM     26  C   UNL     1       4.786  -1.466   3.544  0.00  0.00    +0.129 C 
ATOM     27  H   UNL     1       2.579  -0.208   0.473  0.00  0.00    +0.159 HD
ATOM     28  H   UNL     1       4.579  -0.670   1.586  0.00  0.00    +0.150 HD
ENDBRANCH  19  20
ENDBRANCH  17  19
ENDBRANCH   1  17
BRANCH  10  29
ATOM     29  C   UNL     1      -4.465  -1.176  -0.904  0.00  0.00    +0.154 C 
BRANCH  29  30
ATOM     30  C   UNL     1      -5.183  -0.237   0.031  0.00  0.00    -0.013 C 
ATOM     31  C   UNL     1      -6.486  -0.301   0.150  0.00  0.00    +0.005 C 
ENDBRANCH  29  30
ENDBRANCH  10  29
TORSDOF 6
