REMARK  Name = ZINC57481606
REMARK  9 active torsions:
REMARK  status: ('A' for Active; 'I' for Inactive)
REMARK    1  A    between atoms: C_1  and  C_2
REMARK    2  A    between atoms: C_4  and  C_33
REMARK    3  A    between atoms: C_8  and  N_32
REMARK    4  A    between atoms: C_9  and  C_11
REMARK    5  A    between atoms: C_11  and  O_13
REMARK    6  A    between atoms: O_13  and  C_14
REMARK    7  A    between atoms: C_14  and  C_15
REMARK    8  A    between atoms: N_17  and  N_18
REMARK    9  A    between atoms: C_19  and  C_21
REMARK                            x       y       z     vdW  Elec       q    Type
REMARK                         _______ _______ _______ _____ _____    ______ ____
ROOT
ATOM      1  C   UNL     1       3.599  -1.324   5.949  0.00  0.00    +0.329 C 
ENDROOT
BRANCH   1   2
ATOM      2  C   UNL     1       4.308  -2.539   6.491  0.00  0.00    +0.267 C 
ATOM      3  O   UNL     1       4.064  -3.636   6.035  0.00  0.00    -0.271 OA
ATOM      4  N   UNL     1       5.212  -2.406   7.481  0.00  0.00    -0.231 N 
ATOM      5  H   UNL     1       5.407  -1.528   7.845  0.00  0.00    +0.173 HD
BRANCH   4   6
ATOM      6  N   UNL     1       5.871  -3.535   7.985  0.00  0.00    -0.231 N 
ATOM      7  C   UNL     1       6.775  -3.402   8.975  0.00  0.00    +0.273 C 
ATOM      8  O   UNL     1       7.018  -2.304   9.431  0.00  0.00    -0.270 OA
ATOM      9  H   UNL     1       5.676  -4.413   7.621  0.00  0.00    +0.173 HD
BRANCH   7  10
ATOM     10  C   UNL     1       7.484  -4.617   9.517  0.00  0.00    +0.297 C 
ATOM     11  C   UNL     1       6.472  -5.538  10.212  0.00  0.00    +0.283 C 
ATOM     12  O   UNL     1       7.179  -6.672  10.726  0.00  0.00    -0.484 OA
ATOM     13  C   UNL     1       8.334  -6.419  11.401  0.00  0.00    +0.162 A 
ATOM     14  C   UNL     1       8.871  -7.399  12.223  0.00  0.00    +0.049 A 
ATOM     15  C   UNL     1      10.044  -7.157  12.912  0.00  0.00    +0.004 A 
ATOM     16  C   UNL     1      10.685  -5.939  12.785  0.00  0.00    +0.004 A 
ATOM     17  C   UNL     1      10.155  -4.958  11.969  0.00  0.00    +0.049 A 
ATOM     18  C   UNL     1       8.977  -5.193  11.275  0.00  0.00    +0.163 A 
ATOM     19  O   UNL     1       8.462  -4.214  10.482  0.00  0.00    -0.472 OA
ENDBRANCH   7  10
ENDBRANCH   4   6
ENDBRANCH   1   2
BRANCH   1  20
ATOM     20  O   UNL     1       2.697  -1.721   4.914  0.00  0.00    -0.451 OA
BRANCH  20  21
ATOM     21  C   UNL     1       1.979  -0.745   4.319  0.00  0.00    +0.348 C 
ATOM     22  O   UNL     1       2.116   0.412   4.672  0.00  0.00    -0.244 OA
BRANCH  21  31
ATOM     23  C   UNL     1      -1.696   1.372   0.766  0.00  0.00    +0.044 C 
ATOM     24  C   UNL     1      -1.521  -0.123   0.688  0.00  0.00    -0.037 A 
ATOM     25  C   UNL     1      -2.240  -0.864  -0.221  0.00  0.00    +0.025 A 
ATOM     26  C   UNL     1      -2.078  -2.239  -0.290  0.00  0.00    +0.014 A 
ATOM     27  N   UNL     1      -1.231  -2.853   0.513  0.00  0.00    -0.353 N 
ATOM     28  C   UNL     1      -0.520  -2.189   1.399  0.00  0.00    +0.088 A 
ATOM     29  C   UNL     1      -0.609  -0.786   1.546  0.00  0.00    +0.030 A 
ATOM     30  C   UNL     1       0.254  -0.216   2.569  0.00  0.00    +0.055 A 
ATOM     31  C   UNL     1       1.067  -1.067   3.287  0.00  0.00    +0.119 A 
ATOM     32  S   UNL     1       0.683  -2.671   2.612  0.00  0.00    -0.062 S 
ATOM     33  C   UNL     1      -2.873  -3.037  -1.291  0.00  0.00    +0.063 C 
ATOM     34  H   UNL     1      -1.131  -3.816   0.450  0.00  0.00    +0.166 HD
BRANCH  30  35
ATOM     35  N   UNL     1       0.258   1.149   2.816  0.00  0.00    -0.356 N 
ATOM     36  H   UNL     1       0.106   1.774   2.090  0.00  0.00    +0.142 HD
ATOM     37  H   UNL     1       0.414   1.479   3.715  0.00  0.00    +0.142 HD
ENDBRANCH  30  35
ENDBRANCH  21  31
ENDBRANCH  20  21
ENDBRANCH   1  20
TORSDOF 7
