REMARK  Name = ZINC15730945
REMARK  7 active torsions:
REMARK  status: ('A' for Active; 'I' for Inactive)
REMARK    1  A    between atoms: C_1  and  C_2
REMARK    2  A    between atoms: C_5  and  N_9
REMARK    3  A    between atoms: C_7  and  C_8
REMARK    4  A    between atoms: N_9  and  C_10
REMARK    5  A    between atoms: N_9  and  S_11
REMARK    6  A    between atoms: S_11  and  C_14
REMARK    7  A    between atoms: C_24  and  C_27
REMARK                            x       y       z     vdW  Elec       q    Type
REMARK                         _______ _______ _______ _____ _____    ______ ____
ROOT
ATOM      1  C   UNL     1      -0.969   1.951  -1.395  0.00  0.00    +0.111 A 
ATOM      2  C   UNL     1      -0.762   3.210  -1.930  0.00  0.00    +0.030 A 
ATOM      3  C   UNL     1      -1.496   3.632  -3.024  0.00  0.00    +0.018 A 
ATOM      4  C   UNL     1      -2.439   2.787  -3.583  0.00  0.00    +0.029 A 
ATOM      5  C   UNL     1      -2.648   1.518  -3.047  0.00  0.00    +0.049 A 
ATOM      6  C   UNL     1      -1.907   1.101  -1.954  0.00  0.00    +0.053 A 
ATOM      7  N   UNL     1      -3.604   0.671  -3.629  0.00  0.00    -0.284 N 
ATOM      8  C   UNL     1      -3.595   0.450  -4.949  0.00  0.00    +0.218 C 
ATOM      9  O   UNL     1      -4.534  -0.121  -5.462  0.00  0.00    -0.275 OA
ATOM     10  C   UNL     1      -2.446   0.893  -5.805  0.00  0.00    +0.110 C 
ATOM     11  C   UNL     1      -2.693   2.313  -6.344  0.00  0.00    +0.057 C 
ATOM     12  S   UNL     1      -3.391   3.299  -4.977  0.00  0.00    -0.120 S 
ATOM     13  C   UNL     1      -1.373   2.930  -6.809  0.00  0.00    +0.020 C 
ATOM     14  H   UNL     1      -4.274   0.246  -3.072  0.00  0.00    +0.155 HD
ENDROOT
BRANCH   1  15
ATOM     15  S   UNL     1      -0.030   1.425  -0.001  0.00  0.00    +0.075 S 
ATOM     16  O   UNL     1      -0.025   0.004  -0.027  0.00  0.00    -0.150 OA
ATOM     17  O   UNL     1       1.167   2.191  -0.005  0.00  0.00    -0.150 OA
BRANCH  15  18
ATOM     18  N   UNL     1      -0.872   1.871   1.353  0.00  0.00    -0.206 N 
ATOM     19  C   UNL     1      -0.566   3.138   2.022  0.00  0.00    +0.157 C 
BRANCH  18  24
ATOM     20  C   UNL     1      -4.939  -1.506   3.405  0.00  0.00    +0.044 C 
ATOM     21  C   UNL     1      -3.859  -0.609   2.859  0.00  0.00    -0.047 A 
ATOM     22  C   UNL     1      -2.557  -1.068   2.777  0.00  0.00    +0.005 A 
ATOM     23  C   UNL     1      -1.564  -0.248   2.278  0.00  0.00    +0.025 A 
ATOM     24  C   UNL     1      -1.874   1.039   1.858  0.00  0.00    +0.051 A 
ATOM     25  C   UNL     1      -3.182   1.499   1.946  0.00  0.00    +0.028 A 
ATOM     26  C   UNL     1      -4.171   0.672   2.442  0.00  0.00    -0.046 A 
ATOM     27  C   UNL     1      -5.591   1.168   2.533  0.00  0.00    +0.044 C 
ENDBRANCH  18  24
ENDBRANCH  15  18
ENDBRANCH   1  15
TORSDOF 3
