REMARK  Name = ZINC35542200
REMARK  11 active torsions:
REMARK  status: ('A' for Active; 'I' for Inactive)
REMARK    1  A    between atoms: C_1  and  C_2
REMARK    2  A    between atoms: C_2  and  C_3
REMARK    3  A    between atoms: C_3  and  C_5
REMARK    4  A    between atoms: C_3  and  N_6
REMARK    5  A    between atoms: N_9  and  C_10
REMARK    6  A    between atoms: C_11  and  C_23
REMARK    7  A    between atoms: N_13  and  C_16
REMARK    8  A    between atoms: C_14  and  N_15
REMARK    9  A    between atoms: C_23  and  C_24
REMARK   10  A    between atoms: C_23  and  C_25
REMARK   11  A    between atoms: C_23  and  C_26
REMARK                            x       y       z     vdW  Elec       q    Type
REMARK                         _______ _______ _______ _____ _____    ______ ____
ROOT
ATOM      1  C   UNL     1       0.447   0.224  -6.168  0.00  0.00    +0.098 A 
ATOM      2  C   UNL     1       0.025   1.106  -7.171  0.00  0.00    +0.092 A 
ATOM      3  N   UNL     1       1.082   1.553  -7.803  0.00  0.00    -0.167 NA
ATOM      4  N   UNL     1       2.221   0.974  -7.229  0.00  0.00    -0.217 N 
ATOM      5  C   UNL     1       1.810   0.160  -6.216  0.00  0.00    +0.142 A 
ENDROOT
BRANCH   4   6
ATOM      6  C   UNL     1       3.548   1.196  -7.623  0.00  0.00    +0.068 A 
ATOM      7  C   UNL     1       4.562   1.208  -6.675  0.00  0.00    +0.030 A 
ATOM      8  C   UNL     1       5.868   1.427  -7.065  0.00  0.00    +0.040 A 
ATOM      9  C   UNL     1       6.168   1.634  -8.401  0.00  0.00    +0.124 A 
ATOM     10  C   UNL     1       5.158   1.623  -9.348  0.00  0.00    +0.040 A 
ATOM     11  C   UNL     1       3.851   1.399  -8.963  0.00  0.00    +0.030 A 
ATOM     12  F   UNL     1       7.446   1.849  -8.780  0.00  0.00    -0.205 F 
ENDBRANCH   4   6
BRANCH   1  16
ATOM     13  N   UNL     1      -0.726  -2.251  -3.794  0.00  0.00    -0.297 N 
ATOM     14  C   UNL     1       0.013  -1.647  -4.745  0.00  0.00    +0.304 C 
ATOM     15  O   UNL     1       1.042  -2.165  -5.135  0.00  0.00    -0.252 OA
ATOM     16  N   UNL     1      -0.387  -0.470  -5.264  0.00  0.00    -0.265 N 
ATOM     17  H   UNL     1      -1.547  -1.838  -3.483  0.00  0.00    +0.151 HD
ATOM     18  H   UNL     1      -1.249  -0.099  -5.018  0.00  0.00    +0.157 HD
BRANCH  13  19
ATOM     19  C   UNL     1      -0.291  -3.530  -3.230  0.00  0.00    +0.071 C 
ATOM     20  C   UNL     1      -0.775  -4.673  -4.124  0.00  0.00    +0.028 C 
BRANCH  19  22
ATOM     21  C   UNL     1      -0.298  -2.626  -0.900  0.00  0.00    +0.005 C 
ATOM     22  C   UNL     1      -0.879  -3.696  -1.827  0.00  0.00    +0.019 C 
ENDBRANCH  19  22
ENDBRANCH  13  19
ENDBRANCH   1  16
BRANCH   2  23
ATOM     23  C   UNL     1      -1.404   1.479  -7.471  0.00  0.00    +0.008 C 
ATOM     24  C   UNL     1      -2.033   2.126  -6.236  0.00  0.00    +0.017 C 
ATOM     25  C   UNL     1      -1.438   2.468  -8.638  0.00  0.00    +0.017 C 
ATOM     26  C   UNL     1      -2.191   0.222  -7.845  0.00  0.00    +0.017 C 
ENDBRANCH   2  23
BRANCH   5  27
ATOM     27  N   UNL     1       2.631  -0.602  -5.384  0.00  0.00    -0.342 N 
ATOM     28  H   UNL     1       2.294  -0.924  -4.533  0.00  0.00    +0.144 HD
ATOM     29  H   UNL     1       3.538  -0.810  -5.656  0.00  0.00    +0.144 HD
ENDBRANCH   5  27
TORSDOF 6
