REMARK  Name = ZINC43299573
REMARK  2 active torsions:
REMARK  status: ('A' for Active; 'I' for Inactive)
REMARK    1  A    between atoms: C_3  and  C_9
REMARK    2  A    between atoms: C_9  and  C_11
REMARK                            x       y       z     vdW  Elec       q    Type
REMARK                         _______ _______ _______ _____ _____    ______ ____
ROOT
ATOM      1  C   UNL     1       3.651   2.159  -0.022  0.00  0.00    +0.169 C 
ATOM      2  O   UNL     1       4.708   1.564  -0.035  0.00  0.00    -0.292 OA
ENDROOT
BRANCH   1   5
ATOM      3  C   UNL     1      -0.017   1.382   0.010  0.00  0.00    +0.021 A 
ATOM      4  C   UNL     1       1.165   2.091   0.002  0.00  0.00    +0.014 A 
ATOM      5  C   UNL     1       2.386   1.409  -0.013  0.00  0.00    +0.036 A 
ATOM      6  C   UNL     1       2.398   0.008  -0.021  0.00  0.00    +0.053 A 
ATOM      7  C   UNL     1       1.207  -0.688  -0.013  0.00  0.00    +0.040 A 
ATOM      8  C   UNL     1       0.002  -0.004   0.002  0.00  0.00    +0.042 A 
ATOM      9 CL   UNL     1      -1.492  -0.888   0.012  0.00  0.00    -0.083 Cl
ATOM     10 CL   UNL     1       3.907  -0.849  -0.041  0.00  0.00    -0.083 Cl
ENDBRANCH   1   5
BRANCH   1  11
ATOM     11  C   UNL     1       3.633   3.666  -0.014  0.00  0.00    +0.083 C 
ATOM     12  C   UNL     1       3.522   4.191  -1.455  0.00  0.00    +0.035 C 
ATOM     13  C   UNL     1       3.823   5.709  -1.488  0.00  0.00    +0.166 C 
ATOM     14  S   UNL     1       4.956   5.926  -0.055  0.00  0.00    -0.030 S 
ATOM     15  O   UNL     1       6.255   6.242  -0.537  0.00  0.00    -0.174 OA
ATOM     16  O   UNL     1       4.337   6.780   0.898  0.00  0.00    -0.174 OA
ATOM     17  C   UNL     1       4.960   4.203   0.596  0.00  0.00    +0.177 C 
ENDBRANCH   1  11
TORSDOF 2
