REMARK  Name = ZINC67451147
REMARK  8 active torsions:
REMARK  status: ('A' for Active; 'I' for Inactive)
REMARK    1  A    between atoms: C_3  and  C_7
REMARK    2  A    between atoms: C_8  and  C_13
REMARK    3  A    between atoms: C_13  and  N_14
REMARK    4  A    between atoms: N_14  and  C_15
REMARK    5  A    between atoms: C_15  and  C_16
REMARK    6  A    between atoms: C_16  and  N_17
REMARK    7  A    between atoms: C_18  and  C_20
REMARK    8  A    between atoms: C_23  and  C_26
REMARK                            x       y       z     vdW  Elec       q    Type
REMARK                         _______ _______ _______ _____ _____    ______ ____
ROOT
ATOM      1  N   UNL     1       5.270  -0.746   0.806  0.00  0.00    +0.383 N 
ATOM      2  H   UNL     1       4.582  -0.860   0.076  0.00  0.00    -0.085 HD
ATOM      3  H   UNL     1       6.184  -0.637   0.392  0.00  0.00    -0.085 HD
ENDROOT
BRANCH   1   4
ATOM      4  C   UNL     1       4.947   0.446   1.602  0.00  0.00    -0.043 C 
BRANCH   4   6
ATOM      5  C   UNL     1       3.755   1.942  -0.157  0.00  0.00    +0.095 A 
ATOM      6  C   UNL     1       4.837   1.642   0.693  0.00  0.00    -0.019 A 
ATOM      7  C   UNL     1       5.759   2.619   0.548  0.00  0.00    +0.107 A 
ATOM      8  N   UNL     1       5.289   3.506  -0.355  0.00  0.00    -0.284 N 
ATOM      9  H   UNL     1       5.743   4.309  -0.653  0.00  0.00    +0.188 HD
ATOM     10  N   UNL     1       4.034   3.062  -0.790  0.00  0.00    -0.174 NA
BRANCH   5  13
ATOM     11  C   UNL     1       0.733  -0.160   0.599  0.00  0.00    +0.020 A 
ATOM     12  C   UNL     1       1.882   0.586   0.800  0.00  0.00    +0.013 A 
ATOM     13  C   UNL     1       2.520   1.134  -0.316  0.00  0.00    +0.020 A 
ATOM     14  C   UNL     1       1.978   0.910  -1.580  0.00  0.00    +0.120 A 
ATOM     15  N   UNL     1       0.881   0.194  -1.722  0.00  0.00    -0.263 NA
ATOM     16  C   UNL     1       0.257  -0.337  -0.688  0.00  0.00    +0.111 A 
ENDBRANCH   5  13
ENDBRANCH   4   6
ENDBRANCH   1   4
BRANCH   1  17
ATOM     17  C   UNL     1       5.264  -1.931   1.674  0.00  0.00    -0.063 C 
BRANCH  17  18
ATOM     18  C   UNL     1       5.600  -3.172   0.845  0.00  0.00    +0.085 C 
BRANCH  18  19
ATOM     19  N   UNL     1       5.594  -4.354   1.711  0.00  0.00    -0.313 N 
ATOM     20  C   UNL     1       5.865  -5.569   1.194  0.00  0.00    +0.244 C 
ATOM     21  O   UNL     1       6.115  -5.684   0.010  0.00  0.00    -0.270 OA
ATOM     22  H   UNL     1       5.395  -4.262   2.656  0.00  0.00    +0.149 HD
BRANCH  20  23
ATOM     23  C   UNL     1       5.859  -6.762   2.068  0.00  0.00    +0.037 A 
ATOM     24  C   UNL     1       5.567  -6.634   3.427  0.00  0.00    +0.013 A 
ATOM     25  C   UNL     1       5.563  -7.751   4.237  0.00  0.00    +0.013 A 
ATOM     26  C   UNL     1       5.847  -8.996   3.704  0.00  0.00    +0.055 A 
ATOM     27  C   UNL     1       6.138  -9.130   2.358  0.00  0.00    +0.013 A 
ATOM     28  C   UNL     1       6.140  -8.022   1.536  0.00  0.00    +0.013 A 
BRANCH  26  29
ATOM     29  C   UNL     1       5.841 -10.212   4.595  0.00  0.00    +0.417 C 
ATOM     30  F   UNL     1       4.559 -10.770   4.613  0.00  0.00    -0.166 F 
ATOM     31  F   UNL     1       6.753 -11.153   4.106  0.00  0.00    -0.166 F 
ATOM     32  F   UNL     1       6.206  -9.840   5.894  0.00  0.00    -0.166 F 
ENDBRANCH  26  29
ENDBRANCH  20  23
ENDBRANCH  18  19
ENDBRANCH  17  18
ENDBRANCH   1  17
TORSDOF 8
