REMARK  Name = ZINC12498127
REMARK  10 active torsions:
REMARK  status: ('A' for Active; 'I' for Inactive)
REMARK    1  A    between atoms: C_1  and  C_2
REMARK    2  A    between atoms: C_2  and  C_3
REMARK    3  A    between atoms: C_3  and  C_4
REMARK    4  A    between atoms: C_4  and  C_30
REMARK    5  A    between atoms: C_9  and  C_11
REMARK    6  A    between atoms: N_18  and  C_21
REMARK    7  A    between atoms: C_25  and  C_27
REMARK    8  A    between atoms: C_27  and  C_29
REMARK    9  A    between atoms: C_30  and  O_32
REMARK   10  A    between atoms: O_32  and  C_33
REMARK                            x       y       z     vdW  Elec       q    Type
REMARK                         _______ _______ _______ _____ _____    ______ ____
ROOT
ATOM      1  C   UNL     1       2.099  -3.889   0.025  0.00  0.00    +0.044 C 
ATOM      2  C   UNL     1       3.084  -3.552  -1.034  0.00  0.00    +0.086 C 
ATOM      3  C   UNL     1       2.624  -2.092  -1.425  0.00  0.00    +0.078 C 
ATOM      4  C   UNL     1       2.564  -1.514  -0.031  0.00  0.00    -0.020 C 
ATOM      5  C   UNL     1       3.667  -1.825  -2.442  0.00  0.00    +0.229 C 
ATOM      6  O   UNL     1       4.220  -0.771  -2.670  0.00  0.00    -0.275 OA
ATOM      7  N   UNL     1       3.875  -3.026  -3.069  0.00  0.00    -0.210 N 
ATOM      8  C   UNL     1       3.358  -4.084  -2.366  0.00  0.00    +0.229 C 
ATOM      9  O   UNL     1       3.169  -5.214  -2.764  0.00  0.00    -0.275 OA
ATOM     10  N   UNL     1       1.858  -2.593   0.723  0.00  0.00    +0.396 N 
ATOM     11  H   UNL     1       2.223  -2.642   1.681  0.00  0.00    -0.083 HD
ATOM     12  H   UNL     1       0.851  -2.395   0.750  0.00  0.00    -0.083 HD
ENDROOT
BRANCH   7  13
ATOM     13  C   UNL     1       4.543  -3.157  -4.295  0.00  0.00    +0.045 A 
ATOM     14  C   UNL     1       4.711  -4.415  -4.863  0.00  0.00    +0.024 A 
ATOM     15  C   UNL     1       5.369  -4.552  -6.072  0.00  0.00    +0.003 A 
ATOM     16  C   UNL     1       5.864  -3.441  -6.723  0.00  0.00    +0.011 A 
ATOM     17  C   UNL     1       5.700  -2.171  -6.161  0.00  0.00    +0.019 A 
ATOM     18  C   UNL     1       5.030  -2.034  -4.942  0.00  0.00    +0.035 A 
BRANCH  17  19
ATOM     19  C   UNL     1       6.227  -0.983  -6.853  0.00  0.00    +0.160 C 
ATOM     20  O   UNL     1       6.084   0.117  -6.363  0.00  0.00    -0.292 OA
ATOM     21  C   UNL     1       6.944  -1.134  -8.169  0.00  0.00    +0.091 C 
ENDBRANCH  17  19
ENDBRANCH   7  13
BRANCH   4  22
ATOM     22  C   UNL     1       1.773  -0.232  -0.016  0.00  0.00    -0.023 A 
ATOM     23  C   UNL     1       2.220   1.048  -0.013  0.00  0.00    +0.009 A 
ATOM     24  C   UNL     1       1.300   2.079   0.001  0.00  0.00    +0.008 A 
ATOM     25  C   UNL     1      -0.022   1.781   0.012  0.00  0.00    +0.045 A 
ATOM     26  S   UNL     1       0.002  -0.004   0.002  0.00  0.00    -0.103 S 
ENDBRANCH   4  22
BRANCH   1  27
ATOM     27  C   UNL     1       0.824  -4.407  -0.589  0.00  0.00    +0.297 C 
ATOM     28  O   UNL     1       0.845  -4.920  -1.683  0.00  0.00    -0.252 OA
BRANCH  27  29
ATOM     29  O   UNL     1      -0.335  -4.300   0.080  0.00  0.00    -0.469 OA
ATOM     30  C   UNL     1      -1.523  -4.822  -0.573  0.00  0.00    +0.280 C 
ENDBRANCH  27  29
ENDBRANCH   1  27
BRANCH   1  31
ATOM     31  C   UNL     1       2.684  -4.922   0.990  0.00  0.00    -0.001 C 
BRANCH  31  33
ATOM     32  C   UNL     1       2.238  -6.285   3.035  0.00  0.00    +0.004 C 
ATOM     33  C   UNL     1       1.653  -5.252   2.070  0.00  0.00    -0.004 C 
ENDBRANCH  31  33
ENDBRANCH   1  31
TORSDOF 7
