REMARK  Name = ZINC36546638
REMARK  7 active torsions:
REMARK  status: ('A' for Active; 'I' for Inactive)
REMARK    1  A    between atoms: C_4  and  C_7
REMARK    2  A    between atoms: N_9  and  C_10
REMARK    3  A    between atoms: N_9  and  C_17
REMARK    4  A    between atoms: C_17  and  C_19
REMARK    5  A    between atoms: C_17  and  C_28
REMARK    6  A    between atoms: C_22  and  N_25
REMARK    7  A    between atoms: N_30  and  C_31
REMARK                            x       y       z     vdW  Elec       q    Type
REMARK                         _______ _______ _______ _____ _____    ______ ____
ROOT
ATOM      1  C   UNL     1       5.110  -2.355   0.225  0.00  0.00    +0.198 C 
ENDROOT
BRANCH   1   2
ATOM      2  C   UNL     1       4.516  -3.293  -0.794  0.00  0.00    -0.018 A 
ATOM      3  C   UNL     1       3.143  -3.384  -0.932  0.00  0.00    +0.008 A 
ATOM      4  C   UNL     1       2.598  -4.244  -1.866  0.00  0.00    +0.033 A 
ATOM      5  C   UNL     1       3.426  -5.013  -2.663  0.00  0.00    +0.126 A 
ATOM      6  C   UNL     1       4.798  -4.921  -2.526  0.00  0.00    +0.033 A 
ATOM      7  C   UNL     1       5.343  -4.058  -1.594  0.00  0.00    +0.008 A 
BRANCH   5   8
ATOM      8  N   UNL     1       2.842  -5.935  -3.663  0.00  0.00    +0.056 N 
ATOM      9  O   UNL     1       1.641  -6.015  -3.783  0.00  0.00    -0.126 OA
ATOM     10  O   UNL     1       3.565  -6.608  -4.360  0.00  0.00    -0.126 OA
ENDBRANCH   5   8
ENDBRANCH   1   2
BRANCH   1  11
ATOM     11  C   UNL     1       4.968  -2.952   1.601  0.00  0.00    +0.239 C 
ATOM     12  O   UNL     1       3.887  -2.955   2.152  0.00  0.00    -0.273 OA
ATOM     13  N   UNL     1       6.041  -3.483   2.220  0.00  0.00    -0.311 N 
ATOM     14  H   UNL     1       6.905  -3.481   1.779  0.00  0.00    +0.149 HD
BRANCH  13  15
ATOM     15  C   UNL     1       5.903  -4.064   3.558  0.00  0.00    +0.073 C 
ATOM     16  C   UNL     1       6.027  -2.960   4.609  0.00  0.00    +0.022 C 
ATOM     17  C   UNL     1       5.883  -3.566   6.006  0.00  0.00    +0.002 C 
ATOM     18  C   UNL     1       6.983  -4.607   6.226  0.00  0.00    +0.000 C 
ATOM     19  C   UNL     1       6.858  -5.711   5.175  0.00  0.00    +0.002 C 
ATOM     20  C   UNL     1       7.003  -5.105   3.778  0.00  0.00    +0.022 C 
ENDBRANCH  13  15
ENDBRANCH   1  11
BRANCH   1  23
ATOM     21  C   UNL     1       4.407  -0.346  -0.961  0.00  0.00    +0.252 C 
ATOM     22  O   UNL     1       4.930  -0.790  -1.965  0.00  0.00    -0.270 OA
ATOM     23  N   UNL     1       4.407  -1.071   0.175  0.00  0.00    -0.250 N 
BRANCH  23  24
ATOM     24  C   UNL     1       3.736  -0.596   1.308  0.00  0.00    +0.056 A 
ATOM     25  C   UNL     1       2.372  -0.815   1.451  0.00  0.00    +0.025 A 
ATOM     26  C   UNL     1       1.713  -0.345   2.570  0.00  0.00    +0.002 A 
ATOM     27  C   UNL     1       2.409   0.343   3.547  0.00  0.00    +0.002 A 
ATOM     28  C   UNL     1       3.767   0.563   3.409  0.00  0.00    +0.022 A 
ATOM     29  C   UNL     1       4.434   0.090   2.294  0.00  0.00    +0.062 A 
ATOM     30 CL   UNL     1       6.141   0.360   2.124  0.00  0.00    -0.082 Cl
ENDBRANCH  23  24
BRANCH  21  34
ATOM     31  C   UNL     1       2.578   3.487  -1.035  0.00  0.00    +0.000 A 
ATOM     32  C   UNL     1       2.348   2.594  -2.066  0.00  0.00    +0.001 A 
ATOM     33  C   UNL     1       2.938   1.347  -2.049  0.00  0.00    +0.013 A 
ATOM     34  C   UNL     1       3.771   0.988  -0.987  0.00  0.00    +0.037 A 
ATOM     35  C   UNL     1       3.999   1.894   0.050  0.00  0.00    +0.013 A 
ATOM     36  C   UNL     1       3.402   3.137   0.020  0.00  0.00    +0.001 A 
ENDBRANCH  21  34
ENDBRANCH   1  23
TORSDOF 7
