REMARK  Name = ZINC21117663
REMARK  5 active torsions:
REMARK  status: ('A' for Active; 'I' for Inactive)
REMARK    1  A    between atoms: C_1  and  C_2
REMARK    2  A    between atoms: C_6  and  N_9
REMARK    3  A    between atoms: C_7  and  C_8
REMARK    4  A    between atoms: C_15  and  C_17
REMARK    5  A    between atoms: C_20  and  C_23
REMARK                            x       y       z     vdW  Elec       q    Type
REMARK                         _______ _______ _______ _____ _____    ______ ____
ROOT
ATOM      1  C   UNL     1      -0.087  -0.265   0.008  0.00  0.00    +0.037 A 
ATOM      2  C   UNL     1       1.082  -1.025   0.061  0.00  0.00    +0.013 A 
ATOM      3  C   UNL     1       1.007  -2.402   0.065  0.00  0.00    +0.007 A 
ATOM      4  C   UNL     1      -0.224  -3.031   0.005  0.00  0.00    -0.011 A 
ATOM      5  C   UNL     1      -1.387  -2.284  -0.052  0.00  0.00    +0.007 A 
ATOM      6  C   UNL     1      -1.326  -0.906  -0.052  0.00  0.00    +0.013 A 
ENDROOT
BRANCH   4   7
ATOM      7  C   UNL     1      -0.299  -4.536   0.004  0.00  0.00    +0.191 C 
ATOM      8  N   UNL     1      -1.474  -4.968  -0.748  0.00  0.00    -0.322 N 
ATOM      9  C   UNL     1      -1.583  -4.840  -2.133  0.00  0.00    +0.055 A 
ATOM     10  C   UNL     1      -2.852  -4.858  -2.710  0.00  0.00    +0.025 A 
ATOM     11  C   UNL     1      -2.994  -4.768  -4.079  0.00  0.00    +0.002 A 
ATOM     12  C   UNL     1      -1.878  -4.658  -4.889  0.00  0.00    +0.002 A 
ATOM     13  C   UNL     1      -0.616  -4.631  -4.324  0.00  0.00    +0.030 A 
ATOM     14  C   UNL     1      -0.471  -4.717  -2.955  0.00  0.00    +0.126 A 
ATOM     15  S   UNL     1       1.143  -4.670  -2.236  0.00  0.00    +0.062 S 
ATOM     16  O   UNL     1       1.564  -3.312  -2.250  0.00  0.00    -0.153 OA
ATOM     17  O   UNL     1       1.895  -5.715  -2.836  0.00  0.00    -0.153 OA
ATOM     18  N   UNL     1       0.909  -5.092  -0.639  0.00  0.00    -0.166 NA
ATOM     19  H   UNL     1      -2.328  -5.420  -0.222  0.00  0.00    +0.148 HD
ATOM     20  H   UNL     1       1.672  -5.601  -0.031  0.00  0.00    +0.150 HD
ENDBRANCH   4   7
BRANCH   1  27
ATOM     21  N   UNL     1       2.313   3.158   2.728  0.00  0.00    -0.327 N 
ATOM     22  C   UNL     1       2.004   1.730   2.878  0.00  0.00    +0.124 C 
ATOM     23  C   UNL     1       1.933   1.078   1.493  0.00  0.00    +0.127 C 
ATOM     24  N   UNL     1       0.982   1.837   0.667  0.00  0.00    -0.295 N 
ATOM     25  C   UNL     1       1.149   3.295   0.574  0.00  0.00    +0.127 C 
ATOM     26  C   UNL     1       1.247   3.861   2.000  0.00  0.00    +0.124 C 
ATOM     27  C   UNL     1      -0.014   1.211   0.009  0.00  0.00    +0.247 C 
ATOM     28  O   UNL     1      -0.855   1.862  -0.581  0.00  0.00    -0.270 OA
BRANCH  21  34
ATOM     29  C   UNL     1       5.330   5.584   5.755  0.00  0.00    +0.044 C 
ATOM     30  C   UNL     1       4.001   4.937   5.465  0.00  0.00    -0.046 A 
ATOM     31  C   UNL     1       3.010   4.931   6.430  0.00  0.00    +0.004 A 
ATOM     32  C   UNL     1       1.789   4.339   6.168  0.00  0.00    +0.002 A 
ATOM     33  C   UNL     1       1.554   3.750   4.941  0.00  0.00    +0.023 A 
ATOM     34  C   UNL     1       2.547   3.753   3.970  0.00  0.00    +0.033 A 
ATOM     35  C   UNL     1       3.775   4.345   4.238  0.00  0.00    -0.027 A 
ATOM     36  C   UNL     1       4.857   4.346   3.189  0.00  0.00    +0.046 C 
ENDBRANCH  21  34
ENDBRANCH   1  27
TORSDOF 3
