REMARK  Name = ZINC41005231
REMARK  6 active torsions:
REMARK  status: ('A' for Active; 'I' for Inactive)
REMARK    1  A    between atoms: C_6  and  C_7
REMARK    2  A    between atoms: C_7  and  C_9
REMARK    3  A    between atoms: C_7  and  N_25
REMARK    4  A    between atoms: C_9  and  N_10
REMARK    5  A    between atoms: C_11  and  C_13
REMARK    6  A    between atoms: C_13  and  C_14
REMARK                            x       y       z     vdW  Elec       q    Type
REMARK                         _______ _______ _______ _____ _____    ______ ____
ROOT
ATOM      1  C   UNL     1      -1.572  -1.356   1.437  0.00  0.00    +0.093 C 
ENDROOT
BRANCH   1   2
ATOM      2  N   UNL     1      -2.829  -2.107   1.409  0.00  0.00    -0.316 N 
ATOM      3  C   UNL     1      -3.332  -2.623   2.548  0.00  0.00    +0.217 C 
ATOM      4  O   UNL     1      -2.744  -2.464   3.597  0.00  0.00    -0.275 OA
ATOM      5  H   UNL     1      -3.300  -2.234   0.570  0.00  0.00    +0.149 HD
BRANCH   3   6
ATOM      6  C   UNL     1      -4.626  -3.395   2.519  0.00  0.00    +0.131 C 
BRANCH   6   7
ATOM      7  C   UNL     1      -4.965  -3.859   3.912  0.00  0.00    -0.035 A 
ATOM      8  C   UNL     1      -4.505  -5.083   4.362  0.00  0.00    +0.008 A 
ATOM      9  C   UNL     1      -4.813  -5.516   5.639  0.00  0.00    +0.050 A 
ATOM     10  C   UNL     1      -5.583  -4.717   6.468  0.00  0.00    +0.162 A 
ATOM     11  C   UNL     1      -6.044  -3.488   6.016  0.00  0.00    +0.162 A 
ATOM     12  C   UNL     1      -5.731  -3.057   4.739  0.00  0.00    +0.053 A 
ATOM     13  O   UNL     1      -6.802  -2.708   6.841  0.00  0.00    -0.488 OA
ATOM     14  C   UNL     1      -8.107  -3.205   7.146  0.00  0.00    +0.232 C 
ATOM     15  C   UNL     1      -8.053  -4.185   8.307  0.00  0.00    +0.082 C 
ATOM     16  C   UNL     1      -7.266  -5.442   7.967  0.00  0.00    +0.232 C 
ATOM     17  O   UNL     1      -5.892  -5.131   7.731  0.00  0.00    -0.488 OA
ENDBRANCH   6   7
ENDBRANCH   3   6
ENDBRANCH   1   2
BRANCH   1  18
ATOM     18  C   UNL     1      -1.295  -0.773   0.050  0.00  0.00    -0.020 C 
BRANCH  18  24
ATOM     19  C   UNL     1      -3.411  -0.154  -1.136  0.00  0.00    +0.003 A 
ATOM     20  C   UNL     1      -4.400   0.755  -1.459  0.00  0.00    +0.020 A 
ATOM     21  C   UNL     1      -4.353   2.040  -0.947  0.00  0.00    +0.041 A 
ATOM     22  C   UNL     1      -3.315   2.413  -0.112  0.00  0.00    +0.020 A 
ATOM     23  C   UNL     1      -2.326   1.503   0.210  0.00  0.00    +0.003 A 
ATOM     24  C   UNL     1      -2.373   0.220  -0.302  0.00  0.00    -0.059 A 
ATOM     25 CL   UNL     1      -5.595   3.183  -1.352  0.00  0.00    -0.084 Cl
ENDBRANCH  18  24
BRANCH  18  26
ATOM     26  N   UNL     1       0.009  -0.097   0.054  0.00  0.00    +0.385 N 
ATOM     27  C   UNL     1       0.248   0.510  -1.260  0.00  0.00    -0.078 C 
ATOM     28  C   UNL     1       1.568   1.284  -1.236  0.00  0.00    -0.019 C 
ATOM     29  C   UNL     1       2.712   0.322  -0.902  0.00  0.00    -0.004 C 
ATOM     30  C   UNL     1       2.415  -0.362   0.436  0.00  0.00    -0.019 C 
ATOM     31  C   UNL     1       1.064  -1.074   0.350  0.00  0.00    -0.078 C 
ATOM     32  H   UNL     1       0.011   0.623   0.761  0.00  0.00    -0.081 HD
ENDBRANCH  18  26
ENDBRANCH   1  18
TORSDOF 6
