REMARK  Name = ZINC19125328
REMARK  12 active torsions:
REMARK  status: ('A' for Active; 'I' for Inactive)
REMARK    1  A    between atoms: C_1  and  C_2
REMARK    2  A    between atoms: C_2  and  C_4
REMARK    3  A    between atoms: C_2  and  N_13
REMARK    4  A    between atoms: C_14  and  C_16
REMARK    5  A    between atoms: C_16  and  O_17
REMARK    6  A    between atoms: O_17  and  C_18
REMARK    7  A    between atoms: C_18  and  C_20
REMARK    8  A    between atoms: C_20  and  N_21
REMARK    9  A    between atoms: C_27  and  C_30
REMARK   10  A    between atoms: C_30  and  C_31
REMARK   11  A    between atoms: C_30  and  C_32
REMARK   12  A    between atoms: C_30  and  C_33
REMARK                            x       y       z     vdW  Elec       q    Type
REMARK                         _______ _______ _______ _____ _____    ______ ____
ROOT
ATOM      1  C   UNL     1       2.800   7.843  -2.209  0.00  0.00    +0.326 C 
ATOM      2  O   UNL     1       3.481   7.109  -1.532  0.00  0.00    -0.249 OA
ENDROOT
BRANCH   1   3
ATOM      3  O   UNL     1       3.214   9.094  -2.467  0.00  0.00    -0.454 OA
BRANCH   3   4
ATOM      4  C   UNL     1       4.489   9.495  -1.901  0.00  0.00    +0.327 C 
BRANCH   4   6
ATOM      5  N   UNL     1       5.926  11.509  -1.878  0.00  0.00    -0.303 N 
ATOM      6  C   UNL     1       4.787  10.920  -2.293  0.00  0.00    +0.251 C 
ATOM      7  O   UNL     1       4.002  11.535  -2.983  0.00  0.00    -0.272 OA
ATOM      8  H   UNL     1       6.554  11.017  -1.327  0.00  0.00    +0.149 HD
BRANCH   5  10
ATOM      9  C   UNL     1       6.879  12.915  -3.638  0.00  0.00    +0.036 C 
ATOM     10  C   UNL     1       6.215  12.894  -2.260  0.00  0.00    +0.136 C 
BRANCH  10  11
ATOM     11  C   UNL     1       7.143  13.511  -1.246  0.00  0.00    +0.126 A 
ATOM     12  C   UNL     1       7.055  14.768  -0.791  0.00  0.00    +0.055 A 
ATOM     13  C   UNL     1       8.150  14.932   0.173  0.00  0.00    +0.020 A 
ATOM     14  C   UNL     1       8.592  15.982   0.977  0.00  0.00    +0.011 A 
ATOM     15  C   UNL     1       9.681  15.805   1.784  0.00  0.00    +0.001 A 
ATOM     16  C   UNL     1      10.347  14.588   1.808  0.00  0.00    +0.004 A 
ATOM     17  C   UNL     1       9.925  13.539   1.021  0.00  0.00    +0.047 A 
ATOM     18  C   UNL     1       8.820  13.698   0.193  0.00  0.00    +0.135 A 
ATOM     19  O   UNL     1       8.182  12.882  -0.670  0.00  0.00    -0.458 OA
ENDBRANCH  10  11
ENDBRANCH   5  10
ENDBRANCH   4   6
ENDBRANCH   3   4
ENDBRANCH   1   3
BRANCH   1  20
ATOM     20  C   UNL     1       1.487   7.355  -2.764  0.00  0.00    +0.238 C 
BRANCH  20  21
ATOM     21  N   UNL     1       1.264   5.969  -2.344  0.00  0.00    -0.213 N 
ATOM     22  C   UNL     1       0.627   5.614  -1.209  0.00  0.00    +0.247 C 
ATOM     23  O   UNL     1       0.148   6.352  -0.374  0.00  0.00    -0.273 OA
ATOM     24  C   UNL     1       0.636   4.103  -1.197  0.00  0.00    +0.113 C 
ATOM     25  C   UNL     1       1.395   3.586   0.020  0.00  0.00    +0.035 C 
ATOM     26  C   UNL     1       1.417   2.055  -0.000  0.00  0.00    +0.006 C 
ATOM     27  C   UNL     1      -0.019   1.526   0.010  0.00  0.00    -0.005 C 
ATOM     28  C   UNL     1      -0.759   2.033  -1.229  0.00  0.00    +0.006 C 
ATOM     29  C   UNL     1      -0.790   3.563  -1.213  0.00  0.00    +0.035 C 
ATOM     30  N   UNL     1       1.338   3.740  -2.434  0.00  0.00    -0.285 N 
ATOM     31  C   UNL     1       1.667   4.899  -3.038  0.00  0.00    +0.310 C 
ATOM     32  O   UNL     1       2.264   4.964  -4.095  0.00  0.00    -0.252 OA
ATOM     33  H   UNL     1       1.528   2.844  -2.753  0.00  0.00    +0.151 HD
BRANCH  27  34
ATOM     34  C   UNL     1       0.002  -0.004   0.002  0.00  0.00    -0.035 C 
ATOM     35  C   UNL     1       0.742  -0.511   1.242  0.00  0.00    +0.011 C 
ATOM     36  C   UNL     1      -1.433  -0.534   0.013  0.00  0.00    +0.011 C 
ATOM     37  C   UNL     1       0.718  -0.497  -1.257  0.00  0.00    +0.011 C 
ENDBRANCH  27  34
ENDBRANCH  20  21
ENDBRANCH   1  20
TORSDOF 8
