REMARK  Name = ZINC28256057
REMARK  5 active torsions:
REMARK  status: ('A' for Active; 'I' for Inactive)
REMARK    1  A    between atoms: C_3  and  C_22
REMARK    2  A    between atoms: C_5  and  C_7
REMARK    3  A    between atoms: C_7  and  O_9
REMARK    4  A    between atoms: O_9  and  C_10
REMARK    5  A    between atoms: C_13  and  N_16
REMARK                            x       y       z     vdW  Elec       q    Type
REMARK                         _______ _______ _______ _____ _____    ______ ____
ROOT
ATOM      1  C   UNL     1       0.929   7.359   0.064  0.00  0.00    +0.132 A 
ATOM      2  C   UNL     1      -0.352   7.888   0.131  0.00  0.00    +0.048 A 
ATOM      3  C   UNL     1      -0.533   9.256   0.180  0.00  0.00    +0.027 A 
ATOM      4  C   UNL     1       0.567  10.103   0.150  0.00  0.00    +0.036 A 
ATOM      5  C   UNL     1       1.849   9.574   0.077  0.00  0.00    +0.027 A 
ATOM      6  C   UNL     1       2.029   8.205   0.034  0.00  0.00    +0.048 A 
ENDROOT
BRANCH   4   7
ATOM      7  N   UNL     1       0.384  11.491   0.194  0.00  0.00    -0.271 N 
ATOM      8  C   UNL     1       1.464  12.474   0.047  0.00  0.00    +0.114 C 
ATOM      9  C   UNL     1       0.889  13.802   0.588  0.00  0.00    +0.029 C 
ATOM     10  C   UNL     1      -0.629  13.597   0.379  0.00  0.00    +0.098 C 
ATOM     11  C   UNL     1      -0.804  12.094   0.370  0.00  0.00    +0.220 C 
ATOM     12  O   UNL     1      -1.863  11.517   0.505  0.00  0.00    -0.275 OA
ENDBRANCH   4   7
BRANCH   1  13
ATOM     13  O   UNL     1       1.107   6.012   0.021  0.00  0.00    -0.422 OA
BRANCH  13  14
ATOM     14  C   UNL     1       1.542   5.417   1.149  0.00  0.00    +0.344 C 
ATOM     15  O   UNL     1       1.844   6.091   2.114  0.00  0.00    -0.245 OA
BRANCH  14  20
ATOM     16  C   UNL     1       1.409   1.793   0.160  0.00  0.00    +0.002 A 
ATOM     17  C   UNL     1       1.853   1.175   1.312  0.00  0.00    +0.019 A 
ATOM     18  C   UNL     1       2.197   1.938   2.430  0.00  0.00    +0.053 A 
ATOM     19  C   UNL     1       2.102   3.328   2.377  0.00  0.00    +0.033 A 
ATOM     20  C   UNL     1       1.653   3.945   1.212  0.00  0.00    +0.061 A 
ATOM     21  C   UNL     1       1.306   3.169   0.103  0.00  0.00    +0.015 A 
BRANCH  18  22
ATOM     22  C   UNL     1       2.652   1.295   3.626  0.00  0.00    +0.099 C 
ATOM     23  N   UNL     1       3.013   0.785   4.575  0.00  0.00    -0.191 NA
ENDBRANCH  18  22
ENDBRANCH  14  20
ENDBRANCH  13  14
ENDBRANCH   1  13
TORSDOF 5
