REMARK  Name = ZINC59112166
REMARK  9 active torsions:
REMARK  status: ('A' for Active; 'I' for Inactive)
REMARK    1  A    between atoms: C_5  and  N_8
REMARK    2  A    between atoms: N_8  and  C_9
REMARK    3  A    between atoms: C_9  and  N_11
REMARK    4  A    between atoms: N_11  and  C_12
REMARK    5  A    between atoms: C_12  and  C_13
REMARK    6  A    between atoms: C_13  and  N_14
REMARK    7  A    between atoms: N_17  and  C_20
REMARK    8  A    between atoms: C_20  and  N_22
REMARK    9  A    between atoms: N_22  and  C_23
REMARK                            x       y       z     vdW  Elec       q    Type
REMARK                         _______ _______ _______ _____ _____    ______ ____
ROOT
ATOM      1  N   UNL     1       4.638  -6.305  -4.369  0.00  0.00    -0.298 NA
ATOM      2  C   UNL     1       5.974  -6.045  -3.816  0.00  0.00    +0.103 C 
ATOM      3  C   UNL     1       6.592  -7.364  -3.340  0.00  0.00    +0.122 C 
ATOM      4  N   UNL     1       6.557  -8.325  -4.454  0.00  0.00    -0.310 N 
ATOM      5  C   UNL     1       5.278  -8.537  -5.150  0.00  0.00    +0.122 C 
ATOM      6  C   UNL     1       4.712  -7.171  -5.554  0.00  0.00    +0.103 C 
ENDROOT
BRANCH   4   7
ATOM      7  C   UNL     1       7.666  -8.993  -4.826  0.00  0.00    +0.133 C 
ATOM      8  S   UNL     1       9.170  -8.633  -4.091  0.00  0.00    -0.019 S 
BRANCH   7   9
ATOM      9  N   UNL     1       7.592  -9.945  -5.778  0.00  0.00    -0.324 N 
ATOM     10  H   UNL     1       6.756 -10.099  -6.245  0.00  0.00    +0.148 HD
BRANCH   9  11
ATOM     11  C   UNL     1       8.774 -10.746  -6.106  0.00  0.00    +0.072 C 
ATOM     12  C   UNL     1       9.663  -9.948  -7.081  0.00  0.00    +0.022 C 
ATOM     13  C   UNL     1      11.059 -10.505  -7.019  0.00  0.00    +0.002 C 
ATOM     14  C   UNL     1      11.319 -11.568  -8.103  0.00  0.00    +0.000 C 
ATOM     15  C   UNL     1      10.133 -12.534  -8.288  0.00  0.00    +0.000 C 
ATOM     16  C   UNL     1       9.524 -12.956  -6.979  0.00  0.00    +0.002 C 
ATOM     17  C   UNL     1       8.340 -12.018  -6.664  0.00  0.00    +0.022 C 
ENDBRANCH   9  11
ENDBRANCH   7   9
ENDBRANCH   4   7
BRANCH   1  18
ATOM     18  C   UNL     1       3.942  -5.049  -4.678  0.00  0.00    +0.103 C 
BRANCH  18  19
ATOM     19  C   UNL     1       3.665  -4.287  -3.381  0.00  0.00    +0.118 C 
BRANCH  19  20
ATOM     20  N   UNL     1       2.971  -3.034  -3.689  0.00  0.00    -0.325 N 
ATOM     21  H   UNL     1       2.762  -2.809  -4.609  0.00  0.00    +0.148 HD
BRANCH  20  22
ATOM     22  C   UNL     1       2.622  -2.195  -2.694  0.00  0.00    +0.131 C 
ATOM     23  S   UNL     1       2.991  -2.592  -1.070  0.00  0.00    -0.019 S 
BRANCH  22  24
ATOM     24  N   UNL     1       1.984  -1.042  -2.977  0.00  0.00    -0.324 N 
ATOM     25  H   UNL     1       1.775  -0.817  -3.897  0.00  0.00    +0.148 HD
BRANCH  24  30
ATOM     26  C   UNL     1      -0.013   1.536   0.023  0.00  0.00    +0.000 C 
ATOM     27  C   UNL     1       1.407   2.031   0.017  0.00  0.00    +0.000 C 
ATOM     28  C   UNL     1       1.920   2.334  -1.404  0.00  0.00    +0.002 C 
ATOM     29  C   UNL     1       1.491   1.271  -2.433  0.00  0.00    +0.022 C 
ATOM     30  C   UNL     1       1.605  -0.129  -1.896  0.00  0.00    +0.072 C 
ATOM     31  C   UNL     1       0.236  -0.547  -1.321  0.00  0.00    +0.022 C 
ATOM     32  C   UNL     1       0.005  -0.006   0.010  0.00  0.00    +0.002 C 
ENDBRANCH  24  30
ENDBRANCH  22  24
ENDBRANCH  20  22
ENDBRANCH  19  20
ENDBRANCH  18  19
ENDBRANCH   1  18
TORSDOF 9
