REMARK  Name = ZINC64719753
REMARK  6 active torsions:
REMARK  status: ('A' for Active; 'I' for Inactive)
REMARK    1  A    between atoms: C_1  and  C_2
REMARK    2  A    between atoms: C_9  and  C_11
REMARK    3  A    between atoms: C_11  and  C_13
REMARK    4  A    between atoms: C_11  and  N_23
REMARK    5  A    between atoms: C_13  and  C_14
REMARK    6  A    between atoms: C_24  and  C_26
REMARK                            x       y       z     vdW  Elec       q    Type
REMARK                         _______ _______ _______ _____ _____    ______ ____
ROOT
ATOM      1  C   UNL     1       3.458  -4.993  -1.521  0.00  0.00    +0.164 C 
ENDROOT
BRANCH   1   9
ATOM      2  C   UNL     1      -1.575   0.208   0.049  0.00  0.00    +0.055 C 
ATOM      3  C   UNL     1      -1.137  -1.257   0.019  0.00  0.00    +0.208 C 
ATOM      4  C   UNL     1      -0.217  -1.536  -1.194  0.00  0.00    +0.122 C 
ATOM      5  C   UNL     1       0.796  -2.509  -0.622  0.00  0.00    +0.144 C 
ATOM      6  N   UNL     1       0.712  -2.472   0.662  0.00  0.00    -0.073 NA
ATOM      7  O   UNL     1      -0.263  -1.558   1.125  0.00  0.00    -0.389 OA
ATOM      8  N   UNL     1       1.660  -3.302  -1.355  0.00  0.00    -0.270 N 
ATOM      9  C   UNL     1       2.516  -4.129  -0.723  0.00  0.00    +0.239 C 
ATOM     10  O   UNL     1       2.528  -4.178   0.489  0.00  0.00    -0.273 OA
ATOM     11  H   UNL     1       1.651  -3.263  -2.324  0.00  0.00    +0.156 HD
ENDBRANCH   1   9
BRANCH   1  12
ATOM     12  N   UNL     1       4.277  -5.795  -0.609  0.00  0.00    -0.300 N 
ATOM     13  C   UNL     1       4.766  -6.985  -1.011  0.00  0.00    +0.245 C 
ATOM     14  O   UNL     1       4.527  -7.393  -2.131  0.00  0.00    -0.270 OA
ATOM     15  H   UNL     1       4.468  -5.469   0.285  0.00  0.00    +0.150 HD
BRANCH  13  16
ATOM     16  C   UNL     1       5.592  -7.793  -0.091  0.00  0.00    +0.037 A 
ATOM     17  C   UNL     1       5.863  -7.330   1.198  0.00  0.00    +0.016 A 
ATOM     18  C   UNL     1       6.635  -8.088   2.052  0.00  0.00    +0.039 A 
ATOM     19  C   UNL     1       7.141  -9.309   1.633  0.00  0.00    +0.123 A 
ATOM     20  C   UNL     1       6.875  -9.774   0.355  0.00  0.00    +0.039 A 
ATOM     21  C   UNL     1       6.099  -9.027  -0.506  0.00  0.00    +0.016 A 
ATOM     22  F   UNL     1       7.897 -10.048   2.474  0.00  0.00    -0.205 F 
ENDBRANCH  13  16
ENDBRANCH   1  12
BRANCH   1  23
ATOM     23  C   UNL     1       4.365  -4.105  -2.374  0.00  0.00    +0.065 C 
BRANCH  23  24
ATOM     24  C   UNL     1       5.197  -3.226  -1.475  0.00  0.00    -0.039 C 
ATOM     25  C   UNL     1       6.450  -3.474  -1.029  0.00  0.00    -0.001 A 
ATOM     26  C   UNL     1       7.377  -4.592  -1.238  0.00  0.00    +0.010 A 
ATOM     27  C   UNL     1       8.592  -4.556  -0.646  0.00  0.00    +0.001 A 
ATOM     28  C   UNL     1       8.987  -3.481   0.162  0.00  0.00    +0.002 A 
ATOM     29  C   UNL     1       8.191  -2.417   0.400  0.00  0.00    +0.026 A 
ATOM     30  C   UNL     1       6.891  -2.350  -0.173  0.00  0.00    +0.043 A 
ATOM     31  N   UNL     1       5.948  -1.443  -0.093  0.00  0.00    -0.380 N 
ATOM     32  C   UNL     1       4.803  -1.887  -0.895  0.00  0.00    +0.144 C 
ATOM     33  H   UNL     1       6.000  -0.615   0.410  0.00  0.00    +0.160 HD
ENDBRANCH  23  24
ENDBRANCH   1  23
TORSDOF 5
