REMARK  Name = ZINC36184099
REMARK  11 active torsions:
REMARK  status: ('A' for Active; 'I' for Inactive)
REMARK    1  A    between atoms: C_1  and  C_2
REMARK    2  A    between atoms: C_5  and  N_11
REMARK    3  A    between atoms: C_6  and  N_8
REMARK    4  A    between atoms: C_12  and  C_14
REMARK    5  A    between atoms: C_14  and  C_16
REMARK    6  A    between atoms: C_14  and  S_22
REMARK    7  A    between atoms: S_22  and  C_23
REMARK    8  A    between atoms: C_26  and  C_29
REMARK    9  A    between atoms: N_27  and  N_28
REMARK   10  A    between atoms: C_34  and  O_35
REMARK   11  A    between atoms: O_35  and  C_36
REMARK                            x       y       z     vdW  Elec       q    Type
REMARK                         _______ _______ _______ _____ _____    ______ ____
ROOT
ATOM      1  C   UNL     1       0.417  -6.512  -0.353  0.00  0.00    +0.170 C 
ENDROOT
BRANCH   1   2
ATOM      2  C   UNL     1      -0.930  -7.103  -0.027  0.00  0.00    -0.025 A 
ATOM      3  C   UNL     1      -1.950  -7.054  -0.959  0.00  0.00    +0.005 A 
ATOM      4  C   UNL     1      -3.186  -7.595  -0.660  0.00  0.00    +0.000 A 
ATOM      5  C   UNL     1      -3.403  -8.185   0.572  0.00  0.00    +0.000 A 
ATOM      6  C   UNL     1      -2.383  -8.235   1.503  0.00  0.00    +0.000 A 
ATOM      7  C   UNL     1      -1.145  -7.697   1.202  0.00  0.00    +0.005 A 
ENDBRANCH   1   2
BRANCH   1   9
ATOM      8  N   UNL     1       0.265  -4.152   0.371  0.00  0.00    -0.282 N 
ATOM      9  C   UNL     1       0.265  -5.041  -0.642  0.00  0.00    +0.235 C 
ATOM     10  O   UNL     1       0.143  -4.657  -1.786  0.00  0.00    -0.274 OA
ATOM     11  H   UNL     1       0.439  -4.449   1.277  0.00  0.00    +0.155 HD
BRANCH   8  16
ATOM     12  C   UNL     1      -0.758   1.330  -0.669  0.00  0.00    +0.044 C 
ATOM     13  C   UNL     1      -0.487  -0.126  -0.393  0.00  0.00    -0.048 A 
ATOM     14  C   UNL     1       0.337  -0.847  -1.239  0.00  0.00    +0.005 A 
ATOM     15  C   UNL     1       0.588  -2.181  -0.988  0.00  0.00    +0.026 A 
ATOM     16  C   UNL     1       0.013  -2.800   0.114  0.00  0.00    +0.064 A 
ATOM     17  C   UNL     1      -0.814  -2.073   0.961  0.00  0.00    +0.148 A 
ATOM     18  C   UNL     1      -1.057  -0.737   0.708  0.00  0.00    +0.038 A 
BRANCH  17  19
ATOM     19  N   UNL     1      -1.429  -2.728   2.138  0.00  0.00    +0.058 N 
ATOM     20  O   UNL     1      -2.058  -2.072   2.934  0.00  0.00    -0.126 OA
ATOM     21  O   UNL     1      -1.302  -3.919   2.301  0.00  0.00    -0.126 OA
ENDBRANCH  17  19
ENDBRANCH   8  16
ENDBRANCH   1   9
BRANCH   1  22
ATOM     22  S   UNL     1       1.106  -7.346  -1.809  0.00  0.00    -0.067 S 
BRANCH  22  23
ATOM     23  C   UNL     1       1.360  -9.005  -1.270  0.00  0.00    +0.210 A 
ATOM     24  N   UNL     1       1.091  -9.487  -0.078  0.00  0.00    -0.121 NA
ATOM     25  N   UNL     1       1.398 -10.733  -0.026  0.00  0.00    -0.127 NA
ATOM     26  C   UNL     1       1.882 -11.124  -1.181  0.00  0.00    +0.185 A 
ATOM     27  N   UNL     1       1.868 -10.031  -2.016  0.00  0.00    -0.224 N 
BRANCH  26  28
ATOM     28  C   UNL     1       2.350 -12.484  -1.523  0.00  0.00    +0.062 A 
ATOM     29  C   UNL     1       3.577 -12.664  -2.162  0.00  0.00    +0.015 A 
ATOM     30  C   UNL     1       4.008 -13.935  -2.478  0.00  0.00    +0.001 A 
ATOM     31  C   UNL     1       3.228 -15.035  -2.165  0.00  0.00    +0.004 A 
ATOM     32  C   UNL     1       2.010 -14.869  -1.533  0.00  0.00    +0.046 A 
ATOM     33  C   UNL     1       1.566 -13.599  -1.203  0.00  0.00    +0.131 A 
BRANCH  33  34
ATOM     34  O   UNL     1       0.372 -13.436  -0.576  0.00  0.00    -0.494 OA
ATOM     35  C   UNL     1      -0.373 -14.619  -0.280  0.00  0.00    +0.277 C 
ENDBRANCH  33  34
ENDBRANCH  26  28
BRANCH  27  36
ATOM     36  N   UNL     1       2.278  -9.980  -3.318  0.00  0.00    -0.295 N 
ATOM     37  H   UNL     1       3.274  -9.830  -3.377  0.00  0.00    +0.163 HD
ATOM     38  H   UNL     1       2.008 -10.816  -3.815  0.00  0.00    +0.163 HD
ENDBRANCH  27  36
ENDBRANCH  22  23
ENDBRANCH   1  22
TORSDOF 9
