REMARK  Name = ZINC12836988
REMARK  9 active torsions:
REMARK  status: ('A' for Active; 'I' for Inactive)
REMARK    1  A    between atoms: C_1  and  C_2
REMARK    2  A    between atoms: C_3  and  C_15
REMARK    3  A    between atoms: N_6  and  C_7
REMARK    4  A    between atoms: C_10  and  O_13
REMARK    5  A    between atoms: O_13  and  C_14
REMARK    6  A    between atoms: C_15  and  C_17
REMARK    7  A    between atoms: C_15  and  N_55
REMARK    8  A    between atoms: C_18  and  C_19
REMARK    9  A    between atoms: C_18  and  N_55
REMARK                            x       y       z     vdW  Elec       q    Type
REMARK                         _______ _______ _______ _____ _____    ______ ____
ROOT
ATOM      1  C   UNL     1      -1.230   2.194   0.384  0.00  0.00    -0.040 C 
ATOM      2  C   UNL     1      -1.628   2.149   1.861  0.00  0.00    -0.009 C 
ENDROOT
BRANCH   1   5
ATOM      3  C   UNL     1      -1.211  -0.894  -0.119  0.00  0.00    +0.066 C 
ATOM      4  C   UNL     1      -0.002   0.002  -0.053  0.00  0.00    +0.043 A 
ATOM      5  C   UNL     1      -0.009   1.338   0.167  0.00  0.00    -0.021 A 
ATOM      6  C   UNL     1       1.317   1.784   0.151  0.00  0.00    +0.137 A 
ATOM      7  N   UNL     1       2.093   0.754  -0.071  0.00  0.00    -0.174 NA
ATOM      8  N   UNL     1       1.286  -0.383  -0.203  0.00  0.00    -0.237 N 
BRANCH   8   9
ATOM      9  C   UNL     1       1.734  -1.690  -0.447  0.00  0.00    +0.066 A 
ATOM     10  C   UNL     1       2.855  -2.174   0.212  0.00  0.00    +0.031 A 
ATOM     11  C   UNL     1       3.292  -3.462  -0.025  0.00  0.00    +0.048 A 
ATOM     12  C   UNL     1       2.617  -4.269  -0.929  0.00  0.00    +0.120 A 
ATOM     13  C   UNL     1       1.499  -3.783  -1.592  0.00  0.00    +0.048 A 
ATOM     14  C   UNL     1       1.058  -2.497  -1.352  0.00  0.00    +0.031 A 
BRANCH  12  15
ATOM     15  O   UNL     1       3.051  -5.535  -1.166  0.00  0.00    -0.495 OA
ATOM     16  C   UNL     1       4.208  -5.969  -0.448  0.00  0.00    +0.277 C 
ENDBRANCH  12  15
ENDBRANCH   8   9
ENDBRANCH   1   5
BRANCH   1  17
ATOM     17  N   UNL     1      -0.922   3.584  -0.001  0.00  0.00    +0.387 N 
ATOM     18  H   UNL     1      -0.279   3.579  -0.802  0.00  0.00    -0.085 HD
ATOM     19  H   UNL     1      -0.479   4.065   0.791  0.00  0.00    -0.085 HD
BRANCH  17  20
ATOM     20  C   UNL     1      -2.158   4.298  -0.375  0.00  0.00    -0.037 C 
BRANCH  20  21
ATOM     21  C   UNL     1      -1.812   5.712  -0.763  0.00  0.00    -0.006 A 
ATOM     22  C   UNL     1      -1.484   6.220  -1.975  0.00  0.00    +0.122 A 
ATOM     23  N   UNL     1      -1.223   7.510  -2.067  0.00  0.00    -0.233 NA
ATOM     24  C   UNL     1      -1.268   8.293  -1.006  0.00  0.00    +0.161 A 
ATOM     25  S   UNL     1      -1.716   7.181   0.250  0.00  0.00    -0.059 S 
ATOM     26  N   UNL     1      -1.022   9.654  -0.917  0.00  0.00    -0.305 N 
ATOM     27  C   UNL     1      -2.175  10.362  -0.342  0.00  0.00    +0.135 C 
ATOM     28  C   UNL     1      -1.839  11.849  -0.207  0.00  0.00    +0.179 C 
ATOM     29  O   UNL     1      -1.469  12.368  -1.487  0.00  0.00    -0.377 OA
ATOM     30  C   UNL     1      -0.348  11.702  -2.076  0.00  0.00    +0.179 C 
ATOM     31  C   UNL     1      -0.670  10.213  -2.231  0.00  0.00    +0.135 C 
ENDBRANCH  20  21
ENDBRANCH  17  20
ENDBRANCH   1  17
TORSDOF 6
