REMARK  Name = ZINC15087765
REMARK  6 active torsions:
REMARK  status: ('A' for Active; 'I' for Inactive)
REMARK    1  A    between atoms: C_1  and  C_2
REMARK    2  A    between atoms: C_2  and  C_35
REMARK    3  A    between atoms: N_5  and  C_9
REMARK    4  A    between atoms: C_9  and  C_10
REMARK    5  A    between atoms: N_12  and  C_13
REMARK    6  A    between atoms: N_26  and  C_29
REMARK                            x       y       z     vdW  Elec       q    Type
REMARK                         _______ _______ _______ _____ _____    ______ ____
ROOT
ATOM      1  C   UNL     1      -0.005   1.511   0.009  0.00  0.00    +0.017 C 
ATOM      2  C   UNL     1       0.007  -0.019  -0.005  0.00  0.00    +0.012 C 
ATOM      3  C   UNL     1      -1.404  -0.536   0.033  0.00  0.00    +0.031 A 
ATOM      4  C   UNL     1      -1.915  -1.587   0.711  0.00  0.00    +0.091 A 
ATOM      5  N   UNL     1      -3.264  -1.784   0.545  0.00  0.00    -0.288 N 
ATOM      6  C   UNL     1      -3.969  -0.968  -0.261  0.00  0.00    +0.292 A 
ATOM      7  O   UNL     1      -5.159  -1.005  -0.519  0.00  0.00    -0.259 OA
ATOM      8  S   UNL     1      -2.812   0.116  -0.824  0.00  0.00    -0.030 S 
ATOM      9  S   UNL     1      -0.874  -2.625   1.726  0.00  0.00    -0.093 S 
ATOM     10  C   UNL     1       0.761  -2.088   1.159  0.00  0.00    +0.152 C 
ATOM     11  C   UNL     1       0.738  -0.531   1.211  0.00  0.00    +0.109 C 
ATOM     12  C   UNL     1       2.197  -0.241   1.363  0.00  0.00    +0.232 C 
ATOM     13  O   UNL     1       2.791   0.739   0.965  0.00  0.00    -0.274 OA
ATOM     14  N   UNL     1       2.723  -1.297   2.037  0.00  0.00    -0.209 N 
ATOM     15  C   UNL     1       1.886  -2.384   2.112  0.00  0.00    +0.240 C 
ATOM     16  O   UNL     1       2.011  -3.369   2.807  0.00  0.00    -0.274 OA
ATOM     17  C   UNL     1       0.707  -0.516  -1.272  0.00  0.00    +0.017 C 
ENDROOT
BRANCH  14  18
ATOM     18  C   UNL     1       4.012  -1.290   2.589  0.00  0.00    +0.044 A 
ATOM     19  C   UNL     1       4.816  -0.165   2.466  0.00  0.00    +0.024 A 
ATOM     20  C   UNL     1       6.085  -0.162   3.011  0.00  0.00    +0.002 A 
ATOM     21  C   UNL     1       6.555  -1.277   3.679  0.00  0.00    +0.000 A 
ATOM     22  C   UNL     1       5.757  -2.400   3.803  0.00  0.00    +0.002 A 
ATOM     23  C   UNL     1       4.484  -2.407   3.265  0.00  0.00    +0.024 A 
ENDBRANCH  14  18
BRANCH   5  24
ATOM     24  C   UNL     1      -3.935  -2.883   1.244  0.00  0.00    +0.222 C 
BRANCH  24  25
ATOM     25  C   UNL     1      -4.427  -2.401   2.584  0.00  0.00    +0.237 C 
ATOM     26  O   UNL     1      -4.235  -1.252   2.922  0.00  0.00    -0.274 OA
ATOM     27  N   UNL     1      -5.079  -3.246   3.406  0.00  0.00    -0.284 N 
ATOM     28  H   UNL     1      -5.291  -4.145   3.109  0.00  0.00    +0.155 HD
BRANCH  27  29
ATOM     29  C   UNL     1      -5.450  -2.827   4.689  0.00  0.00    +0.033 A 
ATOM     30  C   UNL     1      -5.424  -3.724   5.749  0.00  0.00    +0.023 A 
ATOM     31  C   UNL     1      -5.792  -3.307   7.013  0.00  0.00    +0.002 A 
ATOM     32  C   UNL     1      -6.185  -1.998   7.224  0.00  0.00    +0.000 A 
ATOM     33  C   UNL     1      -6.212  -1.103   6.171  0.00  0.00    +0.002 A 
ATOM     34  C   UNL     1      -5.840  -1.512   4.905  0.00  0.00    +0.023 A 
ENDBRANCH  27  29
ENDBRANCH  24  25
ENDBRANCH   5  24
TORSDOF 4
