REMARK  Name = ZINC38650651
REMARK  14 active torsions:
REMARK  status: ('A' for Active; 'I' for Inactive)
REMARK    1  A    between atoms: C_1  and  C_2
REMARK    2  A    between atoms: C_2  and  C_3
REMARK    3  A    between atoms: C_3  and  O_4
REMARK    4  A    between atoms: O_4  and  C_5
REMARK    5  A    between atoms: C_8  and  C_11
REMARK    6  A    between atoms: C_16  and  O_25
REMARK    7  A    between atoms: C_20  and  N_24
REMARK    8  A    between atoms: C_21  and  C_22
REMARK    9  A    between atoms: O_25  and  C_26
REMARK   10  A    between atoms: C_26  and  C_28
REMARK   11  A    between atoms: C_28  and  O_29
REMARK   12  A    between atoms: O_29  and  C_30
REMARK   13  A    between atoms: C_33  and  O_36
REMARK   14  A    between atoms: O_36  and  C_37
REMARK                            x       y       z     vdW  Elec       q    Type
REMARK                         _______ _______ _______ _____ _____    ______ ____
ROOT
ATOM      1  C   UNL     1       3.280  -4.477  -5.644  0.00  0.00    +0.098 C 
ATOM      2  C   UNL     1       2.266  -5.321  -6.371  0.00  0.00    +0.008 A 
ATOM      3  C   UNL     1       1.275  -4.705  -7.113  0.00  0.00    +0.012 A 
ATOM      4  C   UNL     1       0.337  -5.464  -7.786  0.00  0.00    +0.047 A 
ATOM      5  C   UNL     1       0.387  -6.849  -7.718  0.00  0.00    +0.135 A 
ATOM      6  C   UNL     1       1.379  -7.468  -6.976  0.00  0.00    +0.093 A 
ATOM      7  C   UNL     1       2.321  -6.704  -6.299  0.00  0.00    +0.138 A 
ATOM      8  O   UNL     1       3.286  -7.326  -5.577  0.00  0.00    -0.441 OA
ATOM      9  C   UNL     1       4.406  -6.663  -5.245  0.00  0.00    +0.199 C 
ATOM     10  C   UNL     1       4.466  -5.314  -5.256  0.00  0.00    +0.098 C 
ENDROOT
BRANCH   1  14
ATOM     11  C   UNL     1       1.493  -2.835  -2.127  0.00  0.00    +0.121 A 
ATOM     12  C   UNL     1       1.990  -1.993  -3.111  0.00  0.00    +0.046 A 
ATOM     13  C   UNL     1       2.567  -2.526  -4.247  0.00  0.00    +0.008 A 
ATOM     14  C   UNL     1       2.650  -3.898  -4.404  0.00  0.00    -0.034 A 
ATOM     15  C   UNL     1       2.155  -4.739  -3.424  0.00  0.00    +0.008 A 
ATOM     16  C   UNL     1       1.582  -4.210  -2.283  0.00  0.00    +0.046 A 
BRANCH  11  17
ATOM     17  O   UNL     1       0.925  -2.312  -1.008  0.00  0.00    -0.492 OA
BRANCH  17  18
ATOM     18  C   UNL     1       0.867  -0.888  -0.914  0.00  0.00    +0.229 C 
BRANCH  18  20
ATOM     19  C   UNL     1       0.137   1.036   0.504  0.00  0.00    +0.007 C 
ATOM     20  C   UNL     1       0.199  -0.490   0.404  0.00  0.00    +0.038 C 
ENDBRANCH  18  20
ENDBRANCH  17  18
ENDBRANCH  11  17
ENDBRANCH   1  14
BRANCH   9  21
ATOM     21  N   UNL     1       5.520  -7.378  -4.882  0.00  0.00    -0.328 N 
ATOM     22  H   UNL     1       5.491  -8.347  -4.869  0.00  0.00    +0.145 HD
ATOM     23  H   UNL     1       6.337  -6.914  -4.640  0.00  0.00    +0.145 HD
ENDBRANCH   9  21
BRANCH  10  24
ATOM     24  C   UNL     1       5.691  -4.668  -4.890  0.00  0.00    +0.101 C 
ATOM     25  N   UNL     1       6.662  -4.155  -4.600  0.00  0.00    -0.191 NA
ENDBRANCH  10  24
BRANCH   5  26
ATOM     26  O   UNL     1      -0.535  -7.597  -8.380  0.00  0.00    -0.423 OA
BRANCH  26  27
ATOM     27  C   UNL     1      -1.437  -8.275  -7.651  0.00  0.00    +0.350 C 
ATOM     28  O   UNL     1      -1.478  -8.128  -6.453  0.00  0.00    -0.247 OA
BRANCH  27  29
ATOM     29  C   UNL     1      -2.396  -9.219  -8.329  0.00  0.00    +0.349 C 
BRANCH  29  30
ATOM     30  O   UNL     1      -3.249  -9.816  -7.349  0.00  0.00    -0.481 OA
BRANCH  30  31
ATOM     31  C   UNL     1      -4.180 -10.699  -7.797  0.00  0.00    +0.122 A 
ATOM     32  C   UNL     1      -4.266 -10.989  -9.151  0.00  0.00    +0.049 A 
ATOM     33  C   UNL     1      -5.212 -11.887  -9.606  0.00  0.00    +0.049 A 
ATOM     34  C   UNL     1      -6.075 -12.499  -8.709  0.00  0.00    +0.120 A 
ATOM     35  C   UNL     1      -5.989 -12.210  -7.356  0.00  0.00    +0.049 A 
ATOM     36  C   UNL     1      -5.040 -11.315  -6.900  0.00  0.00    +0.049 A 
BRANCH  34  37
ATOM     37  O   UNL     1      -7.007 -13.382  -9.158  0.00  0.00    -0.495 OA
ATOM     38  C   UNL     1      -7.863 -13.975  -8.178  0.00  0.00    +0.277 C 
ENDBRANCH  34  37
ENDBRANCH  30  31
ENDBRANCH  29  30
ENDBRANCH  27  29
ENDBRANCH  26  27
ENDBRANCH   5  26
TORSDOF 12
