REMARK  Name = ZINC04416535
REMARK  8 active torsions:
REMARK  status: ('A' for Active; 'I' for Inactive)
REMARK    1  A    between atoms: C_1  and  C_2
REMARK    2  A    between atoms: C_5  and  S_8
REMARK    3  A    between atoms: S_8  and  N_11
REMARK    4  A    between atoms: N_11  and  C_12
REMARK    5  A    between atoms: C_12  and  C_13
REMARK    6  A    between atoms: N_15  and  C_16
REMARK    7  A    between atoms: C_16  and  C_17
REMARK    8  A    between atoms: N_19  and  N_20
REMARK                            x       y       z     vdW  Elec       q    Type
REMARK                         _______ _______ _______ _____ _____    ______ ____
ROOT
ATOM      1  C   UNL     1      -2.018   3.435  -2.894  0.00  0.00    +0.229 C 
ATOM      2  O   UNL     1      -1.972   2.494  -3.657  0.00  0.00    -0.274 OA
ATOM      3  N   UNL     1      -2.278   4.671  -3.364  0.00  0.00    -0.306 N 
ATOM      4  H   UNL     1      -2.315   5.425  -2.754  0.00  0.00    +0.149 HD
ENDROOT
BRANCH   1   5
ATOM      5  C   UNL     1      -1.784   3.223  -1.421  0.00  0.00    +0.201 C 
BRANCH   5   6
ATOM      6  N   UNL     1      -1.524   1.804  -1.167  0.00  0.00    -0.181 NA
ATOM      7  H   UNL     1      -1.733   1.144  -1.846  0.00  0.00    +0.149 HD
BRANCH   6   8
ATOM      8  S   UNL     1      -0.872   1.327   0.279  0.00  0.00    +0.059 S 
ATOM      9  O   UNL     1      -0.767  -0.089   0.230  0.00  0.00    -0.153 OA
ATOM     10  O   UNL     1       0.250   2.167   0.515  0.00  0.00    -0.153 OA
BRANCH   8  15
ATOM     11  C   UNL     1      -4.918   2.609   4.568  0.00  0.00    +0.044 C 
ATOM     12  C   UNL     1      -3.907   2.289   3.497  0.00  0.00    -0.050 A 
ATOM     13  C   UNL     1      -3.933   1.058   2.868  0.00  0.00    +0.005 A 
ATOM     14  C   UNL     1      -3.006   0.764   1.886  0.00  0.00    +0.029 A 
ATOM     15  C   UNL     1      -2.054   1.702   1.532  0.00  0.00    +0.105 A 
ATOM     16  C   UNL     1      -2.025   2.931   2.164  0.00  0.00    +0.029 A 
ATOM     17  C   UNL     1      -2.954   3.226   3.143  0.00  0.00    +0.005 A 
ENDBRANCH   8  15
ENDBRANCH   6   8
ENDBRANCH   5   6
ENDBRANCH   1   5
BRANCH   3  18
ATOM     18  C   UNL     1      -2.506   4.878  -4.796  0.00  0.00    +0.201 C 
BRANCH  18  19
ATOM     19  C   UNL     1      -2.773   6.338  -5.058  0.00  0.00    +0.249 C 
ATOM     20  O   UNL     1      -2.774   7.128  -4.138  0.00  0.00    -0.272 OA
ATOM     21  N   UNL     1      -3.012   6.765  -6.313  0.00  0.00    -0.206 N 
ATOM     22  H   UNL     1      -3.011   6.133  -7.049  0.00  0.00    +0.177 HD
BRANCH  21  23
ATOM     23  N   UNL     1      -3.261   8.122  -6.556  0.00  0.00    -0.189 NA
ATOM     24  C   UNL     1      -3.589   8.513  -7.730  0.00  0.00    +0.037 C 
ATOM     25  C   UNL     1      -3.850   7.513  -8.835  0.00  0.00    +0.052 C 
ATOM     26  C   UNL     1      -5.212   7.839  -9.469  0.00  0.00    +0.006 C 
ATOM     27  C   UNL     1      -5.221   9.300  -9.925  0.00  0.00    +0.001 C 
ATOM     28  C   UNL     1      -5.079  10.222  -8.713  0.00  0.00    +0.006 C 
ATOM     29  C   UNL     1      -3.719   9.986  -8.050  0.00  0.00    +0.052 C 
ENDBRANCH  21  23
ENDBRANCH  18  19
ENDBRANCH   3  18
TORSDOF 7
