REMARK  Name = ZINC12792869
REMARK  6 active torsions:
REMARK  status: ('A' for Active; 'I' for Inactive)
REMARK    1  A    between atoms: C_1  and  C_2
REMARK    2  A    between atoms: C_2  and  C_4
REMARK    3  A    between atoms: C_2  and  N_49
REMARK    4  A    between atoms: C_9  and  C_10
REMARK    5  A    between atoms: C_9  and  N_49
REMARK    6  A    between atoms: N_12  and  C_13
REMARK                            x       y       z     vdW  Elec       q    Type
REMARK                         _______ _______ _______ _____ _____    ______ ____
ROOT
ATOM      1  C   UNL     1      -8.603   2.057   2.739  0.00  0.00    +0.200 C 
ATOM      2  O   UNL     1      -7.936   1.044   2.767  0.00  0.00    -0.278 OA
ATOM      3  N   UNL     1      -8.068   3.203   2.272  0.00  0.00    -0.287 N 
ATOM      4  H   UNL     1      -8.574   4.029   2.321  0.00  0.00    +0.155 HD
ENDROOT
BRANCH   3   5
ATOM      5  C   UNL     1      -6.782   3.200   1.717  0.00  0.00    +0.037 A 
ATOM      6  C   UNL     1      -5.960   4.309   1.865  0.00  0.00    +0.027 A 
ATOM      7  C   UNL     1      -4.691   4.308   1.317  0.00  0.00    +0.051 A 
ATOM      8  C   UNL     1      -4.237   3.202   0.618  0.00  0.00    +0.167 A 
ATOM      9  C   UNL     1      -5.059   2.088   0.468  0.00  0.00    +0.169 A 
ATOM     10  C   UNL     1      -6.330   2.090   1.018  0.00  0.00    +0.072 A 
ATOM     11  O   UNL     1      -4.388   1.142  -0.254  0.00  0.00    -0.447 OA
ATOM     12  C   UNL     1      -3.009   1.535  -0.209  0.00  0.00    +0.254 C 
ATOM     13  O   UNL     1      -3.047   2.955  -0.009  0.00  0.00    -0.448 OA
ATOM     14  C   UNL     1      -2.322   1.204  -1.530  0.00  0.00    +0.093 C 
ATOM     15  C   UNL     1      -0.860   1.655  -1.474  0.00  0.00    +0.008 C 
ATOM     16  C   UNL     1      -0.152   0.943  -0.320  0.00  0.00    +0.000 C 
ATOM     17  C   UNL     1      -0.837   1.303   1.000  0.00  0.00    +0.008 C 
ATOM     18  C   UNL     1      -2.299   0.851   0.954  0.00  0.00    +0.093 C 
ENDBRANCH   3   5
BRANCH   1  19
ATOM     19  C   UNL     1     -10.028   2.035   3.227  0.00  0.00    +0.016 C 
BRANCH  19  20
ATOM     20  N   UNL     1     -10.363   0.671   3.681  0.00  0.00    +0.391 N 
ATOM     21  H   UNL     1     -10.252   0.017   2.897  0.00  0.00    -0.084 HD
ATOM     22  H   UNL     1      -9.729   0.403   4.443  0.00  0.00    -0.084 HD
BRANCH  20  24
ATOM     23  C   UNL     1     -12.699   0.391   2.983  0.00  0.00    -0.006 C 
ATOM     24  C   UNL     1     -11.755   0.620   4.165  0.00  0.00    -0.007 C 
BRANCH  24  25
ATOM     25  C   UNL     1     -11.896  -0.515   5.147  0.00  0.00    +0.091 A 
ATOM     26  C   UNL     1     -12.613  -0.486   6.285  0.00  0.00    +0.043 A 
ATOM     27  C   UNL     1     -12.467  -1.754   6.893  0.00  0.00    +0.041 A 
ATOM     28  C   UNL     1     -11.669  -2.481   6.091  0.00  0.00    +0.195 A 
ATOM     29  O   UNL     1     -11.331  -1.728   5.032  0.00  0.00    -0.469 OA
ENDBRANCH  24  25
ENDBRANCH  20  24
ENDBRANCH  19  20
ENDBRANCH   1  19
TORSDOF 5
