REMARK  Name = ZINC39628436
REMARK  11 active torsions:
REMARK  status: ('A' for Active; 'I' for Inactive)
REMARK    1  A    between atoms: C_1  and  C_2
REMARK    2  A    between atoms: C_2  and  C_3
REMARK    3  A    between atoms: C_3  and  C_4
REMARK    4  A    between atoms: C_3  and  C_6
REMARK    5  A    between atoms: C_4  and  C_5
REMARK    6  A    between atoms: C_10  and  C_19
REMARK    7  A    between atoms: N_21  and  C_22
REMARK    8  A    between atoms: C_22  and  C_23
REMARK    9  A    between atoms: C_23  and  C_24
REMARK   10  A    between atoms: C_24  and  N_25
REMARK   11  A    between atoms: C_30  and  C_32
REMARK                            x       y       z     vdW  Elec       q    Type
REMARK                         _______ _______ _______ _____ _____    ______ ____
ROOT
ATOM      1  C   UNL     1       0.948  -2.158   1.081  0.00  0.00    +0.219 C 
ATOM      2  O   UNL     1       0.636  -2.720   0.053  0.00  0.00    -0.275 OA
ATOM      3  N   UNL     1       1.441  -2.869   2.115  0.00  0.00    -0.300 N 
ATOM      4  C   UNL     1       1.958  -2.356   3.405  0.00  0.00    +0.121 C 
ATOM      5  C   UNL     1       1.448  -3.365   4.459  0.00  0.00    +0.100 C 
ATOM      6  C   UNL     1       1.210  -4.665   3.674  0.00  0.00    -0.004 C 
ATOM      7  C   UNL     1       1.583  -4.341   2.220  0.00  0.00    +0.115 C 
ATOM      8  C   UNL     1      -0.259  -5.070   3.757  0.00  0.00    -0.010 C 
ATOM      9  C   UNL     1      -0.461  -6.396   3.017  0.00  0.00    -0.082 C 
ATOM     10  N   UNL     1       0.388  -7.430   3.621  0.00  0.00    +0.379 N 
ATOM     11  C   UNL     1       1.803  -7.077   3.454  0.00  0.00    -0.082 C 
ATOM     12  C   UNL     1       2.100  -5.780   4.213  0.00  0.00    -0.010 C 
ATOM     13  H   UNL     1       0.175  -7.505   4.604  0.00  0.00    -0.086 HD
ATOM     14  H   UNL     1       0.209  -8.315   3.171  0.00  0.00    -0.086 HD
ENDROOT
BRANCH   5  15
ATOM     15  C   UNL     1       0.162  -2.876   5.074  0.00  0.00    +0.218 C 
ATOM     16  O   UNL     1      -0.629  -2.245   4.404  0.00  0.00    -0.275 OA
ATOM     17  N   UNL     1      -0.110  -3.140   6.367  0.00  0.00    -0.315 N 
ATOM     18  H   UNL     1       0.523  -3.644   6.902  0.00  0.00    +0.149 HD
BRANCH  17  19
ATOM     19  C   UNL     1      -1.360  -2.665   6.965  0.00  0.00    +0.102 C 
BRANCH  19  20
ATOM     20  C   UNL     1      -1.420  -3.096   8.431  0.00  0.00    +0.000 C 
BRANCH  20  21
ATOM     21  C   UNL     1      -2.726  -2.600   9.055  0.00  0.00    -0.077 C 
BRANCH  21  22
ATOM     22  N   UNL     1      -2.784  -3.014  10.464  0.00  0.00    +0.381 N 
ATOM     23  C   UNL     1      -1.710  -2.350  11.212  0.00  0.00    -0.078 C 
ATOM     24  C   UNL     1      -1.715  -2.839  12.662  0.00  0.00    -0.019 C 
ATOM     25  C   UNL     1      -3.065  -2.506  13.302  0.00  0.00    -0.003 C 
ATOM     26  C   UNL     1      -4.183  -3.143  12.471  0.00  0.00    -0.016 C 
ATOM     27  C   UNL     1      -4.087  -2.642  11.028  0.00  0.00    -0.072 C 
ATOM     28  C   UNL     1      -5.202  -3.275  10.194  0.00  0.00    -0.013 C 
ATOM     29  H   UNL     1      -2.665  -4.014  10.525  0.00  0.00    -0.081 HD
ENDBRANCH  21  22
ENDBRANCH  20  21
ENDBRANCH  19  20
ENDBRANCH  17  19
ENDBRANCH   5  15
BRANCH   1  30
ATOM     30  C   UNL     1       0.785  -0.665   1.204  0.00  0.00    +0.075 C 
BRANCH  30  32
ATOM     31  C   UNL     1       1.911   1.540   0.864  0.00  0.00    +0.004 C 
ATOM     32  C   UNL     1       2.019   0.032   0.627  0.00  0.00    +0.009 C 
ENDBRANCH  30  32
BRANCH  30  33
ATOM     33  C   UNL     1      -0.458  -0.222   0.429  0.00  0.00    +0.009 C 
ATOM     34  C   UNL     1      -1.707  -0.809   1.091  0.00  0.00    +0.004 C 
ENDBRANCH  30  33
ENDBRANCH   1  30
TORSDOF 8
