REMARK  Name = ZINC35724619
REMARK  9 active torsions:
REMARK  status: ('A' for Active; 'I' for Inactive)
REMARK    1  A    between atoms: C_1  and  C_2
REMARK    2  A    between atoms: C_2  and  C_3
REMARK    3  A    between atoms: C_3  and  C_5
REMARK    4  A    between atoms: C_3  and  C_6
REMARK    5  A    between atoms: C_6  and  C_8
REMARK    6  A    between atoms: C_6  and  N_23
REMARK    7  A    between atoms: C_14  and  C_16
REMARK    8  A    between atoms: N_26  and  C_27
REMARK    9  A    between atoms: C_32  and  C_33
REMARK                            x       y       z     vdW  Elec       q    Type
REMARK                         _______ _______ _______ _____ _____    ______ ____
ROOT
ATOM      1  C   UNL     1      -0.236  -0.315   2.411  0.00  0.00    +0.163 C 
ENDROOT
BRANCH   1   2
ATOM      2  C   UNL     1       0.308  -0.798   3.731  0.00  0.00    +0.239 C 
ATOM      3  O   UNL     1       0.511  -0.009   4.628  0.00  0.00    -0.273 OA
ATOM      4  N   UNL     1       0.568  -2.108   3.913  0.00  0.00    -0.262 N 
ATOM      5  C   UNL     1       0.970  -2.569   5.161  0.00  0.00    +0.188 A 
ATOM      6  N   UNL     1       1.154  -1.907   6.296  0.00  0.00    -0.125 NA
ATOM      7  N   UNL     1       1.526  -2.486   7.353  0.00  0.00    -0.140 NA
ATOM      8  C   UNL     1       1.756  -3.792   7.393  0.00  0.00    +0.134 A 
ATOM      9  S   UNL     1       1.379  -4.228   5.697  0.00  0.00    -0.030 S 
ATOM     10  H   UNL     1       0.475  -2.729   3.174  0.00  0.00    +0.157 HD
BRANCH   8  11
ATOM     11  C   UNL     1       2.192  -4.646   8.518  0.00  0.00    +0.009 A 
ATOM     12  C   UNL     1       2.378  -6.016   8.327  0.00  0.00    +0.012 A 
ATOM     13  C   UNL     1       2.785  -6.807   9.381  0.00  0.00    +0.020 A 
ATOM     14  C   UNL     1       3.008  -6.245  10.627  0.00  0.00    +0.041 A 
ATOM     15  C   UNL     1       2.825  -4.887  10.823  0.00  0.00    +0.020 A 
ATOM     16  C   UNL     1       2.424  -4.084   9.775  0.00  0.00    +0.012 A 
ATOM     17 CL   UNL     1       3.519  -7.248  11.949  0.00  0.00    -0.084 Cl
ENDBRANCH   8  11
ENDBRANCH   1   2
BRANCH   1  18
ATOM     18  N   UNL     1      -0.420   1.137   2.461  0.00  0.00    -0.288 N 
ATOM     19  C   UNL     1      -1.418   1.715   1.763  0.00  0.00    +0.304 C 
ATOM     20  O   UNL     1      -2.223   1.024   1.168  0.00  0.00    -0.252 OA
ATOM     21  N   UNL     1      -1.525   3.058   1.726  0.00  0.00    -0.269 N 
ATOM     22  H   UNL     1       0.177   1.683   2.995  0.00  0.00    +0.151 HD
ATOM     23  H   UNL     1      -0.847   3.610   2.146  0.00  0.00    +0.156 HD
BRANCH  21  24
ATOM     24  C   UNL     1      -2.614   3.655   1.081  0.00  0.00    +0.038 A 
ATOM     25  C   UNL     1      -3.245   3.002   0.030  0.00  0.00    +0.023 A 
ATOM     26  C   UNL     1      -4.319   3.594  -0.603  0.00  0.00    +0.002 A 
ATOM     27  C   UNL     1      -4.767   4.837  -0.193  0.00  0.00    +0.000 A 
ATOM     28  C   UNL     1      -4.141   5.490   0.852  0.00  0.00    +0.005 A 
ATOM     29  C   UNL     1      -3.069   4.900   1.494  0.00  0.00    -0.029 A 
ATOM     30  C   UNL     1      -2.391   5.610   2.637  0.00  0.00    +0.045 C 
ENDBRANCH  21  24
ENDBRANCH   1  18
BRANCH   1  31
ATOM     31  C   UNL     1       0.748  -0.667   1.294  0.00  0.00    +0.015 C 
ATOM     32  C   UNL     1       0.124  -0.329  -0.062  0.00  0.00    +0.010 C 
BRANCH  31  34
ATOM     33  C   UNL     1       2.769  -0.349   2.729  0.00  0.00    +0.004 C 
ATOM     34  C   UNL     1       2.036   0.138   1.477  0.00  0.00    +0.002 C 
ENDBRANCH  31  34
ENDBRANCH   1  31
TORSDOF 6
