REMARK  Name = ZINC16936266
REMARK  10 active torsions:
REMARK  status: ('A' for Active; 'I' for Inactive)
REMARK    1  A    between atoms: C_1  and  C_2
REMARK    2  A    between atoms: N_5  and  S_8
REMARK    3  A    between atoms: S_8  and  C_11
REMARK    4  A    between atoms: C_14  and  C_17
REMARK    5  A    between atoms: C_17  and  O_19
REMARK    6  A    between atoms: O_19  and  C_20
REMARK    7  A    between atoms: C_20  and  C_22
REMARK    8  A    between atoms: C_20  and  C_23
REMARK    9  A    between atoms: N_25  and  C_26
REMARK   10  A    between atoms: C_26  and  C_27
REMARK                            x       y       z     vdW  Elec       q    Type
REMARK                         _______ _______ _______ _____ _____    ______ ____
ROOT
ATOM      1  C   UNL     1      -0.397   2.071  -5.919  0.00  0.00    +0.340 C 
ATOM      2  O   UNL     1      -1.016   3.114  -5.877  0.00  0.00    -0.245 OA
ENDROOT
BRANCH   1   6
ATOM      3  C   UNL     1       1.522   0.885  -9.517  0.00  0.00    +0.106 A 
ATOM      4  C   UNL     1       0.816   2.074  -9.473  0.00  0.00    +0.029 A 
ATOM      5  C   UNL     1       0.190   2.465  -8.307  0.00  0.00    +0.017 A 
ATOM      6  C   UNL     1       0.270   1.658  -7.171  0.00  0.00    +0.059 A 
ATOM      7  C   UNL     1       0.989   0.461  -7.221  0.00  0.00    +0.017 A 
ATOM      8  C   UNL     1       1.605   0.080  -8.395  0.00  0.00    +0.029 A 
BRANCH   3   9
ATOM      9  S   UNL     1       2.318   0.393 -11.010  0.00  0.00    +0.061 S 
ATOM     10  O   UNL     1       2.454  -1.020 -10.951  0.00  0.00    -0.153 OA
ATOM     11  O   UNL     1       1.635   1.048 -12.070  0.00  0.00    -0.153 OA
BRANCH   9  16
ATOM     12  C   UNL     1       7.627   1.482 -12.884  0.00  0.00    +0.007 C 
ATOM     13  C   UNL     1       6.474   1.568 -11.882  0.00  0.00    -0.012 C 
ATOM     14  C   UNL     1       6.091   0.159 -11.423  0.00  0.00    +0.020 C 
ATOM     15  C   UNL     1       4.960   0.251 -10.394  0.00  0.00    +0.110 C 
ATOM     16  N   UNL     1       3.851   1.018 -10.977  0.00  0.00    -0.177 NA
ATOM     17  C   UNL     1       4.129   2.348 -11.535  0.00  0.00    +0.110 C 
ATOM     18  C   UNL     1       5.268   2.235 -12.547  0.00  0.00    +0.020 C 
ENDBRANCH   9  16
ENDBRANCH   3   9
ENDBRANCH   1   6
BRANCH   1  19
ATOM     19  O   UNL     1      -0.317   1.289  -4.825  0.00  0.00    -0.449 OA
BRANCH  19  20
ATOM     20  C   UNL     1      -0.997   1.758  -3.630  0.00  0.00    +0.259 C 
ATOM     21  C   UNL     1      -2.432   1.228  -3.619  0.00  0.00    +0.062 C 
BRANCH  20  22
ATOM     22  C   UNL     1      -0.268   1.258  -2.409  0.00  0.00    +0.254 C 
ATOM     23  O   UNL     1       0.726   0.575  -2.534  0.00  0.00    -0.272 OA
ATOM     24  N   UNL     1      -0.721   1.571  -1.179  0.00  0.00    -0.308 N 
ATOM     25  H   UNL     1      -1.516   2.118  -1.079  0.00  0.00    +0.149 HD
BRANCH  24  26
ATOM     26  C   UNL     1      -0.013   1.086   0.008  0.00  0.00    +0.139 C 
BRANCH  26  27
ATOM     27  C   UNL     1      -0.718   1.572   1.248  0.00  0.00    -0.030 A 
ATOM     28  C   UNL     1      -0.359   2.779   1.818  0.00  0.00    +0.008 A 
ATOM     29  C   UNL     1      -1.009   3.228   2.953  0.00  0.00    +0.038 A 
ATOM     30  C   UNL     1      -2.012   2.463   3.524  0.00  0.00    +0.123 A 
ATOM     31  C   UNL     1      -2.367   1.252   2.955  0.00  0.00    +0.038 A 
ATOM     32  C   UNL     1      -1.719   0.807   1.817  0.00  0.00    +0.008 A 
ATOM     33  F   UNL     1      -2.644   2.899   4.635  0.00  0.00    -0.205 F 
ENDBRANCH  26  27
ENDBRANCH  24  26
ENDBRANCH  20  22
ENDBRANCH  19  20
ENDBRANCH   1  19
TORSDOF 8
