REMARK  Name = ZINC06408532
REMARK  12 active torsions:
REMARK  status: ('A' for Active; 'I' for Inactive)
REMARK    1  A    between atoms: C_1  and  C_2
REMARK    2  A    between atoms: C_9  and  C_14
REMARK    3  A    between atoms: C_14  and  C_16
REMARK    4  A    between atoms: C_14  and  N_66
REMARK    5  A    between atoms: N_20  and  C_21
REMARK    6  A    between atoms: C_21  and  C_22
REMARK    7  A    between atoms: C_21  and  C_23
REMARK    8  A    between atoms: C_21  and  C_24
REMARK    9  A    between atoms: C_25  and  C_26
REMARK   10  A    between atoms: C_25  and  N_66
REMARK   11  A    between atoms: C_33  and  C_34
REMARK   12  A    between atoms: C_33  and  N_66
REMARK                            x       y       z     vdW  Elec       q    Type
REMARK                         _______ _______ _______ _____ _____    ______ ____
ROOT
ATOM      1  C   UNL     1      -1.093  -0.197   0.113  0.00  0.00    +0.040 C 
ENDROOT
BRANCH   1  10
ATOM      2  C   UNL     1       5.707   2.838  -0.285  0.00  0.00    +0.044 C 
ATOM      3  C   UNL     1       4.207   2.976  -0.236  0.00  0.00    -0.050 A 
ATOM      4  C   UNL     1       3.631   4.239  -0.275  0.00  0.00    +0.005 A 
ATOM      5  C   UNL     1       2.262   4.388  -0.231  0.00  0.00    +0.026 A 
ATOM      6  C   UNL     1       1.447   3.264  -0.147  0.00  0.00    +0.049 A 
ATOM      7  C   UNL     1       2.035   1.986  -0.107  0.00  0.00    -0.001 A 
ATOM      8  C   UNL     1       3.427   1.858  -0.153  0.00  0.00    +0.013 A 
ATOM      9  C   UNL     1       1.169   0.808  -0.019  0.00  0.00    +0.017 A 
ATOM     10  C   UNL     1      -0.173   0.993   0.022  0.00  0.00    +0.011 A 
ATOM     11  C   UNL     1      -0.713   2.297  -0.021  0.00  0.00    +0.251 A 
ATOM     12  O   UNL     1      -1.923   2.441   0.011  0.00  0.00    -0.268 OA
ATOM     13  N   UNL     1       0.074   3.384  -0.102  0.00  0.00    -0.322 N 
ATOM     14  H   UNL     1      -0.330   4.266  -0.130  0.00  0.00    +0.169 HD
ENDBRANCH   1  10
BRANCH   1  15
ATOM     15  C   UNL     1      -1.837  -0.158   1.423  0.00  0.00    +0.143 A 
ATOM     16  N   UNL     1      -2.792   0.676   1.756  0.00  0.00    -0.115 NA
ATOM     17  N   UNL     1      -3.171   0.389   2.953  0.00  0.00    -0.023 NA
ATOM     18  N   UNL     1      -2.484  -0.607   3.393  0.00  0.00    -0.043 NA
ATOM     19  N   UNL     1      -1.654  -0.976   2.476  0.00  0.00    -0.225 N 
BRANCH  19  20
ATOM     20  C   UNL     1      -0.691  -2.076   2.566  0.00  0.00    +0.059 C 
ATOM     21  C   UNL     1       0.715  -1.549   2.268  0.00  0.00    +0.036 C 
ATOM     22  C   UNL     1      -0.724  -2.669   3.976  0.00  0.00    +0.036 C 
ATOM     23  C   UNL     1      -1.056  -3.158   1.548  0.00  0.00    +0.036 C 
ENDBRANCH  19  20
ENDBRANCH   1  15
BRANCH   1  24
ATOM     24  N   UNL     1      -2.073  -0.138  -0.992  0.00  0.00    +0.397 N 
ATOM     25  H   UNL     1      -2.722   0.638  -0.821  0.00  0.00    -0.079 HD
BRANCH  24  26
ATOM     26  C   UNL     1      -1.374   0.094  -2.274  0.00  0.00    -0.041 C 
BRANCH  26  27
ATOM     27  C   UNL     1      -2.397   0.418  -3.332  0.00  0.00    -0.064 A 
ATOM     28  C   UNL     1      -2.848  -0.574  -4.183  0.00  0.00    +0.004 A 
ATOM     29  C   UNL     1      -3.790  -0.279  -5.151  0.00  0.00    +0.038 A 
ATOM     30  C   UNL     1      -4.273   1.013  -5.275  0.00  0.00    +0.123 A 
ATOM     31  C   UNL     1      -3.817   2.006  -4.426  0.00  0.00    +0.038 A 
ATOM     32  C   UNL     1      -2.879   1.708  -3.455  0.00  0.00    +0.004 A 
ATOM     33  F   UNL     1      -5.190   1.303  -6.224  0.00  0.00    -0.205 F 
ENDBRANCH  26  27
ENDBRANCH  24  26
BRANCH  24  34
ATOM     34  C   UNL     1      -2.839  -1.400  -1.056  0.00  0.00    -0.001 C 
BRANCH  34  35
ATOM     35  C   UNL     1      -3.922  -1.360  -0.009  0.00  0.00    +0.089 A 
ATOM     36  C   UNL     1      -5.118  -0.757  -0.137  0.00  0.00    +0.042 A 
ATOM     37  C   UNL     1      -5.814  -0.966   1.076  0.00  0.00    +0.041 A 
ATOM     38  C   UNL     1      -5.002  -1.684   1.873  0.00  0.00    +0.195 A 
ATOM     39  O   UNL     1      -3.860  -1.925   1.208  0.00  0.00    -0.470 OA
ENDBRANCH  34  35
ENDBRANCH  24  34
ENDBRANCH   1  24
TORSDOF 8
