REMARK  Name = ZINC57580699
REMARK  8 active torsions:
REMARK  status: ('A' for Active; 'I' for Inactive)
REMARK    1  A    between atoms: C_1  and  C_2
REMARK    2  A    between atoms: C_2  and  C_4
REMARK    3  A    between atoms: C_2  and  N_11
REMARK    4  A    between atoms: C_12  and  C_14
REMARK    5  A    between atoms: C_14  and  C_16
REMARK    6  A    between atoms: C_14  and  N_17
REMARK    7  A    between atoms: N_20  and  C_23
REMARK    8  A    between atoms: C_26  and  N_33
REMARK                            x       y       z     vdW  Elec       q    Type
REMARK                         _______ _______ _______ _____ _____    ______ ____
ROOT
ATOM      1  N   UNL     1      -0.278  -1.070  -4.686  0.00  0.00    -0.289 NA
ATOM      2  C   UNL     1      -1.433  -1.866  -4.249  0.00  0.00    +0.104 C 
ATOM      3  C   UNL     1      -2.583  -1.681  -5.245  0.00  0.00    +0.120 C 
ATOM      4  N   UNL     1      -2.087  -1.993  -6.594  0.00  0.00    -0.327 N 
ATOM      5  C   UNL     1      -0.853  -1.336  -7.051  0.00  0.00    +0.120 C 
ATOM      6  C   UNL     1       0.229  -1.534  -5.984  0.00  0.00    +0.104 C 
ENDROOT
BRANCH   4   7
ATOM      7  C   UNL     1      -2.768  -2.888  -7.417  0.00  0.00    +0.038 A 
ATOM      8  C   UNL     1      -3.748  -2.438  -8.277  0.00  0.00    +0.026 A 
ATOM      9  C   UNL     1      -4.433  -3.325  -9.102  0.00  0.00    +0.035 A 
ATOM     10  C   UNL     1      -4.159  -4.659  -9.086  0.00  0.00    +0.135 A 
ATOM     11  C   UNL     1      -3.168  -5.158  -8.226  0.00  0.00    +0.032 A 
ATOM     12  C   UNL     1      -2.459  -4.262  -7.384  0.00  0.00    +0.008 A 
ATOM     13  C   UNL     1      -1.469  -4.787  -6.537  0.00  0.00    +0.030 A 
ATOM     14  C   UNL     1      -1.229  -6.128  -6.564  0.00  0.00    +0.111 A 
ATOM     15  N   UNL     1      -1.902  -6.943  -7.365  0.00  0.00    -0.263 NA
ATOM     16  C   UNL     1      -2.848  -6.524  -8.172  0.00  0.00    +0.121 A 
BRANCH  10  17
ATOM     17  N   UNL     1      -4.903  -5.581  -9.973  0.00  0.00    +0.057 N 
ATOM     18  O   UNL     1      -5.192  -5.238 -11.096  0.00  0.00    -0.126 OA
ATOM     19  O   UNL     1      -5.223  -6.677  -9.575  0.00  0.00    -0.126 OA
ENDBRANCH  10  17
ENDBRANCH   4   7
BRANCH   1  20
ATOM     20  C   UNL     1       0.784  -1.083  -3.671  0.00  0.00    +0.140 C 
ATOM     21  C   UNL     1       1.507  -2.431  -3.707  0.00  0.00    +0.034 C 
BRANCH  20  23
ATOM     22  N   UNL     1       2.740   0.307  -3.071  0.00  0.00    -0.307 N 
ATOM     23  C   UNL     1       1.767   0.022  -3.959  0.00  0.00    +0.230 C 
ATOM     24  O   UNL     1       1.683   0.655  -4.991  0.00  0.00    -0.274 OA
ATOM     25  H   UNL     1       2.808  -0.199  -2.247  0.00  0.00    +0.149 HD
BRANCH  22  27
ATOM     26  C   UNL     1       4.840   0.836  -4.208  0.00  0.00    +0.033 C 
ATOM     27  C   UNL     1       3.696   1.382  -3.352  0.00  0.00    +0.100 C 
BRANCH  27  28
ATOM     28  C   UNL     1       4.249   1.913  -2.054  0.00  0.00    -0.027 A 
ATOM     29  C   UNL     1       4.562   1.041  -1.028  0.00  0.00    +0.008 A 
ATOM     30  C   UNL     1       5.070   1.528   0.162  0.00  0.00    +0.038 A 
ATOM     31  C   UNL     1       5.264   2.889   0.326  0.00  0.00    +0.123 A 
ATOM     32  C   UNL     1       4.950   3.761  -0.703  0.00  0.00    +0.038 A 
ATOM     33  C   UNL     1       4.448   3.272  -1.893  0.00  0.00    +0.008 A 
ATOM     34  F   UNL     1       5.760   3.365   1.489  0.00  0.00    -0.205 F 
ENDBRANCH  27  28
ENDBRANCH  22  27
ENDBRANCH  20  23
ENDBRANCH   1  20
TORSDOF 6
