REMARK  Name = ZINC57802982
REMARK  5 active torsions:
REMARK  status: ('A' for Active; 'I' for Inactive)
REMARK    1  A    between atoms: C_1  and  C_2
REMARK    2  A    between atoms: C_2  and  C_3
REMARK    3  A    between atoms: C_3  and  C_4
REMARK    4  A    between atoms: C_4  and  C_5
REMARK    5  A    between atoms: N_13  and  C_14
REMARK                            x       y       z     vdW  Elec       q    Type
REMARK                         _______ _______ _______ _____ _____    ______ ____
ROOT
ATOM      1  C   UNL     1       1.444  -2.513  -2.505  0.00  0.00    +0.111 A 
ATOM      2  N   UNL     1       0.866  -2.758  -3.644  0.00  0.00    -0.232 NA
ATOM      3  C   UNL     1       1.791  -3.179  -4.546  0.00  0.00    +0.093 A 
ATOM      4  C   UNL     1       1.719  -3.568  -5.887  0.00  0.00    +0.079 A 
ATOM      5  C   UNL     1       2.863  -3.956  -6.552  0.00  0.00    +0.168 A 
ATOM      6  C   UNL     1       4.095  -3.961  -5.892  0.00  0.00    +0.168 A 
ATOM      7  C   UNL     1       4.176  -3.579  -4.566  0.00  0.00    +0.077 A 
ATOM      8  C   UNL     1       3.031  -3.187  -3.887  0.00  0.00    +0.073 A 
ATOM      9  N   UNL     1       2.780  -2.755  -2.598  0.00  0.00    -0.324 N 
ATOM     10  O   UNL     1       5.056  -4.381  -6.768  0.00  0.00    -0.453 OA
ATOM     11  C   UNL     1       4.343  -5.022  -7.842  0.00  0.00    +0.466 C 
ATOM     12  O   UNL     1       3.058  -4.372  -7.839  0.00  0.00    -0.453 OA
ENDROOT
BRANCH   9  13
ATOM     13  C   UNL     1       3.769  -2.591  -1.530  0.00  0.00    +0.085 C 
ATOM     14  C   UNL     1       4.830  -1.576  -1.965  0.00  0.00    +0.006 C 
ATOM     15  C   UNL     1       5.902  -1.469  -0.878  0.00  0.00    -0.081 C 
ATOM     16  N   UNL     1       6.531  -2.780  -0.675  0.00  0.00    +0.379 N 
ATOM     17  C   UNL     1       5.533  -3.740  -0.188  0.00  0.00    -0.081 C 
ATOM     18  C   UNL     1       4.447  -3.935  -1.248  0.00  0.00    +0.006 C 
ATOM     19  H   UNL     1       6.913  -3.107  -1.549  0.00  0.00    -0.086 HD
ATOM     20  H   UNL     1       7.273  -2.694   0.004  0.00  0.00    -0.086 HD
ENDBRANCH   9  13
BRANCH   1  21
ATOM     21  C   UNL     1       0.739  -2.027  -1.265  0.00  0.00    +0.074 C 
BRANCH  21  22
ATOM     22  C   UNL     1       0.718  -0.497  -1.257  0.00  0.00    +0.007 C 
BRANCH  22  24
ATOM     23  C   UNL     1      -0.019   1.526   0.010  0.00  0.00    +0.004 C 
ATOM     24  C   UNL     1       0.002  -0.004   0.002  0.00  0.00    -0.003 C 
ENDBRANCH  22  24
ENDBRANCH  21  22
ENDBRANCH   1  21
TORSDOF 4
