REMARK  Name = ZINC43015271
REMARK  7 active torsions:
REMARK  status: ('A' for Active; 'I' for Inactive)
REMARK    1  A    between atoms: C_1  and  C_2
REMARK    2  A    between atoms: N_5  and  C_18
REMARK    3  A    between atoms: C_7  and  N_9
REMARK    4  A    between atoms: C_10  and  C_12
REMARK    5  A    between atoms: C_18  and  C_19
REMARK    6  A    between atoms: N_21  and  C_22
REMARK    7  A    between atoms: C_25  and  N_29
REMARK                            x       y       z     vdW  Elec       q    Type
REMARK                         _______ _______ _______ _____ _____    ______ ____
ROOT
ATOM      1  C   UNL     1       2.397  -2.328  -1.556  0.00  0.00    +0.019 C 
ENDROOT
BRANCH   1   5
ATOM      2  C   UNL     1      -0.042   1.521  -0.023  0.00  0.00    +0.007 C 
ATOM      3  C   UNL     1      -0.013  -0.009  -0.018  0.00  0.00    -0.012 C 
ATOM      4  C   UNL     1       0.788  -0.546  -1.231  0.00  0.00    -0.073 C 
ATOM      5  N   UNL     1       1.229  -1.890  -0.779  0.00  0.00    +0.387 N 
ATOM      6  C   UNL     1       1.593  -1.737   0.646  0.00  0.00    -0.055 C 
ATOM      7  C   UNL     1       0.790  -0.538   1.192  0.00  0.00    +0.058 C 
ATOM      8  H   UNL     1       0.476  -2.554  -0.876  0.00  0.00    -0.081 HD
BRANCH   7   9
ATOM      9  N   UNL     1      -0.120  -0.972   2.255  0.00  0.00    -0.310 N 
ATOM     10  C   UNL     1       0.299  -0.987   3.536  0.00  0.00    +0.251 C 
ATOM     11  O   UNL     1       1.433  -0.640   3.810  0.00  0.00    -0.270 OA
ATOM     12  H   UNL     1      -1.024  -1.248   2.037  0.00  0.00    +0.149 HD
BRANCH  10  13
ATOM     13  C   UNL     1      -0.611  -1.421   4.599  0.00  0.00    +0.075 A 
ATOM     14  C   UNL     1      -0.383  -1.505   5.965  0.00  0.00    +0.022 A 
ATOM     15  C   UNL     1      -1.440  -1.952   6.720  0.00  0.00    +0.028 A 
ATOM     16  C   UNL     1      -2.604  -2.274   6.100  0.00  0.00    +0.079 A 
ATOM     17  S   UNL     1      -2.302  -1.972   4.475  0.00  0.00    -0.072 S 
ATOM     18 CL   UNL     1      -4.071  -2.858   6.821  0.00  0.00    -0.076 Cl
ENDBRANCH  10  13
ENDBRANCH   7   9
ENDBRANCH   1   5
BRANCH   1  19
ATOM     19  C   UNL     1       2.756  -3.740  -1.171  0.00  0.00    +0.201 C 
ATOM     20  O   UNL     1       2.103  -4.324  -0.332  0.00  0.00    -0.278 OA
ATOM     21  N   UNL     1       3.802  -4.353  -1.758  0.00  0.00    -0.285 N 
ATOM     22  H   UNL     1       4.285  -3.910  -2.473  0.00  0.00    +0.155 HD
BRANCH  21  23
ATOM     23  C   UNL     1       4.193  -5.631  -1.336  0.00  0.00    +0.069 A 
ATOM     24  C   UNL     1       3.236  -6.545  -0.915  0.00  0.00    +0.028 A 
ATOM     25  C   UNL     1       3.621  -7.804  -0.499  0.00  0.00    +0.028 A 
ATOM     26  C   UNL     1       4.964  -8.157  -0.502  0.00  0.00    +0.052 A 
ATOM     27  C   UNL     1       5.922  -7.244  -0.923  0.00  0.00    +0.066 A 
ATOM     28  C   UNL     1       5.537  -5.985  -1.345  0.00  0.00    +0.146 A 
ATOM     29  F   UNL     1       6.468  -5.098  -1.759  0.00  0.00    -0.203 F 
BRANCH  26  30
ATOM     30  N   UNL     1       5.353  -9.435  -0.079  0.00  0.00    -0.284 N 
ATOM     31  C   UNL     1       6.103  -9.571   1.046  0.00  0.00    +0.095 A 
ATOM     32  C   UNL     1       6.490 -10.796   1.474  0.00  0.00    +0.018 A 
ATOM     33  C   UNL     1       6.117 -11.939   0.753  0.00  0.00    +0.007 A 
ATOM     34  C   UNL     1       5.363 -11.800  -0.376  0.00  0.00    +0.071 A 
ATOM     35  C   UNL     1       4.974 -10.515  -0.789  0.00  0.00    +0.256 A 
ATOM     36  O   UNL     1       4.296 -10.377  -1.794  0.00  0.00    -0.267 OA
ENDBRANCH  26  30
ENDBRANCH  21  23
ENDBRANCH   1  19
TORSDOF 6
