REMARK  Name = ZINC09347705
REMARK  7 active torsions:
REMARK  status: ('A' for Active; 'I' for Inactive)
REMARK    1  A    between atoms: C_1  and  C_2
REMARK    2  A    between atoms: C_9  and  N_26
REMARK    3  A    between atoms: C_10  and  C_13
REMARK    4  A    between atoms: C_14  and  C_15
REMARK    5  A    between atoms: C_14  and  C_17
REMARK    6  A    between atoms: N_19  and  C_20
REMARK    7  A    between atoms: C_30  and  C_33
REMARK                            x       y       z     vdW  Elec       q    Type
REMARK                         _______ _______ _______ _____ _____    ______ ____
ROOT
ATOM      1  C   UNL     1       3.466  -2.223  -0.545  0.00  0.00    +0.047 C 
ATOM      2  C   UNL     1       3.502  -0.757  -0.196  0.00  0.00    -0.007 A 
ATOM      3  C   UNL     1       4.693  -0.137   0.039  0.00  0.00    +0.008 A 
ATOM      4  C   UNL     1       4.710   1.227   0.362  0.00  0.00    +0.019 A 
ATOM      5  C   UNL     1       3.552   1.919   0.440  0.00  0.00    +0.096 A 
ATOM      6  N   UNL     1       2.356   1.308   0.206  0.00  0.00    -0.267 N 
ATOM      7  C   UNL     1       2.307  -0.020  -0.111  0.00  0.00    +0.145 A 
ATOM      8  N   UNL     1       1.148  -0.638  -0.343  0.00  0.00    -0.213 NA
ATOM      9  C   UNL     1      -0.008   0.004  -0.277  0.00  0.00    +0.136 A 
ATOM     10  C   UNL     1      -0.022   1.385   0.047  0.00  0.00    +0.081 A 
ATOM     11  C   UNL     1       1.218   2.030   0.292  0.00  0.00    +0.267 A 
ATOM     12  O   UNL     1       1.256   3.215   0.574  0.00  0.00    -0.267 OA
ENDROOT
BRANCH   9  13
ATOM     13  N   UNL     1      -1.186  -0.662  -0.523  0.00  0.00    -0.314 N 
ATOM     14  C   UNL     1      -1.804  -0.197  -1.771  0.00  0.00    +0.106 C 
ATOM     15  C   UNL     1      -3.178  -0.851  -1.937  0.00  0.00    +0.019 C 
ATOM     16  C   UNL     1      -3.012  -2.373  -1.964  0.00  0.00    +0.006 C 
ATOM     17  C   UNL     1      -2.323  -2.827  -0.674  0.00  0.00    +0.003 C 
ATOM     18  C   UNL     1      -0.974  -2.115  -0.545  0.00  0.00    +0.109 C 
ATOM     19  C   UNL     1      -2.100  -4.340  -0.719  0.00  0.00    +0.009 C 
ENDBRANCH   9  13
BRANCH  10  20
ATOM     20  C   UNL     1      -1.232   2.097   0.119  0.00  0.00    +0.040 C 
ATOM     21  C   UNL     1      -2.239   1.671   0.975  0.00  0.00    +0.114 C 
BRANCH  21  22
ATOM     22  C   UNL     1      -3.548   2.332   0.955  0.00  0.00    +0.255 C 
ATOM     23  O   UNL     1      -3.752   3.254   0.187  0.00  0.00    -0.269 OA
ATOM     24  N   UNL     1      -4.525   1.917   1.786  0.00  0.00    -0.308 N 
ATOM     25  H   UNL     1      -4.362   1.182   2.397  0.00  0.00    +0.149 HD
BRANCH  24  26
ATOM     26  C   UNL     1      -5.832   2.578   1.765  0.00  0.00    +0.073 C 
ATOM     27  C   UNL     1      -5.793   3.815   2.664  0.00  0.00    +0.022 C 
ATOM     28  C   UNL     1      -7.159   4.504   2.643  0.00  0.00    +0.002 C 
ATOM     29  C   UNL     1      -8.227   3.536   3.154  0.00  0.00    +0.000 C 
ATOM     30  C   UNL     1      -8.266   2.299   2.254  0.00  0.00    +0.002 C 
ATOM     31  C   UNL     1      -6.901   1.609   2.276  0.00  0.00    +0.022 C 
ENDBRANCH  24  26
ENDBRANCH  21  22
BRANCH  21  32
ATOM     32  C   UNL     1      -1.999   0.585   1.878  0.00  0.00    +0.104 C 
ATOM     33  N   UNL     1      -1.808  -0.276   2.594  0.00  0.00    -0.191 NA
ENDBRANCH  21  32
ENDBRANCH  10  20
TORSDOF 5
