REMARK  Name = ZINC45873523
REMARK  7 active torsions:
REMARK  status: ('A' for Active; 'I' for Inactive)
REMARK    1  A    between atoms: C_1  and  C_2
REMARK    2  A    between atoms: C_9  and  N_14
REMARK    3  A    between atoms: C_15  and  C_17
REMARK    4  A    between atoms: C_17  and  C_27
REMARK    5  A    between atoms: C_18  and  C_19
REMARK    6  A    between atoms: C_24  and  O_25
REMARK    7  A    between atoms: O_25  and  C_26
REMARK                            x       y       z     vdW  Elec       q    Type
REMARK                         _______ _______ _______ _____ _____    ______ ____
ROOT
ATOM      1  N   UNL     1       6.351   0.243   0.859  0.00  0.00    -0.281 N 
ATOM      2  C   UNL     1       6.889   0.355   2.089  0.00  0.00    +0.249 C 
ATOM      3  O   UNL     1       6.261  -0.013   3.064  0.00  0.00    -0.270 OA
ATOM      4  H   UNL     1       6.877   0.471   0.077  0.00  0.00    +0.155 HD
ENDROOT
BRANCH   1  12
ATOM      5  C   UNL     1       0.965  -3.158   2.043  0.00  0.00    +0.062 C 
ATOM      6  C   UNL     1       0.438  -1.838   1.476  0.00  0.00    +0.256 C 
ATOM      7  C   UNL     1       0.648  -0.739   2.486  0.00  0.00    +0.258 C 
ATOM      8  O   UNL     1      -0.221  -0.478   3.291  0.00  0.00    -0.271 OA
ATOM      9  N   UNL     1       1.807  -0.045   2.490  0.00  0.00    -0.279 N 
ATOM     10  C   UNL     1       2.780  -0.343   1.526  0.00  0.00    +0.077 A 
ATOM     11  C   UNL     1       4.083   0.101   1.677  0.00  0.00    +0.050 A 
ATOM     12  C   UNL     1       5.032  -0.203   0.710  0.00  0.00    +0.036 A 
ATOM     13  C   UNL     1       4.673  -0.949  -0.406  0.00  0.00    +0.027 A 
ATOM     14  C   UNL     1       3.373  -1.392  -0.557  0.00  0.00    +0.049 A 
ATOM     15  C   UNL     1       2.424  -1.092   0.406  0.00  0.00    +0.143 A 
ATOM     16  O   UNL     1       1.141  -1.523   0.271  0.00  0.00    -0.478 OA
ATOM     17  H   UNL     1       1.963   0.648   3.150  0.00  0.00    +0.155 HD
ENDBRANCH   1  12
BRANCH   2  18
ATOM     18  C   UNL     1       8.235   0.923   2.254  0.00  0.00    +0.045 C 
ATOM     19  C   UNL     1       8.779   1.037   3.497  0.00  0.00    +0.025 C 
BRANCH  19  20
ATOM     20  C   UNL     1      10.172   1.468   3.651  0.00  0.00    +0.017 A 
ATOM     21  C   UNL     1      11.148   1.036   2.744  0.00  0.00    +0.011 A 
ATOM     22  C   UNL     1      12.454   1.446   2.896  0.00  0.00    +0.001 A 
ATOM     23  C   UNL     1      12.808   2.284   3.942  0.00  0.00    +0.004 A 
ATOM     24  C   UNL     1      11.857   2.718   4.844  0.00  0.00    +0.046 A 
ATOM     25  C   UNL     1      10.536   2.322   4.706  0.00  0.00    +0.127 A 
BRANCH  25  26
ATOM     26  O   UNL     1       9.599   2.752   5.589  0.00  0.00    -0.495 OA
ATOM     27  C   UNL     1      10.043   3.618   6.635  0.00  0.00    +0.277 C 
ENDBRANCH  25  26
ENDBRANCH  19  20
BRANCH  18  28
ATOM     28  C   UNL     1       8.999   1.372   1.067  0.00  0.00    -0.013 A 
ATOM     29  C   UNL     1       9.310   2.722   0.903  0.00  0.00    +0.008 A 
ATOM     30  C   UNL     1      10.023   3.133  -0.204  0.00  0.00    +0.001 A 
ATOM     31  C   UNL     1      10.429   2.210  -1.151  0.00  0.00    +0.000 A 
ATOM     32  C   UNL     1      10.125   0.870  -0.994  0.00  0.00    +0.001 A 
ATOM     33  C   UNL     1       9.417   0.445   0.112  0.00  0.00    +0.008 A 
ENDBRANCH  18  28
ENDBRANCH   2  18
TORSDOF 5
