REMARK  Name = ZINC33498246
REMARK  17 active torsions:
REMARK  status: ('A' for Active; 'I' for Inactive)
REMARK    1  A    between atoms: C_1  and  C_2
REMARK    2  A    between atoms: C_2  and  C_3
REMARK    3  A    between atoms: C_3  and  C_4
REMARK    4  A    between atoms: C_4  and  C_5
REMARK    5  A    between atoms: C_5  and  C_7
REMARK    6  A    between atoms: C_5  and  C_9
REMARK    7  A    between atoms: C_7  and  C_8
REMARK    8  A    between atoms: C_9  and  N_10
REMARK    9  A    between atoms: C_14  and  C_15
REMARK   10  A    between atoms: C_16  and  N_27
REMARK   11  A    between atoms: C_21  and  C_26
REMARK   12  A    between atoms: N_27  and  C_28
REMARK   13  A    between atoms: C_28  and  C_29
REMARK   14  A    between atoms: C_29  and  O_30
REMARK   15  A    between atoms: O_30  and  C_31
REMARK   16  A    between atoms: C_31  and  C_32
REMARK   17  A    between atoms: C_32  and  O_33
REMARK                            x       y       z     vdW  Elec       q    Type
REMARK                         _______ _______ _______ _____ _____    ______ ____
ROOT
ATOM      1  C   UNL     1       0.788   2.659  -0.874  0.00  0.00    +0.081 A 
ATOM      2  C   UNL     1       2.129   2.263  -1.091  0.00  0.00    +0.134 A 
ATOM      3  N   UNL     1       3.040   3.178  -1.390  0.00  0.00    -0.214 NA
ATOM      4  C   UNL     1       2.727   4.470  -1.493  0.00  0.00    +0.142 A 
ATOM      5  C   UNL     1       3.736   5.395  -1.813  0.00  0.00    +0.047 A 
ATOM      6  C   UNL     1       3.426   6.718  -1.921  0.00  0.00    +0.008 A 
ATOM      7  C   UNL     1       2.105   7.138  -1.712  0.00  0.00    -0.034 A 
ATOM      8  C   UNL     1       1.147   6.234  -1.405  0.00  0.00    +0.099 A 
ATOM      9  N   UNL     1       1.448   4.909  -1.294  0.00  0.00    -0.267 N 
ATOM     10  C   UNL     1       0.466   4.032  -0.991  0.00  0.00    +0.267 A 
ATOM     11  O   UNL     1      -0.677   4.418  -0.817  0.00  0.00    -0.267 OA
ATOM     12  C   UNL     1       1.752   8.598  -1.830  0.00  0.00    +0.045 C 
ENDROOT
BRANCH   1  17
ATOM     13  N   UNL     1      -1.313   2.439   2.861  0.00  0.00    -0.255 N 
ATOM     14  C   UNL     1      -0.605   2.627   1.761  0.00  0.00    +0.258 C 
ATOM     15  O   UNL     1       0.194   3.543   1.679  0.00  0.00    -0.269 OA
ATOM     16  C   UNL     1      -0.803   1.729   0.674  0.00  0.00    +0.077 C 
ATOM     17  C   UNL     1      -0.206   1.706  -0.554  0.00  0.00    +0.037 C 
ATOM     18  S   UNL     1      -2.052   0.644   1.351  0.00  0.00    -0.061 S 
ATOM     19  C   UNL     1      -2.200   1.423   2.951  0.00  0.00    +0.121 C 
ATOM     20  S   UNL     1      -3.213   0.996   4.264  0.00  0.00    -0.027 S 
BRANCH  13  21
ATOM     21  C   UNL     1      -1.134   3.345   3.998  0.00  0.00    +0.118 C 
BRANCH  21  22
ATOM     22  C   UNL     1      -1.983   4.600   3.789  0.00  0.00    +0.007 C 
BRANCH  22  23
ATOM     23  C   UNL     1      -3.466   4.226   3.836  0.00  0.00    +0.002 C 
ATOM     24  C   UNL     1      -3.827   3.744   5.242  0.00  0.00    +0.004 C 
ENDBRANCH  22  23
BRANCH  22  25
ATOM     25  C   UNL     1      -1.677   5.612   4.895  0.00  0.00    +0.005 C 
BRANCH  25  26
ATOM     26  C   UNL     1      -2.430   6.915   4.616  0.00  0.00    +0.000 C 
BRANCH  26  28
ATOM     27  C   UNL     1      -2.777   9.272   5.370  0.00  0.00    +0.004 C 
ATOM     28  C   UNL     1      -2.025   7.969   5.649  0.00  0.00    -0.003 C 
ENDBRANCH  26  28
ENDBRANCH  25  26
ENDBRANCH  22  25
ENDBRANCH  21  22
ENDBRANCH  13  21
ENDBRANCH   1  17
BRANCH   2  29
ATOM     29  N   UNL     1       2.485   0.936  -0.991  0.00  0.00    -0.326 N 
ATOM     30  H   UNL     1       1.726   0.180  -0.742  0.00  0.00    +0.148 HD
BRANCH  29  31
ATOM     31  C   UNL     1       3.875   0.532  -1.217  0.00  0.00    +0.131 C 
BRANCH  31  32
ATOM     32  C   UNL     1       4.000  -0.984  -1.047  0.00  0.00    +0.178 C 
BRANCH  32  33
ATOM     33  O   UNL     1       3.244  -1.641  -2.066  0.00  0.00    -0.376 OA
BRANCH  33  34
ATOM     34  C   UNL     1       3.294  -3.067  -1.998  0.00  0.00    +0.187 C 
BRANCH  34  35
ATOM     35  C   UNL     1       2.455  -3.662  -3.131  0.00  0.00    +0.184 C 
BRANCH  35  36
ATOM     36  O   UNL     1       3.044  -3.323  -4.388  0.00  0.00    -0.393 OA
ATOM     37  H   UNL     1       2.578  -3.665  -5.324  0.00  0.00    +0.209 HD
ENDBRANCH  35  36
ENDBRANCH  34  35
ENDBRANCH  33  34
ENDBRANCH  32  33
ENDBRANCH  31  32
ENDBRANCH  29  31
ENDBRANCH   2  29
TORSDOF 14
