REMARK  Name = ZINC39606648
REMARK  8 active torsions:
REMARK  status: ('A' for Active; 'I' for Inactive)
REMARK    1  A    between atoms: C_1  and  C_2
REMARK    2  A    between atoms: C_2  and  C_3
REMARK    3  A    between atoms: C_3  and  C_5
REMARK    4  A    between atoms: C_3  and  C_6
REMARK    5  A    between atoms: C_6  and  N_7
REMARK    6  A    between atoms: C_8  and  C_10
REMARK    7  A    between atoms: C_21  and  C_23
REMARK    8  A    between atoms: C_26  and  C_28
REMARK                            x       y       z     vdW  Elec       q    Type
REMARK                         _______ _______ _______ _____ _____    ______ ____
ROOT
ATOM      1  C   UNL     1       2.767  -4.311   3.595  0.00  0.00    +0.100 C 
ATOM      2  C   UNL     1       4.231  -3.844   3.437  0.00  0.00    +0.121 C 
ATOM      3  N   UNL     1       5.042  -4.980   3.934  0.00  0.00    -0.294 N 
ATOM      4  C   UNL     1       4.336  -6.184   3.435  0.00  0.00    +0.115 C 
ATOM      5  C   UNL     1       2.840  -5.848   3.593  0.00  0.00    -0.004 C 
ATOM      6  C   UNL     1       2.310  -6.403   4.912  0.00  0.00    -0.010 C 
ATOM      7  C   UNL     1       2.340  -7.934   4.863  0.00  0.00    -0.082 C 
ATOM      8  N   UNL     1       1.516  -8.406   3.744  0.00  0.00    +0.379 N 
ATOM      9  C   UNL     1       2.086  -7.943   2.473  0.00  0.00    -0.082 C 
ATOM     10  C   UNL     1       2.045  -6.413   2.420  0.00  0.00    -0.010 C 
ATOM     11  C   UNL     1       6.168  -4.930   4.673  0.00  0.00    +0.282 C 
ATOM     12  O   UNL     1       6.724  -5.961   5.006  0.00  0.00    -0.267 OA
ATOM     13  H   UNL     1       1.488  -9.414   3.751  0.00  0.00    -0.086 HD
ATOM     14  H   UNL     1       0.579  -8.045   3.842  0.00  0.00    -0.086 HD
ENDROOT
BRANCH  11  15
ATOM     15  C   UNL     1       6.723  -3.636   5.076  0.00  0.00    +0.190 A 
ATOM     16  C   UNL     1       7.864  -3.442   5.823  0.00  0.00    +0.055 A 
ATOM     17  C   UNL     1       8.020  -2.060   5.971  0.00  0.00    +0.050 A 
ATOM     18  C   UNL     1       6.980  -1.466   5.315  0.00  0.00    +0.136 A 
ATOM     19  O   UNL     1       6.208  -2.425   4.775  0.00  0.00    -0.450 OA
BRANCH  18  20
ATOM     20  C   UNL     1       6.745  -0.012   5.212  0.00  0.00    +0.017 A 
ATOM     21  C   UNL     1       7.632   0.885   5.810  0.00  0.00    +0.014 A 
ATOM     22  C   UNL     1       7.408   2.242   5.710  0.00  0.00    +0.039 A 
ATOM     23  C   UNL     1       6.305   2.716   5.016  0.00  0.00    +0.123 A 
ATOM     24  C   UNL     1       5.422   1.830   4.420  0.00  0.00    +0.039 A 
ATOM     25  C   UNL     1       5.639   0.471   4.509  0.00  0.00    +0.014 A 
ATOM     26  F   UNL     1       6.091   4.046   4.921  0.00  0.00    -0.205 F 
ENDBRANCH  18  20
ENDBRANCH  11  15
BRANCH   1  28
ATOM     27  N   UNL     1       0.616  -3.593   2.608  0.00  0.00    -0.315 N 
ATOM     28  C   UNL     1       1.933  -3.824   2.438  0.00  0.00    +0.218 C 
ATOM     29  O   UNL     1       2.446  -3.640   1.355  0.00  0.00    -0.275 OA
ATOM     30  H   UNL     1       0.204  -3.741   3.474  0.00  0.00    +0.149 HD
BRANCH  27  31
ATOM     31  C   UNL     1      -0.195  -3.120   1.483  0.00  0.00    +0.107 C 
BRANCH  31  32
ATOM     32  C   UNL     1      -1.644  -2.939   1.940  0.00  0.00    +0.003 C 
ATOM     33  C   UNL     1      -2.233  -4.299   2.319  0.00  0.00    +0.009 C 
BRANCH  32  35
ATOM     34  C   UNL     1      -3.882  -2.031   1.298  0.00  0.00    +0.004 C 
ATOM     35  C   UNL     1      -2.465  -2.327   0.803  0.00  0.00    +0.001 C 
ENDBRANCH  32  35
ENDBRANCH  31  32
ENDBRANCH  27  31
ENDBRANCH   1  28
TORSDOF 6
