REMARK  Name = ZINC20546378
REMARK  7 active torsions:
REMARK  status: ('A' for Active; 'I' for Inactive)
REMARK    1  A    between atoms: C_1  and  C_2
REMARK    2  A    between atoms: C_2  and  C_3
REMARK    3  A    between atoms: C_3  and  C_5
REMARK    4  A    between atoms: C_3  and  N_13
REMARK    5  A    between atoms: C_10  and  O_11
REMARK    6  A    between atoms: N_13  and  C_14
REMARK    7  A    between atoms: C_14  and  C_15
REMARK                            x       y       z     vdW  Elec       q    Type
REMARK                         _______ _______ _______ _____ _____    ______ ____
ROOT
ATOM      1  C   UNL     1       1.363  -4.113  -1.443  0.00  0.00    -0.037 C 
ENDROOT
BRANCH   1   2
ATOM      2  C   UNL     1       0.881  -4.524  -2.810  0.00  0.00    -0.019 A 
ATOM      3  C   UNL     1       0.896  -3.614  -3.850  0.00  0.00    +0.020 A 
ATOM      4  C   UNL     1       0.459  -3.993  -5.107  0.00  0.00    +0.018 A 
ATOM      5  C   UNL     1      -0.004  -5.279  -5.323  0.00  0.00    +0.019 A 
ATOM      6  C   UNL     1      -0.025  -6.189  -4.284  0.00  0.00    +0.047 A 
ATOM      7  C   UNL     1       0.418  -5.814  -3.024  0.00  0.00    +0.119 A 
ATOM      8 BR   UNL     1       0.487  -2.748  -6.531  0.00  0.00    -0.050 Br
BRANCH   7   9
ATOM      9  O   UNL     1       0.398  -6.708  -2.001  0.00  0.00    -0.507 OA
ATOM     10  H   UNL     1       0.031  -7.731  -2.172  0.00  0.00    +0.292 HD
ENDBRANCH   7   9
ENDBRANCH   1   2
BRANCH   1  11
ATOM     11  N   UNL     1       1.229  -2.657  -1.294  0.00  0.00    +0.386 N 
ATOM     12  H   UNL     1       2.099  -2.161  -1.750  0.00  0.00    -0.085 HD
ATOM     13  H   UNL     1       0.310  -2.320  -1.795  0.00  0.00    -0.085 HD
BRANCH  11  14
ATOM     14  C   UNL     1       1.160  -2.277   0.124  0.00  0.00    -0.046 C 
BRANCH  14  15
ATOM     15  C   UNL     1       1.148  -0.775   0.241  0.00  0.00    -0.064 A 
ATOM     16  C   UNL     1      -0.053  -0.091   0.237  0.00  0.00    +0.003 A 
ATOM     17  C   UNL     1      -0.065   1.287   0.346  0.00  0.00    +0.020 A 
ATOM     18  C   UNL     1       1.127   1.982   0.457  0.00  0.00    +0.041 A 
ATOM     19  C   UNL     1       2.329   1.296   0.459  0.00  0.00    +0.020 A 
ATOM     20  C   UNL     1       2.339  -0.081   0.352  0.00  0.00    +0.003 A 
ATOM     21 CL   UNL     1       1.113   3.712   0.592  0.00  0.00    -0.084 Cl
ENDBRANCH  14  15
ENDBRANCH  11  14
ENDBRANCH   1  11
BRANCH   1  23
ATOM     22  C   UNL     1       3.677  -3.781  -2.325  0.00  0.00    +0.002 C 
ATOM     23  C   UNL     1       2.831  -4.510  -1.278  0.00  0.00    -0.014 C 
ENDBRANCH   1  23
TORSDOF 6
