REMARK  Name = ZINC44753138
REMARK  7 active torsions:
REMARK  status: ('A' for Active; 'I' for Inactive)
REMARK    1  A    between atoms: C_1  and  C_2
REMARK    2  A    between atoms: C_2  and  C_3
REMARK    3  A    between atoms: C_8  and  N_9
REMARK    4  A    between atoms: C_11  and  C_16
REMARK    5  A    between atoms: N_18  and  C_19
REMARK    6  A    between atoms: C_21  and  C_27
REMARK    7  A    between atoms: C_24  and  C_25
REMARK                            x       y       z     vdW  Elec       q    Type
REMARK                         _______ _______ _______ _____ _____    ______ ____
ROOT
ATOM      1  C   UNL     1      -1.768  -1.030  -5.510  0.00  0.00    +0.222 C 
ATOM      2  O   UNL     1      -2.588  -1.821  -5.096  0.00  0.00    -0.275 OA
ATOM      3  N   UNL     1      -1.867  -0.552  -6.767  0.00  0.00    -0.285 N 
ATOM      4  H   UNL     1      -1.259   0.139  -7.072  0.00  0.00    +0.155 HD
ENDROOT
BRANCH   3   5
ATOM      5  C   UNL     1      -2.846  -1.055  -7.631  0.00  0.00    +0.040 A 
ATOM      6  C   UNL     1      -3.357  -2.329  -7.434  0.00  0.00    +0.036 A 
ATOM      7  C   UNL     1      -4.333  -2.826  -8.297  0.00  0.00    +0.041 A 
ATOM      8  C   UNL     1      -4.791  -2.038  -9.354  0.00  0.00    +0.051 A 
ATOM      9  C   UNL     1      -4.276  -0.769  -9.543  0.00  0.00    +0.129 A 
ATOM     10  C   UNL     1      -3.311  -0.274  -8.682  0.00  0.00    +0.006 A 
ATOM     11  C   UNL     1      -2.758   1.112  -8.890  0.00  0.00    +0.048 C 
ATOM     12  F   UNL     1      -4.720  -0.007 -10.566  0.00  0.00    -0.205 F 
BRANCH   7  13
ATOM     13  C   UNL     1      -4.881  -4.184  -8.093  0.00  0.00    +0.242 C 
ATOM     14  O   UNL     1      -4.481  -4.869  -7.172  0.00  0.00    -0.270 OA
ATOM     15  N   UNL     1      -5.825  -4.662  -8.928  0.00  0.00    -0.325 N 
ATOM     16  H   UNL     1      -6.144  -4.115  -9.663  0.00  0.00    +0.145 HD
ATOM     17  H   UNL     1      -6.184  -5.553  -8.794  0.00  0.00    +0.145 HD
ENDBRANCH   7  13
ENDBRANCH   3   5
BRANCH   1  20
ATOM     18  N   UNL     1      -1.486  -0.322  -2.393  0.00  0.00    -0.270 N 
ATOM     19  C   UNL     1      -0.725  -1.254  -3.233  0.00  0.00    +0.127 C 
ATOM     20  C   UNL     1      -0.637  -0.581  -4.620  0.00  0.00    +0.102 C 
ATOM     21  C   UNL     1      -0.780   0.915  -4.255  0.00  0.00    +0.110 C 
ATOM     22  C   UNL     1      -1.533   0.904  -2.943  0.00  0.00    +0.221 C 
ATOM     23  O   UNL     1      -2.095   1.862  -2.456  0.00  0.00    -0.275 OA
BRANCH  18  29
ATOM     24  C   UNL     1      -1.384  -0.536   0.011  0.00  0.00    -0.026 A 
ATOM     25  C   UNL     1      -1.985  -0.871   1.209  0.00  0.00    +0.005 A 
ATOM     26  C   UNL     1      -3.285  -1.341   1.224  0.00  0.00    +0.000 A 
ATOM     27  C   UNL     1      -3.989  -1.476   0.041  0.00  0.00    +0.002 A 
ATOM     28  C   UNL     1      -3.394  -1.143  -1.160  0.00  0.00    +0.024 A 
ATOM     29  C   UNL     1      -2.090  -0.666  -1.178  0.00  0.00    +0.039 A 
BRANCH  24  31
ATOM     30  C   UNL     1       0.023   1.506   0.005  0.00  0.00    +0.009 C 
ATOM     31  C   UNL     1       0.033  -0.024  -0.005  0.00  0.00    +0.033 C 
ENDBRANCH  24  31
ENDBRANCH  18  29
ENDBRANCH   1  20
TORSDOF 5
