REMARK  Name = ZINC32894943
REMARK  12 active torsions:
REMARK  status: ('A' for Active; 'I' for Inactive)
REMARK    1  A    between atoms: C_1  and  C_2
REMARK    2  A    between atoms: C_5  and  C_8
REMARK    3  A    between atoms: C_10  and  C_13
REMARK    4  A    between atoms: C_13  and  N_14
REMARK    5  A    between atoms: N_17  and  C_20
REMARK    6  A    between atoms: C_20  and  C_21
REMARK    7  A    between atoms: C_21  and  C_23
REMARK    8  A    between atoms: C_21  and  O_35
REMARK    9  A    between atoms: C_23  and  O_24
REMARK   10  A    between atoms: O_24  and  C_25
REMARK   11  A    between atoms: C_25  and  C_27
REMARK   12  A    between atoms: C_25  and  C_28
REMARK                            x       y       z     vdW  Elec       q    Type
REMARK                         _______ _______ _______ _____ _____    ______ ____
ROOT
ATOM      1  N   UNL     1       3.534   0.883   3.582  0.00  0.00    +0.387 N 
ATOM      2  C   UNL     1       4.167   0.486   2.317  0.00  0.00    -0.063 C 
ATOM      3  C   UNL     1       3.514   1.249   1.162  0.00  0.00    +0.066 C 
ATOM      4  N   UNL     1       2.073   0.960   1.140  0.00  0.00    -0.303 NA
ATOM      5  C   UNL     1       1.440   1.357   2.405  0.00  0.00    +0.066 C 
ATOM      6  C   UNL     1       2.093   0.595   3.560  0.00  0.00    -0.063 C 
ATOM      7  H   UNL     1       3.661   1.970   3.700  0.00  0.00    -0.081 HD
ENDROOT
BRANCH   1   8
ATOM      8  C   UNL     1       4.185   0.228   4.725  0.00  0.00    +0.022 C 
BRANCH   8  11
ATOM      9  C   UNL     1       1.962   0.294   7.549  0.00  0.00    +0.202 A 
ATOM     10  N   UNL     1       2.399  -0.302   6.417  0.00  0.00    -0.193 NA
ATOM     11  C   UNL     1       3.366   0.459   5.969  0.00  0.00    +0.211 A 
ATOM     12  O   UNL     1       3.495   1.477   6.827  0.00  0.00    -0.340 OA
ATOM     13  N   UNL     1       2.683   1.372   7.721  0.00  0.00    -0.056 NA
BRANCH   9  18
ATOM     14  C   UNL     1      -2.281  -1.562  10.972  0.00  0.00    +0.044 C 
ATOM     15  C   UNL     1      -1.171  -1.077  10.077  0.00  0.00    -0.050 A 
ATOM     16  C   UNL     1      -0.493   0.087  10.389  0.00  0.00    +0.004 A 
ATOM     17  C   UNL     1       0.525   0.537   9.573  0.00  0.00    +0.012 A 
ATOM     18  C   UNL     1       0.869  -0.185   8.431  0.00  0.00    +0.022 A 
ATOM     19  C   UNL     1       0.180  -1.354   8.119  0.00  0.00    +0.012 A 
ATOM     20  C   UNL     1      -0.834  -1.797   8.945  0.00  0.00    +0.004 A 
ENDBRANCH   9  18
ENDBRANCH   8  11
ENDBRANCH   1   8
BRANCH   4  21
ATOM     21  C   UNL     1       1.423   1.615  -0.003  0.00  0.00    +0.117 C 
BRANCH  21  22
ATOM     22  C   UNL     1       1.746   0.845  -1.285  0.00  0.00    +0.154 C 
BRANCH  22  23
ATOM     23  O   UNL     1       1.256  -0.493  -1.173  0.00  0.00    -0.388 OA
ATOM     24  H   UNL     1       1.397  -1.201  -2.003  0.00  0.00    +0.210 HD
ENDBRANCH  22  23
BRANCH  22  25
ATOM     25  C   UNL     1       1.079   1.535  -2.476  0.00  0.00    +0.193 C 
BRANCH  25  26
ATOM     26  O   UNL     1       1.475   0.885  -3.686  0.00  0.00    -0.370 OA
BRANCH  26  27
ATOM     27  C   UNL     1       0.905   1.455  -4.865  0.00  0.00    +0.145 C 
ATOM     28  C   UNL     1       1.827   2.553  -5.399  0.00  0.00    +0.043 C 
BRANCH  27  29
ATOM     29  C   UNL     1       0.742   0.383  -5.913  0.00  0.00    -0.019 A 
ATOM     30  C   UNL     1       1.678  -0.629  -6.017  0.00  0.00    +0.007 A 
ATOM     31  C   UNL     1       1.526  -1.615  -6.973  0.00  0.00    +0.020 A 
ATOM     32  C   UNL     1       0.443  -1.583  -7.834  0.00  0.00    +0.041 A 
ATOM     33  C   UNL     1      -0.490  -0.566  -7.733  0.00  0.00    +0.020 A 
ATOM     34  C   UNL     1      -0.340   0.416  -6.772  0.00  0.00    +0.007 A 
ATOM     35 CL   UNL     1       0.255  -2.817  -9.040  0.00  0.00    -0.084 Cl
ENDBRANCH  27  29
ENDBRANCH  26  27
ENDBRANCH  25  26
ENDBRANCH  22  25
ENDBRANCH  21  22
ENDBRANCH   4  21
TORSDOF 10
