REMARK  Name = ZINC12517510
REMARK  10 active torsions:
REMARK  status: ('A' for Active; 'I' for Inactive)
REMARK    1  A    between atoms: C_1  and  C_2
REMARK    2  A    between atoms: C_2  and  C_3
REMARK    3  A    between atoms: C_2  and  C_4
REMARK    4  A    between atoms: C_8  and  C_28
REMARK    5  A    between atoms: C_9  and  N_10
REMARK    6  A    between atoms: C_11  and  C_13
REMARK    7  A    between atoms: N_16  and  C_19
REMARK    8  A    between atoms: C_24  and  N_25
REMARK    9  A    between atoms: C_28  and  C_29
REMARK   10  A    between atoms: C_28  and  C_30
REMARK                            x       y       z     vdW  Elec       q    Type
REMARK                         _______ _______ _______ _____ _____    ______ ____
ROOT
ATOM      1  N   UNL     1      -2.270   1.357   3.298  0.00  0.00    -0.285 N 
ATOM      2  C   UNL     1      -3.190   0.439   3.653  0.00  0.00    +0.220 C 
ATOM      3  O   UNL     1      -2.837  -0.637   4.090  0.00  0.00    -0.275 OA
ATOM      4  H   UNL     1      -2.551   2.243   3.023  0.00  0.00    +0.155 HD
ENDROOT
BRANCH   1  10
ATOM      5  C   UNL     1      -0.157   1.081   2.162  0.00  0.00    -0.023 A 
ATOM      6  C   UNL     1       1.187   0.764   2.195  0.00  0.00    +0.006 A 
ATOM      7  C   UNL     1       1.782   0.393   3.386  0.00  0.00    +0.001 A 
ATOM      8  C   UNL     1       1.035   0.338   4.548  0.00  0.00    +0.006 A 
ATOM      9  C   UNL     1      -0.310   0.653   4.522  0.00  0.00    -0.023 A 
ATOM     10  C   UNL     1      -0.909   1.031   3.328  0.00  0.00    +0.040 A 
BRANCH   5  12
ATOM     11  C   UNL     1      -0.668   0.348  -0.152  0.00  0.00    +0.012 C 
ATOM     12  C   UNL     1      -0.804   1.486   0.862  0.00  0.00    +0.015 C 
ATOM     13  C   UNL     1      -0.117   2.739   0.318  0.00  0.00    +0.012 C 
ENDBRANCH   5  12
BRANCH   9  14
ATOM     14  C   UNL     1      -1.124   0.593   5.789  0.00  0.00    +0.015 C 
ATOM     15  C   UNL     1      -0.488  -0.407   6.756  0.00  0.00    +0.012 C 
ATOM     16  C   UNL     1      -1.161   1.978   6.438  0.00  0.00    +0.012 C 
ENDBRANCH   9  14
ENDBRANCH   1  10
BRANCH   2  17
ATOM     17  C   UNL     1      -4.658   0.747   3.508  0.00  0.00    +0.078 C 
ATOM     18  C   UNL     1      -5.012   1.966   4.364  0.00  0.00    +0.031 C 
ATOM     19  C   UNL     1      -6.514   2.238   4.260  0.00  0.00    +0.106 C 
ATOM     20  N   UNL     1      -7.259   1.060   4.722  0.00  0.00    -0.328 N 
ATOM     21  C   UNL     1      -6.972  -0.112   3.885  0.00  0.00    +0.106 C 
ATOM     22  C   UNL     1      -5.483  -0.454   3.978  0.00  0.00    +0.031 C 
BRANCH  20  23
ATOM     23  C   UNL     1      -8.631   1.320   4.765  0.00  0.00    +0.060 A 
ATOM     24  C   UNL     1      -9.323   1.602   3.593  0.00  0.00    +0.025 A 
ATOM     25  C   UNL     1     -10.680   1.853   3.639  0.00  0.00    +0.002 A 
ATOM     26  C   UNL     1     -11.348   1.835   4.849  0.00  0.00    +0.002 A 
ATOM     27  C   UNL     1     -10.662   1.560   6.018  0.00  0.00    +0.034 A 
ATOM     28  C   UNL     1      -9.305   1.302   5.979  0.00  0.00    +0.147 A 
BRANCH  28  29
ATOM     29  N   UNL     1      -8.571   1.009   7.230  0.00  0.00    +0.058 N 
ATOM     30  O   UNL     1      -9.163   0.994   8.294  0.00  0.00    -0.126 OA
ATOM     31  O   UNL     1      -7.375   0.782   7.195  0.00  0.00    -0.126 OA
ENDBRANCH  28  29
ENDBRANCH  20  23
ENDBRANCH   2  17
TORSDOF 6
