REMARK  Name = ZINC56709757
REMARK  8 active torsions:
REMARK  status: ('A' for Active; 'I' for Inactive)
REMARK    1  A    between atoms: C_1  and  C_2
REMARK    2  A    between atoms: C_4  and  O_26
REMARK    3  A    between atoms: C_7  and  N_8
REMARK    4  A    between atoms: N_11  and  C_12
REMARK    5  A    between atoms: C_12  and  C_14
REMARK    6  A    between atoms: C_12  and  C_20
REMARK    7  A    between atoms: O_26  and  C_27
REMARK    8  A    between atoms: C_27  and  C_28
REMARK                            x       y       z     vdW  Elec       q    Type
REMARK                         _______ _______ _______ _____ _____    ______ ____
ROOT
ATOM      1  N   UNL     1       0.025  -0.011   2.418  0.00  0.00    -0.269 N 
ATOM      2  C   UNL     1      -0.056  -0.689   3.580  0.00  0.00    +0.304 C 
ATOM      3  O   UNL     1      -0.040  -1.905   3.577  0.00  0.00    -0.252 OA
ATOM      4  N   UNL     1      -0.156  -0.019   4.745  0.00  0.00    -0.292 N 
ATOM      5  H   UNL     1       0.078   0.958   2.424  0.00  0.00    +0.156 HD
ATOM      6  H   UNL     1      -0.169   0.951   4.748  0.00  0.00    +0.151 HD
ENDROOT
BRANCH   1  13
ATOM      7  C   UNL     1      -1.267   1.182   0.182  0.00  0.00    +0.046 C 
ATOM      8  C   UNL     1      -0.586  -0.158   0.085  0.00  0.00    -0.026 A 
ATOM      9  C   UNL     1      -0.572  -0.841  -1.116  0.00  0.00    +0.050 A 
ATOM     10  C   UNL     1       0.055  -2.074  -1.206  0.00  0.00    +0.122 A 
ATOM     11  C   UNL     1       0.669  -2.624  -0.090  0.00  0.00    +0.047 A 
ATOM     12  C   UNL     1       0.655  -1.944   1.111  0.00  0.00    +0.027 A 
ATOM     13  C   UNL     1       0.034  -0.705   1.201  0.00  0.00    +0.038 A 
BRANCH  10  14
ATOM     14  O   UNL     1       0.068  -2.745  -2.388  0.00  0.00    -0.483 OA
BRANCH  14  15
ATOM     15  C   UNL     1       0.732  -4.011  -2.409  0.00  0.00    +0.324 C 
BRANCH  15  16
ATOM     16  C   UNL     1       0.644  -4.601  -3.793  0.00  0.00    +0.248 C 
ATOM     17  O   UNL     1       0.070  -3.998  -4.674  0.00  0.00    -0.272 OA
ATOM     18  N   UNL     1       1.204  -5.800  -4.050  0.00  0.00    -0.327 N 
ATOM     19  H   UNL     1       1.664  -6.282  -3.345  0.00  0.00    +0.145 HD
ATOM     20  H   UNL     1       1.148  -6.180  -4.941  0.00  0.00    +0.145 HD
ENDBRANCH  15  16
ENDBRANCH  14  15
ENDBRANCH  10  14
ENDBRANCH   1  13
BRANCH   4  21
ATOM     21  C   UNL     1      -0.245  -0.756   6.008  0.00  0.00    +0.108 C 
BRANCH  21  22
ATOM     22  C   UNL     1       1.142  -1.097   6.489  0.00  0.00    -0.027 A 
ATOM     23  C   UNL     1       2.163  -0.172   6.369  0.00  0.00    +0.005 A 
ATOM     24  C   UNL     1       3.435  -0.485   6.810  0.00  0.00    +0.000 A 
ATOM     25  C   UNL     1       3.687  -1.723   7.372  0.00  0.00    +0.000 A 
ATOM     26  C   UNL     1       2.666  -2.648   7.493  0.00  0.00    +0.000 A 
ATOM     27  C   UNL     1       1.393  -2.333   7.056  0.00  0.00    +0.005 A 
ENDBRANCH  21  22
BRANCH  21  28
ATOM     28  C   UNL     1      -0.949   0.109   7.055  0.00  0.00    +0.014 C 
ATOM     29  C   UNL     1      -1.042  -0.661   8.374  0.00  0.00    +0.006 C 
ATOM     30  C   UNL     1      -1.746   0.204   9.421  0.00  0.00    +0.000 C 
ATOM     31  C   UNL     1      -3.154   0.550   8.933  0.00  0.00    +0.000 C 
ATOM     32  C   UNL     1      -3.062   1.320   7.614  0.00  0.00    +0.000 C 
ATOM     33  C   UNL     1      -2.357   0.455   6.567  0.00  0.00    +0.006 C 
ENDBRANCH  21  28
ENDBRANCH   4  21
TORSDOF 7
