REMARK  Name = ZINC12434131
REMARK  6 active torsions:
REMARK  status: ('A' for Active; 'I' for Inactive)
REMARK    1  A    between atoms: C_1  and  C_2
REMARK    2  A    between atoms: C_2  and  C_3
REMARK    3  A    between atoms: C_2  and  C_4
REMARK    4  A    between atoms: C_7  and  N_10
REMARK    5  A    between atoms: N_10  and  C_11
REMARK    6  A    between atoms: C_18  and  C_20
REMARK                            x       y       z     vdW  Elec       q    Type
REMARK                         _______ _______ _______ _____ _____    ______ ____
ROOT
ATOM      1  C   UNL     1       0.565  -0.480   1.679  0.00  0.00    +0.088 C 
ATOM      2  C   UNL     1      -0.413   0.073   0.639  0.00  0.00    +0.025 C 
ATOM      3  C   UNL     1      -0.414   1.603   0.702  0.00  0.00    +0.021 C 
ATOM      4  C   UNL     1       0.988   2.125   0.373  0.00  0.00    +0.108 C 
ATOM      5  N   UNL     1       1.954   1.485   1.276  0.00  0.00    -0.294 N 
ATOM      6  C   UNL     1       1.978   0.018   1.361  0.00  0.00    +0.130 C 
ATOM      7  C   UNL     1       2.803   2.229   2.011  0.00  0.00    +0.267 C 
ATOM      8  O   UNL     1       3.507   1.699   2.850  0.00  0.00    -0.268 OA
ENDROOT
BRANCH   7   9
ATOM      9  C   UNL     1       2.880   3.685   1.800  0.00  0.00    +0.145 A 
ATOM     10  C   UNL     1       3.581   4.570   2.559  0.00  0.00    +0.126 A 
ATOM     11  N   UNL     1       3.388   5.830   2.023  0.00  0.00    -0.300 N 
ATOM     12  C   UNL     1       3.787   7.124   2.282  0.00  0.00    +0.100 A 
ATOM     13  C   UNL     1       3.380   8.131   1.512  0.00  0.00    +0.067 A 
ATOM     14  S   UNL     1       2.360   7.290   0.311  0.00  0.00    -0.058 S 
ATOM     15  C   UNL     1       2.562   5.641   0.943  0.00  0.00    +0.178 A 
ATOM     16  N   UNL     1       2.267   4.383   0.808  0.00  0.00    -0.217 NA
ENDBRANCH   7   9
BRANCH   1  17
ATOM     17  N   UNL     1       0.542  -1.944   1.640  0.00  0.00    -0.339 N 
ATOM     18  H   UNL     1       0.274  -2.404   0.829  0.00  0.00    +0.146 HD
BRANCH  17  22
ATOM     19  C   UNL     1       1.631  -4.133   5.011  0.00  0.00    -0.045 A 
ATOM     20  C   UNL     1       1.248  -4.790   3.856  0.00  0.00    +0.006 A 
ATOM     21  C   UNL     1       0.886  -4.067   2.736  0.00  0.00    +0.023 A 
ATOM     22  C   UNL     1       0.907  -2.679   2.771  0.00  0.00    +0.027 A 
ATOM     23  C   UNL     1       1.298  -2.022   3.931  0.00  0.00    +0.023 A 
ATOM     24  C   UNL     1       1.653  -2.751   5.049  0.00  0.00    +0.006 A 
BRANCH  19  26
ATOM     25  C   UNL     1       3.468  -4.588   6.614  0.00  0.00    +0.012 C 
ATOM     26  C   UNL     1       2.025  -4.925   6.231  0.00  0.00    +0.013 C 
ATOM     27  C   UNL     1       1.093  -4.571   7.392  0.00  0.00    +0.012 C 
ENDBRANCH  19  26
ENDBRANCH  17  22
ENDBRANCH   1  17
TORSDOF 4
