REMARK  Name = ZINC43525761
REMARK  7 active torsions:
REMARK  status: ('A' for Active; 'I' for Inactive)
REMARK    1  A    between atoms: C_1  and  N_2
REMARK    2  A    between atoms: C_3  and  C_12
REMARK    3  A    between atoms: C_5  and  C_7
REMARK    4  A    between atoms: C_21  and  C_23
REMARK    5  A    between atoms: C_23  and  N_24
REMARK    6  A    between atoms: N_24  and  S_25
REMARK    7  A    between atoms: S_25  and  C_28
REMARK                            x       y       z     vdW  Elec       q    Type
REMARK                         _______ _______ _______ _____ _____    ______ ____
ROOT
ATOM      1  C   UNL     1      -0.006  -0.314  -2.526  0.00  0.00    +0.024 C 
ATOM      2  C   UNL     1       1.432  -0.139  -3.022  0.00  0.00    -0.068 C 
ATOM      3  N   UNL     1       1.676  -1.012  -4.171  0.00  0.00    +0.383 N 
ATOM      4  C   UNL     1       1.510  -2.418  -3.795  0.00  0.00    -0.078 C 
ATOM      5  C   UNL     1       0.076  -2.670  -3.325  0.00  0.00    -0.015 C 
ATOM      6  C   UNL     1      -0.713  -1.353  -3.407  0.00  0.00    -0.007 C 
ATOM      7  C   UNL     1      -0.678  -0.859  -4.859  0.00  0.00    -0.010 C 
ATOM      8  C   UNL     1       0.784  -0.667  -5.281  0.00  0.00    -0.053 C 
ATOM      9  H   UNL     1       2.629  -0.881  -4.475  0.00  0.00    -0.081 HD
ENDROOT
BRANCH   1  12
ATOM     10  C   UNL     1      -2.057   0.406  -0.322  0.00  0.00    +0.172 C 
ATOM     11  N   UNL     1      -0.894  -0.468  -0.144  0.00  0.00    -0.271 N 
ATOM     12  C   UNL     1       0.008  -0.790  -1.096  0.00  0.00    +0.041 A 
ATOM     13  C   UNL     1       0.924  -1.614  -0.542  0.00  0.00    +0.053 A 
ATOM     14  C   UNL     1       0.570  -1.807   0.809  0.00  0.00    +0.100 A 
ATOM     15  N   UNL     1      -0.523  -1.109   1.044  0.00  0.00    -0.171 NA
BRANCH  14  16
ATOM     16  C   UNL     1       1.300  -2.640   1.790  0.00  0.00    +0.039 A 
ATOM     17  C   UNL     1       1.011  -2.874   3.107  0.00  0.00    +0.018 A 
ATOM     18  C   UNL     1       1.846  -3.696   3.832  0.00  0.00    +0.008 A 
ATOM     19  C   UNL     1       2.925  -4.247   3.221  0.00  0.00    +0.046 A 
ATOM     20  S   UNL     1       2.783  -3.607   1.561  0.00  0.00    -0.095 S 
ENDBRANCH  14  16
ENDBRANCH   1  12
BRANCH   8  21
ATOM     21  C   UNL     1       1.091  -1.568  -6.479  0.00  0.00    +0.090 C 
BRANCH  21  22
ATOM     22  N   UNL     1       2.512  -1.464  -6.816  0.00  0.00    -0.191 NA
ATOM     23  H   UNL     1       3.045  -0.737  -6.456  0.00  0.00    +0.148 HD
BRANCH  22  24
ATOM     24  S   UNL     1       3.211  -2.586  -7.814  0.00  0.00    +0.058 S 
ATOM     25  O   UNL     1       4.570  -2.201  -7.970  0.00  0.00    -0.153 OA
ATOM     26  O   UNL     1       2.832  -3.862  -7.318  0.00  0.00    -0.153 OA
BRANCH  24  27
ATOM     27  C   UNL     1       2.455  -2.417  -9.397  0.00  0.00    +0.105 A 
ATOM     28  C   UNL     1       1.321  -3.145  -9.703  0.00  0.00    +0.028 A 
ATOM     29  C   UNL     1       0.728  -3.012 -10.945  0.00  0.00    +0.002 A 
ATOM     30  C   UNL     1       1.270  -2.151 -11.881  0.00  0.00    +0.000 A 
ATOM     31  C   UNL     1       2.404  -1.423 -11.575  0.00  0.00    +0.002 A 
ATOM     32  C   UNL     1       2.994  -1.552 -10.332  0.00  0.00    +0.028 A 
ENDBRANCH  24  27
ENDBRANCH  22  24
ENDBRANCH  21  22
ENDBRANCH   8  21
TORSDOF 6
