REMARK  Name = ZINC35880493
REMARK  10 active torsions:
REMARK  status: ('A' for Active; 'I' for Inactive)
REMARK    1  A    between atoms: C_1  and  C_2
REMARK    2  A    between atoms: C_2  and  O_3
REMARK    3  A    between atoms: O_3  and  C_4
REMARK    4  A    between atoms: C_4  and  C_6
REMARK    5  A    between atoms: C_7  and  C_33
REMARK    6  A    between atoms: C_11  and  C_13
REMARK    7  A    between atoms: C_23  and  C_29
REMARK    8  A    between atoms: C_25  and  C_28
REMARK    9  A    between atoms: C_29  and  O_31
REMARK   10  A    between atoms: O_31  and  C_32
REMARK                            x       y       z     vdW  Elec       q    Type
REMARK                         _______ _______ _______ _____ _____    ______ ____
ROOT
ATOM      1  C   UNL     1       1.599  -2.369   2.355  0.00  0.00    +0.065 C 
ATOM      2  C   UNL     1       1.490  -3.684   2.609  0.00  0.00    +0.016 C 
ATOM      3  N   UNL     1       1.998  -4.210   3.764  0.00  0.00    -0.321 N 
ATOM      4  C   UNL     1       2.258  -3.406   4.842  0.00  0.00    +0.016 C 
ATOM      5  C   UNL     1       2.403  -2.074   4.682  0.00  0.00    +0.025 C 
ATOM      6  C   UNL     1       2.288  -1.444   3.315  0.00  0.00    +0.092 C 
ATOM      7  C   UNL     1       2.674  -1.237   5.780  0.00  0.00    +0.176 C 
ATOM      8  O   UNL     1       2.783  -0.040   5.604  0.00  0.00    -0.291 OA
ATOM      9  C   UNL     1       2.831  -1.798   7.167  0.00  0.00    +0.171 C 
ATOM     10  C   UNL     1       3.347  -3.237   7.067  0.00  0.00    +0.013 C 
ATOM     11  C   UNL     1       2.374  -4.043   6.204  0.00  0.00    +0.055 C 
ATOM     12  C   UNL     1       4.736  -3.242   6.425  0.00  0.00    +0.009 C 
ATOM     13  C   UNL     1       0.805  -4.585   1.615  0.00  0.00    +0.061 C 
ATOM     14  H   UNL     1       2.175  -5.162   3.822  0.00  0.00    +0.152 HD
ENDROOT
BRANCH   6  15
ATOM     15  C   UNL     1       3.665  -1.126   2.794  0.00  0.00    -0.032 A 
ATOM     16  C   UNL     1       4.577  -2.145   2.584  0.00  0.00    +0.006 A 
ATOM     17  C   UNL     1       5.841  -1.855   2.106  0.00  0.00    +0.023 A 
ATOM     18  C   UNL     1       6.195  -0.546   1.837  0.00  0.00    +0.076 A 
ATOM     19  C   UNL     1       5.283   0.475   2.046  0.00  0.00    +0.142 A 
ATOM     20  C   UNL     1       4.015   0.182   2.520  0.00  0.00    +0.044 A 
ATOM     21  F   UNL     1       5.628   1.755   1.784  0.00  0.00    -0.204 F 
ATOM     22 CL   UNL     1       7.783  -0.182   1.237  0.00  0.00    -0.081 Cl
ENDBRANCH   6  15
BRANCH   1  23
ATOM     23  C   UNL     1       1.058  -1.847   1.157  0.00  0.00    +0.338 C 
ATOM     24  O   UNL     1       0.029  -1.198   1.185  0.00  0.00    -0.245 OA
BRANCH  23  25
ATOM     25  O   UNL     1       1.683  -2.069  -0.018  0.00  0.00    -0.462 OA
BRANCH  25  27
ATOM     26  C   UNL     1       1.927  -1.867  -2.414  0.00  0.00    +0.048 C 
ATOM     27  C   UNL     1       1.082  -1.513  -1.189  0.00  0.00    +0.229 C 
ENDBRANCH  25  27
ENDBRANCH  23  25
ENDBRANCH   1  23
BRANCH   9  28
ATOM     28  C   UNL     1       3.815  -0.959   7.941  0.00  0.00    +0.318 C 
ATOM     29  O   UNL     1       4.824  -1.461   8.378  0.00  0.00    -0.250 OA
BRANCH  28  30
ATOM     30  O   UNL     1       3.571   0.345   8.145  0.00  0.00    -0.467 OA
ATOM     31  C   UNL     1       4.546   1.079   8.888  0.00  0.00    +0.280 C 
ENDBRANCH  28  30
ENDBRANCH   9  28
TORSDOF 6
