REMARK  Name = ZINC02886855
REMARK  7 active torsions:
REMARK  status: ('A' for Active; 'I' for Inactive)
REMARK    1  A    between atoms: C_1  and  C_2
REMARK    2  A    between atoms: C_5  and  C_7
REMARK    3  A    between atoms: N_14  and  C_31
REMARK    4  A    between atoms: C_15  and  S_17
REMARK    5  A    between atoms: S_17  and  C_18
REMARK    6  A    between atoms: C_18  and  C_19
REMARK    7  A    between atoms: C_19  and  C_21
REMARK                            x       y       z     vdW  Elec       q    Type
REMARK                         _______ _______ _______ _____ _____    ______ ____
ROOT
ATOM      1  C   UNL     1       5.007   5.633  -0.216  0.00  0.00    +0.039 A 
ATOM      2  C   UNL     1       6.280   6.099  -0.204  0.00  0.00    +0.059 A 
ATOM      3  S   UNL     1       7.262   4.617  -0.066  0.00  0.00    -0.076 S 
ATOM      4  C   UNL     1       5.956   3.417  -0.028  0.00  0.00    +0.117 A 
ATOM      5  C   UNL     1       4.787   4.191  -0.123  0.00  0.00    +0.083 A 
ATOM      6  C   UNL     1       3.556   3.466  -0.121  0.00  0.00    +0.268 A 
ATOM      7  O   UNL     1       2.492   4.056  -0.205  0.00  0.00    -0.267 OA
ATOM      8  N   UNL     1       3.585   2.124  -0.021  0.00  0.00    -0.255 N 
ATOM      9  C   UNL     1       4.769   1.447   0.068  0.00  0.00    +0.178 A 
ATOM     10  N   UNL     1       5.918   2.092   0.063  0.00  0.00    -0.215 NA
ENDROOT
BRANCH   1  15
ATOM     11  C   UNL     1       0.715   7.725  -1.764  0.00  0.00    +0.086 C 
ATOM     12  C   UNL     1       1.988   7.484  -0.994  0.00  0.00    +0.103 A 
ATOM     13  C   UNL     1       2.461   8.256   0.003  0.00  0.00    +0.045 A 
ATOM     14  C   UNL     1       3.664   7.670   0.445  0.00  0.00    +0.050 A 
ATOM     15  C   UNL     1       3.865   6.563  -0.321  0.00  0.00    +0.136 A 
ATOM     16  O   UNL     1       2.839   6.461  -1.187  0.00  0.00    -0.460 OA
ENDBRANCH   1  15
BRANCH   8  17
ATOM     17  C   UNL     1       2.381   1.409  -0.013  0.00  0.00    +0.052 A 
ATOM     18  C   UNL     1       1.826   0.969  -1.208  0.00  0.00    +0.026 A 
ATOM     19  C   UNL     1       0.638   0.263  -1.197  0.00  0.00    +0.002 A 
ATOM     20  C   UNL     1       0.002  -0.004   0.002  0.00  0.00    +0.000 A 
ATOM     21  C   UNL     1       0.552   0.434   1.192  0.00  0.00    +0.002 A 
ATOM     22  C   UNL     1       1.740   1.139   1.188  0.00  0.00    +0.026 A 
ENDBRANCH   8  17
BRANCH   9  23
ATOM     23  S   UNL     1       4.759  -0.311   0.189  0.00  0.00    -0.079 S 
BRANCH  23  24
ATOM     24  C   UNL     1       6.538  -0.630   0.275  0.00  0.00    +0.157 C 
BRANCH  24  25
ATOM     25  C   UNL     1       6.777  -2.114   0.386  0.00  0.00    +0.173 C 
ATOM     26  O   UNL     1       5.837  -2.880   0.406  0.00  0.00    -0.291 OA
BRANCH  25  27
ATOM     27  C   UNL     1       8.151  -2.633   0.470  0.00  0.00    +0.019 A 
ATOM     28  C   UNL     1       9.240  -1.740   0.441  0.00  0.00    +0.012 A 
ATOM     29  C   UNL     1      10.515  -2.195   0.524  0.00  0.00    +0.009 A 
ATOM     30  C   UNL     1      10.765  -3.576   0.628  0.00  0.00    -0.018 A 
ATOM     31  C   UNL     1      12.077  -4.070   0.708  0.00  0.00    +0.008 A 
ATOM     32  C   UNL     1      12.290  -5.411   0.808  0.00  0.00    +0.001 A 
ATOM     33  C   UNL     1      11.222  -6.307   0.833  0.00  0.00    +0.001 A 
ATOM     34  C   UNL     1       9.937  -5.867   0.758  0.00  0.00    +0.008 A 
ATOM     35  C   UNL     1       9.678  -4.488   0.653  0.00  0.00    -0.017 A 
ATOM     36  C   UNL     1       8.366  -4.001   0.573  0.00  0.00    +0.020 A 
ENDBRANCH  25  27
ENDBRANCH  24  25
ENDBRANCH  23  24
ENDBRANCH   9  23
TORSDOF 6
