REMARK  Name = ZINC20914700
REMARK  9 active torsions:
REMARK  status: ('A' for Active; 'I' for Inactive)
REMARK    1  A    between atoms: C_3  and  C_8
REMARK    2  A    between atoms: C_5  and  O_7
REMARK    3  A    between atoms: N_9  and  N_10
REMARK    4  A    between atoms: C_14  and  S_17
REMARK    5  A    between atoms: N_15  and  N_16
REMARK    6  A    between atoms: S_17  and  C_18
REMARK    7  A    between atoms: C_18  and  C_19
REMARK    8  A    between atoms: N_21  and  C_22
REMARK    9  A    between atoms: C_23  and  C_30
REMARK                            x       y       z     vdW  Elec       q    Type
REMARK                         _______ _______ _______ _____ _____    ______ ____
ROOT
ATOM      1  N   UNL     1      -1.234   7.354   0.049  0.00  0.00    -0.204 N 
ATOM      2  C   UNL     1      -2.447   8.028   0.063  0.00  0.00    +0.254 A 
ATOM      3  N   UNL     1      -3.636   7.475   0.067  0.00  0.00    -0.109 NA
ATOM      4  N   UNL     1      -4.590   8.501   0.086  0.00  0.00    -0.119 NA
ATOM      5  C   UNL     1      -3.953   9.647   0.085  0.00  0.00    +0.210 A 
ATOM      6  N   UNL     1      -2.612   9.385   0.071  0.00  0.00    -0.211 N 
ATOM      7  H   UNL     1      -0.291   7.920   0.042  0.00  0.00    +0.177 HD
ENDROOT
BRANCH   6   8
ATOM      8  N   UNL     1      -1.612  10.316   0.066  0.00  0.00    -0.294 N 
ATOM      9  H   UNL     1      -1.859  11.388   0.073  0.00  0.00    +0.163 HD
ATOM     10  H   UNL     1      -0.561   9.993   0.054  0.00  0.00    +0.163 HD
ENDBRANCH   6   8
BRANCH   1  12
ATOM     11  C   UNL     1      -0.076   5.323   0.029  0.00  0.00    +0.138 C 
ATOM     12  N   UNL     1      -1.211   5.953   0.042  0.00  0.00    -0.188 NA
BRANCH  11  15
ATOM     13  C   UNL     1      -1.221   1.748   0.017  0.00  0.00    +0.004 A 
ATOM     14  C   UNL     1      -1.248   3.127   0.030  0.00  0.00    +0.010 A 
ATOM     15  C   UNL     1      -0.051   3.849   0.022  0.00  0.00    -0.002 A 
ATOM     16  C   UNL     1       1.168   3.168   0.007  0.00  0.00    +0.054 A 
ATOM     17  C   UNL     1       1.182   1.784   0.000  0.00  0.00    +0.117 A 
ATOM     18  C   UNL     1      -0.013   1.076   0.008  0.00  0.00    +0.045 A 
BRANCH  17  19
ATOM     19  O   UNL     1       2.366   1.117  -0.014  0.00  0.00    -0.507 OA
ATOM     20  H   UNL     1       2.378   0.017  -0.019  0.00  0.00    +0.292 HD
ENDBRANCH  17  19
ENDBRANCH  11  15
ENDBRANCH   1  12
BRANCH   5  21
ATOM     21  S   UNL     1      -4.696  11.245   0.100  0.00  0.00    -0.075 S 
BRANCH  21  22
ATOM     22  C   UNL     1      -6.477  10.900   0.116  0.00  0.00    +0.173 C 
BRANCH  22  23
ATOM     23  C   UNL     1      -7.239  12.200   0.129  0.00  0.00    +0.228 C 
ATOM     24  O   UNL     1      -6.641  13.255   0.128  0.00  0.00    -0.275 OA
ATOM     25  N   UNL     1      -8.587  12.190   0.142  0.00  0.00    -0.278 N 
ATOM     26  H   UNL     1      -9.130  11.234   0.143  0.00  0.00    +0.155 HD
BRANCH  25  27
ATOM     27  C   UNL     1      -9.290  13.387   0.154  0.00  0.00    +0.090 A 
ATOM     28  C   UNL     1     -10.660  13.580   0.163  0.00  0.00    +0.084 A 
ATOM     29  C   UNL     1     -11.150  14.957   0.180  0.00  0.00    -0.018 A 
ATOM     30  C   UNL     1     -10.194  15.904   0.175  0.00  0.00    -0.004 A 
ATOM     31  S   UNL     1      -8.665  15.001   0.155  0.00  0.00    -0.077 S 
ATOM     32  C   UNL     1     -10.775  17.292   0.190  0.00  0.00    +0.043 C 
ATOM     33  C   UNL     1     -12.239  17.096   0.642  0.00  0.00    +0.010 C 
ATOM     34  C   UNL     1     -12.515  15.647   0.194  0.00  0.00    +0.037 C 
BRANCH  28  35
ATOM     35  C   UNL     1     -11.565  12.470   0.160  0.00  0.00    +0.102 C 
ATOM     36  N   UNL     1     -12.283  11.590   0.158  0.00  0.00    -0.191 NA
ENDBRANCH  28  35
ENDBRANCH  25  27
ENDBRANCH  22  23
ENDBRANCH  21  22
ENDBRANCH   5  21
TORSDOF 9
