REMARK  Name = ZINC53328861
REMARK  7 active torsions:
REMARK  status: ('A' for Active; 'I' for Inactive)
REMARK    1  A    between atoms: C_1  and  C_2
REMARK    2  A    between atoms: C_2  and  N_3
REMARK    3  A    between atoms: C_9  and  C_16
REMARK    4  A    between atoms: N_18  and  C_19
REMARK    5  A    between atoms: C_19  and  C_20
REMARK    6  A    between atoms: C_19  and  C_21
REMARK    7  A    between atoms: C_19  and  C_22
REMARK                            x       y       z     vdW  Elec       q    Type
REMARK                         _______ _______ _______ _____ _____    ______ ____
ROOT
ATOM      1  N   UNL     1      -1.372  -0.511   0.012  0.00  0.00    -0.261 N 
ATOM      2  C   UNL     1      -1.984  -0.742   1.194  0.00  0.00    +0.264 A 
ATOM      3  O   UNL     1      -1.410  -0.533   2.245  0.00  0.00    -0.267 OA
ATOM      4  C   UNL     1      -3.370  -1.252   1.177  0.00  0.00    +0.063 A 
ATOM      5  C   UNL     1      -4.065  -1.512   2.355  0.00  0.00    +0.016 A 
ATOM      6  C   UNL     1      -5.357  -1.988   2.295  0.00  0.00    +0.014 A 
ATOM      7  C   UNL     1      -5.969  -2.209   1.058  0.00  0.00    +0.039 A 
ATOM      8  C   UNL     1      -5.280  -1.951  -0.124  0.00  0.00    +0.039 A 
ATOM      9  C   UNL     1      -3.980  -1.472  -0.070  0.00  0.00    +0.056 A 
ATOM     10  N   UNL     1      -3.259  -1.201  -1.224  0.00  0.00    -0.307 N 
ATOM     11  H   UNL     1      -3.667  -1.349  -2.091  0.00  0.00    +0.170 HD
ATOM     12  C   UNL     1      -2.001  -0.733  -1.153  0.00  0.00    +0.330 A 
ATOM     13  O   UNL     1      -1.406  -0.504  -2.188  0.00  0.00    -0.246 OA
ENDROOT
BRANCH   7  14
ATOM     14  C   UNL     1      -7.357  -2.721   1.004  0.00  0.00    +0.245 C 
ATOM     15  O   UNL     1      -7.893  -2.914  -0.070  0.00  0.00    -0.270 OA
ATOM     16  N   UNL     1      -8.028  -2.973   2.146  0.00  0.00    -0.307 N 
ATOM     17  H   UNL     1      -7.600  -2.818   3.003  0.00  0.00    +0.150 HD
BRANCH  16  18
ATOM     18  C   UNL     1      -9.401  -3.479   2.093  0.00  0.00    +0.026 C 
ATOM     19  C   UNL     1      -9.423  -4.816   1.349  0.00  0.00    +0.031 C 
ATOM     20  C   UNL     1      -9.927  -3.678   3.516  0.00  0.00    +0.031 C 
ATOM     21  C   UNL     1     -10.288  -2.472   1.358  0.00  0.00    +0.031 C 
ENDBRANCH  16  18
ENDBRANCH   7  14
BRANCH   1  23
ATOM     22  C   UNL     1      -0.019   1.526   0.010  0.00  0.00    +0.027 C 
ATOM     23  C   UNL     1       0.002  -0.004   0.002  0.00  0.00    +0.126 C 
ENDBRANCH   1  23
TORSDOF 3
