REMARK  Name = ZINC36560430
REMARK  14 active torsions:
REMARK  status: ('A' for Active; 'I' for Inactive)
REMARK    1  A    between atoms: C_1  and  C_2
REMARK    2  A    between atoms: C_2  and  C_3
REMARK    3  A    between atoms: C_3  and  N_4
REMARK    4  A    between atoms: N_4  and  C_5
REMARK    5  A    between atoms: C_5  and  C_7
REMARK    6  A    between atoms: C_5  and  C_14
REMARK    7  A    between atoms: C_10  and  C_13
REMARK    8  A    between atoms: N_16  and  C_17
REMARK    9  A    between atoms: C_17  and  S_18
REMARK   10  A    between atoms: S_18  and  C_21
REMARK   11  A    between atoms: C_24  and  C_27
REMARK   12  A    between atoms: C_28  and  C_30
REMARK   13  A    between atoms: C_35  and  O_36
REMARK   14  A    between atoms: O_36  and  C_37
REMARK                            x       y       z     vdW  Elec       q    Type
REMARK                         _______ _______ _______ _____ _____    ______ ____
ROOT
ATOM      1  C   UNL     1      -0.501  -3.224  -0.508  0.00  0.00    +0.192 C 
ENDROOT
BRANCH   1   2
ATOM      2  C   UNL     1      -1.242  -2.998  -1.801  0.00  0.00    -0.018 A 
ATOM      3  C   UNL     1      -1.128  -1.789  -2.461  0.00  0.00    +0.006 A 
ATOM      4  C   UNL     1      -1.807  -1.582  -3.647  0.00  0.00    +0.004 A 
ATOM      5  C   UNL     1      -2.600  -2.585  -4.173  0.00  0.00    -0.050 A 
ATOM      6  C   UNL     1      -2.713  -3.794  -3.514  0.00  0.00    +0.004 A 
ATOM      7  C   UNL     1      -2.030  -4.003  -2.330  0.00  0.00    +0.006 A 
ATOM      8  C   UNL     1      -3.341  -2.359  -5.465  0.00  0.00    +0.044 C 
ENDBRANCH   1   2
BRANCH   1   9
ATOM      9  C   UNL     1      -1.460  -3.730   0.539  0.00  0.00    +0.239 C 
ATOM     10  O   UNL     1      -1.958  -2.956   1.329  0.00  0.00    -0.273 OA
ATOM     11  N   UNL     1      -1.764  -5.041   0.596  0.00  0.00    -0.294 N 
ATOM     12  H   UNL     1      -1.366  -5.660  -0.036  0.00  0.00    +0.150 HD
BRANCH  11  13
ATOM     13  C   UNL     1      -2.696  -5.533   1.614  0.00  0.00    +0.278 C 
BRANCH  13  14
ATOM     14  S   UNL     1      -4.367  -5.620   0.912  0.00  0.00    +0.013 S 
ATOM     15  O   UNL     1      -5.272  -6.155   1.868  0.00  0.00    -0.168 OA
ATOM     16  O   UNL     1      -4.671  -4.415   0.222  0.00  0.00    -0.168 OA
BRANCH  14  17
ATOM     17  C   UNL     1      -4.266  -6.847  -0.348  0.00  0.00    +0.090 A 
ATOM     18  C   UNL     1      -3.929  -6.486  -1.639  0.00  0.00    +0.027 A 
ATOM     19  C   UNL     1      -3.849  -7.449  -2.628  0.00  0.00    +0.005 A 
ATOM     20  C   UNL     1      -4.106  -8.773  -2.325  0.00  0.00    -0.050 A 
ATOM     21  C   UNL     1      -4.442  -9.134  -1.034  0.00  0.00    +0.005 A 
ATOM     22  C   UNL     1      -4.518  -8.172  -0.044  0.00  0.00    +0.027 A 
ATOM     23  C   UNL     1      -4.021  -9.823  -3.403  0.00  0.00    +0.044 C 
ENDBRANCH  14  17
ENDBRANCH  13  14
ENDBRANCH  11  13
ENDBRANCH   1   9
BRANCH   1  24
ATOM     24  N   UNL     1       0.092  -1.962  -0.058  0.00  0.00    -0.282 N 
ATOM     25  C   UNL     1       1.431  -1.840   0.030  0.00  0.00    +0.251 C 
ATOM     26  O   UNL     1       1.927  -0.766   0.309  0.00  0.00    -0.270 OA
BRANCH  25  27
ATOM     27  C   UNL     1       2.296  -3.011  -0.211  0.00  0.00    +0.078 A 
ATOM     28  C   UNL     1       2.116  -3.793  -1.355  0.00  0.00    +0.017 A 
ATOM     29  C   UNL     1       2.928  -4.885  -1.574  0.00  0.00    +0.001 A 
ATOM     30  C   UNL     1       3.921  -5.212  -0.666  0.00  0.00    +0.004 A 
ATOM     31  C   UNL     1       4.109  -4.448   0.468  0.00  0.00    +0.046 A 
ATOM     32  C   UNL     1       3.305  -3.342   0.703  0.00  0.00    +0.132 A 
BRANCH  32  33
ATOM     33  O   UNL     1       3.492  -2.587   1.815  0.00  0.00    -0.494 OA
ATOM     34  C   UNL     1       4.541  -2.985   2.700  0.00  0.00    +0.277 C 
ENDBRANCH  32  33
ENDBRANCH  25  27
BRANCH  24  35
ATOM     35  C   UNL     1      -0.771  -0.832   0.295  0.00  0.00    +0.109 C 
BRANCH  35  37
ATOM     36  C   UNL     1      -1.579   0.601   2.176  0.00  0.00    +0.005 C 
ATOM     37  C   UNL     1      -0.591  -0.496   1.777  0.00  0.00    +0.016 C 
ENDBRANCH  35  37
ENDBRANCH  24  35
ENDBRANCH   1  24
TORSDOF 10
