REMARK  Name = ZINC12478657
REMARK  13 active torsions:
REMARK  status: ('A' for Active; 'I' for Inactive)
REMARK    1  A    between atoms: C_1  and  C_2
REMARK    2  A    between atoms: C_5  and  C_8
REMARK    3  A    between atoms: N_11  and  C_13
REMARK    4  A    between atoms: C_13  and  C_14
REMARK    5  A    between atoms: N_16  and  C_17
REMARK    6  A    between atoms: N_16  and  C_25
REMARK    7  A    between atoms: C_17  and  C_18
REMARK    8  A    between atoms: C_25  and  C_27
REMARK    9  A    between atoms: C_25  and  C_32
REMARK   10  A    between atoms: N_34  and  C_35
REMARK   11  A    between atoms: C_35  and  C_36
REMARK   12  A    between atoms: C_35  and  C_37
REMARK   13  A    between atoms: C_35  and  C_38
REMARK                            x       y       z     vdW  Elec       q    Type
REMARK                         _______ _______ _______ _____ _____    ______ ____
ROOT
ATOM      1  C   UNL     1       3.211   0.226  -1.695  0.00  0.00    +0.240 C 
ATOM      2  O   UNL     1       3.993  -0.207  -2.515  0.00  0.00    -0.273 OA
ATOM      3  N   UNL     1       3.012   1.554  -1.590  0.00  0.00    -0.279 N 
ENDROOT
BRANCH   1   4
ATOM      4  C   UNL     1       2.463  -0.722  -0.793  0.00  0.00    +0.264 C 
BRANCH   4   8
ATOM      5  C   UNL     1       2.845  -4.014  -2.004  0.00  0.00    +0.205 A 
ATOM      6  N   UNL     1       3.841  -3.940  -1.110  0.00  0.00    -0.108 NA
ATOM      7  N   UNL     1       3.802  -2.759  -0.591  0.00  0.00    -0.045 NA
ATOM      8  N   UNL     1       2.831  -2.101  -1.121  0.00  0.00    -0.154 N 
ATOM      9  N   UNL     1       2.229  -2.849  -1.982  0.00  0.00    -0.130 NA
BRANCH   5  14
ATOM     10  C   UNL     1       1.497  -8.554  -5.282  0.00  0.00    +0.044 C 
ATOM     11  C   UNL     1       1.850  -7.367  -4.425  0.00  0.00    -0.050 A 
ATOM     12  C   UNL     1       2.914  -7.444  -3.545  0.00  0.00    +0.004 A 
ATOM     13  C   UNL     1       3.241  -6.359  -2.757  0.00  0.00    +0.012 A 
ATOM     14  C   UNL     1       2.498  -5.184  -2.849  0.00  0.00    +0.023 A 
ATOM     15  C   UNL     1       1.423  -5.114  -3.733  0.00  0.00    +0.012 A 
ATOM     16  C   UNL     1       1.108  -6.203  -4.520  0.00  0.00    +0.004 A 
ENDBRANCH   5  14
ENDBRANCH   4   8
ENDBRANCH   1   4
BRANCH   3  17
ATOM     17  C   UNL     1       1.982   2.071  -0.685  0.00  0.00    +0.147 C 
BRANCH  17  18
ATOM     18  C   UNL     1       2.600   2.386   0.652  0.00  0.00    +0.005 A 
ATOM     19  C   UNL     1       2.612   1.430   1.651  0.00  0.00    +0.008 A 
ATOM     20  C   UNL     1       3.180   1.718   2.877  0.00  0.00    +0.000 A 
ATOM     21  C   UNL     1       3.736   2.963   3.108  0.00  0.00    +0.003 A 
ATOM     22  C   UNL     1       3.729   3.919   2.110  0.00  0.00    +0.038 A 
ATOM     23  C   UNL     1       3.156   3.633   0.882  0.00  0.00    +0.128 A 
ATOM     24  F   UNL     1       3.146   4.568  -0.093  0.00  0.00    -0.205 F 
ENDBRANCH  17  18
ENDBRANCH   3  17
BRANCH   3  25
ATOM     25  C   UNL     1       3.825   2.482  -2.381  0.00  0.00    +0.199 C 
BRANCH  25  26
ATOM     26  C   UNL     1       2.924   3.458  -3.092  0.00  0.00    +0.019 A 
ATOM     27  C   UNL     1       2.789   3.682  -4.422  0.00  0.00    +0.013 A 
ATOM     28  C   UNL     1       1.887   4.637  -4.853  0.00  0.00    +0.008 A 
ATOM     29  C   UNL     1       1.172   5.329  -3.933  0.00  0.00    +0.045 A 
ATOM     30  S   UNL     1       1.764   4.627  -2.402  0.00  0.00    -0.099 S 
ENDBRANCH  25  26
BRANCH  25  31
ATOM     31  C   UNL     1       4.760   3.233  -1.468  0.00  0.00    +0.239 C 
ATOM     32  O   UNL     1       4.994   2.808  -0.357  0.00  0.00    -0.273 OA
ATOM     33  N   UNL     1       5.335   4.378  -1.887  0.00  0.00    -0.309 N 
ATOM     34  H   UNL     1       5.091   4.757  -2.746  0.00  0.00    +0.149 HD
BRANCH  33  35
ATOM     35  C   UNL     1       6.328   5.049  -1.046  0.00  0.00    +0.026 C 
ATOM     36  C   UNL     1       7.510   4.108  -0.802  0.00  0.00    +0.031 C 
ATOM     37  C   UNL     1       6.822   6.315  -1.750  0.00  0.00    +0.031 C 
ATOM     38  C   UNL     1       5.691   5.426   0.293  0.00  0.00    +0.031 C 
ENDBRANCH  33  35
ENDBRANCH  25  31
ENDBRANCH   3  25
TORSDOF 9
