REMARK  Name = ZINC14023451
REMARK  9 active torsions:
REMARK  status: ('A' for Active; 'I' for Inactive)
REMARK    1  A    between atoms: C_1  and  N_63
REMARK    2  A    between atoms: C_2  and  N_63
REMARK    3  A    between atoms: C_3  and  C_4
REMARK    4  A    between atoms: C_3  and  N_63
REMARK    5  A    between atoms: C_4  and  C_5
REMARK    6  A    between atoms: C_5  and  N_6
REMARK    7  A    between atoms: C_16  and  C_18
REMARK    8  A    between atoms: N_23  and  S_25
REMARK    9  A    between atoms: S_25  and  C_28
REMARK                            x       y       z     vdW  Elec       q    Type
REMARK                         _______ _______ _______ _____ _____    ______ ____
ROOT
ATOM      1  N   UNL     1      -2.043   4.685  -0.504  0.00  0.00    -0.250 N 
ATOM      2  C   UNL     1      -1.088   3.869  -1.090  0.00  0.00    +0.168 A 
ATOM      3  N   UNL     1      -1.262   2.832  -1.875  0.00  0.00    -0.224 NA
ATOM      4  C   UNL     1      -0.229   2.119  -2.375  0.00  0.00    +0.080 A 
ATOM      5  C   UNL     1      -0.278   0.987  -3.221  0.00  0.00    +0.029 A 
ATOM      6  C   UNL     1       0.875   0.380  -3.646  0.00  0.00    +0.002 A 
ATOM      7  C   UNL     1       2.124   0.848  -3.265  0.00  0.00    +0.001 A 
ATOM      8  C   UNL     1       2.209   1.953  -2.438  0.00  0.00    +0.017 A 
ATOM      9  C   UNL     1       1.060   2.568  -2.007  0.00  0.00    +0.041 A 
ATOM     10  S   UNL     1       0.693   3.965  -0.973  0.00  0.00    -0.052 S 
ATOM     11  C   UNL     1      -1.665   5.800   0.152  0.00  0.00    +0.226 C 
ATOM     12  O   UNL     1      -2.488   6.458   0.751  0.00  0.00    -0.275 OA
ENDROOT
BRANCH  11  13
ATOM     13  C   UNL     1      -0.220   6.228   0.141  0.00  0.00    +0.091 C 
ATOM     14  C   UNL     1       0.542   5.481   1.237  0.00  0.00    +0.015 C 
ATOM     15  C   UNL     1       2.017   5.891   1.205  0.00  0.00    +0.018 C 
ATOM     16  C   UNL     1       2.131   7.394   1.476  0.00  0.00    +0.109 C 
ATOM     17  N   UNL     1       1.283   8.113   0.514  0.00  0.00    -0.176 NA
ATOM     18  C   UNL     1      -0.132   7.735   0.399  0.00  0.00    +0.122 C 
BRANCH  17  19
ATOM     19  S   UNL     1       1.912   9.326  -0.421  0.00  0.00    +0.061 S 
ATOM     20  O   UNL     1       3.310   9.088  -0.510  0.00  0.00    -0.153 OA
ATOM     21  O   UNL     1       1.081   9.425  -1.570  0.00  0.00    -0.153 OA
BRANCH  19  22
ATOM     22  C   UNL     1       1.713  10.831   0.474  0.00  0.00    +0.106 A 
ATOM     23  C   UNL     1       0.566  11.585   0.311  0.00  0.00    +0.031 A 
ATOM     24  C   UNL     1       0.406  12.762   1.018  0.00  0.00    +0.040 A 
ATOM     25  C   UNL     1       1.401  13.192   1.880  0.00  0.00    +0.124 A 
ATOM     26  C   UNL     1       2.552  12.439   2.038  0.00  0.00    +0.040 A 
ATOM     27  C   UNL     1       2.706  11.259   1.335  0.00  0.00    +0.031 A 
ATOM     28  F   UNL     1       1.249  14.346   2.566  0.00  0.00    -0.205 F 
ENDBRANCH  19  22
ENDBRANCH  17  19
ENDBRANCH  11  13
BRANCH   1  29
ATOM     29  C   UNL     1      -3.462   4.335  -0.599  0.00  0.00    +0.114 C 
BRANCH  29  30
ATOM     30  C   UNL     1      -3.852   3.458   0.593  0.00  0.00    +0.001 C 
BRANCH  30  31
ATOM     31  C   UNL     1      -5.334   3.093   0.494  0.00  0.00    -0.078 C 
BRANCH  31  34
ATOM     32  C   UNL     1      -5.616   3.001   2.897  0.00  0.00    -0.097 C 
ATOM     33  C   UNL     1      -7.053   1.686   1.458  0.00  0.00    -0.097 C 
ATOM     34  N   UNL     1      -5.690   2.229   1.639  0.00  0.00    +0.376 N 
ATOM     35  H   UNL     1      -5.024   1.449   1.687  0.00  0.00    -0.083 HD
ENDBRANCH  31  34
ENDBRANCH  30  31
ENDBRANCH  29  30
ENDBRANCH   1  29
TORSDOF 7
