REMARK  Name = ZINC09487125
REMARK  9 active torsions:
REMARK  status: ('A' for Active; 'I' for Inactive)
REMARK    1  A    between atoms: C_1  and  C_2
REMARK    2  A    between atoms: C_9  and  C_19
REMARK    3  A    between atoms: C_12  and  C_13
REMARK    4  A    between atoms: C_19  and  O_21
REMARK    5  A    between atoms: O_21  and  C_22
REMARK    6  A    between atoms: C_22  and  C_23
REMARK    7  A    between atoms: N_25  and  C_26
REMARK    8  A    between atoms: C_31  and  C_32
REMARK    9  A    between atoms: N_34  and  C_35
REMARK                            x       y       z     vdW  Elec       q    Type
REMARK                         _______ _______ _______ _____ _____    ______ ____
ROOT
ATOM      1  C   UNL     1       2.068   4.902   0.342  0.00  0.00    +0.343 C 
ATOM      2  O   UNL     1       1.031   5.532   0.265  0.00  0.00    -0.245 OA
ENDROOT
BRANCH   1  11
ATOM      3  C   UNL     1      -2.925   0.850  -0.837  0.00  0.00    +0.051 C 
ATOM      4  C   UNL     1      -1.584   1.484  -0.569  0.00  0.00    +0.040 A 
ATOM      5  C   UNL     1      -0.420   0.683  -0.488  0.00  0.00    +0.196 A 
ATOM      6  O   UNL     1      -0.472  -0.527  -0.632  0.00  0.00    -0.287 OA
ATOM      7  C   UNL     1       0.860   1.372  -0.228  0.00  0.00    +0.065 A 
ATOM      8  C   UNL     1       2.057   0.664  -0.136  0.00  0.00    +0.015 A 
ATOM      9  C   UNL     1       3.237   1.337   0.107  0.00  0.00    +0.002 A 
ATOM     10  C   UNL     1       3.242   2.711   0.263  0.00  0.00    +0.019 A 
ATOM     11  C   UNL     1       2.055   3.438   0.176  0.00  0.00    +0.102 A 
ATOM     12  C   UNL     1       0.848   2.766  -0.072  0.00  0.00    +0.153 A 
ATOM     13  O   UNL     1      -0.314   3.441  -0.161  0.00  0.00    -0.454 OA
ATOM     14  C   UNL     1      -1.484   2.829  -0.396  0.00  0.00    +0.142 A 
BRANCH  14  15
ATOM     15  C   UNL     1      -2.710   3.648  -0.479  0.00  0.00    +0.018 A 
ATOM     16  C   UNL     1      -2.740   4.787  -1.286  0.00  0.00    +0.011 A 
ATOM     17  C   UNL     1      -3.890   5.545  -1.363  0.00  0.00    +0.001 A 
ATOM     18  C   UNL     1      -5.009   5.185  -0.633  0.00  0.00    +0.000 A 
ATOM     19  C   UNL     1      -4.985   4.061   0.173  0.00  0.00    +0.001 A 
ATOM     20  C   UNL     1      -3.844   3.291   0.255  0.00  0.00    +0.011 A 
ENDBRANCH  14  15
ENDBRANCH   1  11
BRANCH   1  21
ATOM     21  O   UNL     1       3.229   5.543   0.580  0.00  0.00    -0.452 OA
BRANCH  21  22
ATOM     22  C   UNL     1       3.166   6.986   0.733  0.00  0.00    +0.328 C 
BRANCH  22  23
ATOM     23  C   UNL     1       4.550   7.524   0.991  0.00  0.00    +0.255 C 
ATOM     24  O   UNL     1       5.496   6.767   1.041  0.00  0.00    -0.272 OA
ATOM     25  N   UNL     1       4.736   8.848   1.166  0.00  0.00    -0.282 N 
ATOM     26  H   UNL     1       3.973   9.445   1.199  0.00  0.00    +0.155 HD
BRANCH  25  27
ATOM     27  C   UNL     1       6.025   9.357   1.301  0.00  0.00    +0.046 A 
ATOM     28  C   UNL     1       7.103   8.687   0.738  0.00  0.00    +0.024 A 
ATOM     29  C   UNL     1       8.379   9.196   0.869  0.00  0.00    +0.002 A 
ATOM     30  C   UNL     1       8.597  10.372   1.568  0.00  0.00    +0.001 A 
ATOM     31  C   UNL     1       7.540  11.049   2.137  0.00  0.00    +0.015 A 
ATOM     32  C   UNL     1       6.242  10.548   2.010  0.00  0.00    +0.058 A 
BRANCH  32  33
ATOM     33  C   UNL     1       5.106  11.268   2.617  0.00  0.00    +0.246 C 
ATOM     34  O   UNL     1       3.994  10.777   2.595  0.00  0.00    -0.270 OA
ATOM     35  N   UNL     1       5.301  12.469   3.196  0.00  0.00    -0.308 N 
ATOM     36  H   UNL     1       6.189  12.860   3.214  0.00  0.00    +0.149 HD
BRANCH  35  37
ATOM     37  C   UNL     1       4.173  13.183   3.800  0.00  0.00    +0.073 C 
ATOM     38  C   UNL     1       4.060  14.684   3.527  0.00  0.00    +0.024 C 
ATOM     39  C   UNL     1       4.486  14.188   4.910  0.00  0.00    +0.024 C 
ENDBRANCH  35  37
ENDBRANCH  32  33
ENDBRANCH  25  27
ENDBRANCH  22  23
ENDBRANCH  21  22
ENDBRANCH   1  21
TORSDOF 8
