REMARK  Name = ZINC10186775
REMARK  8 active torsions:
REMARK  status: ('A' for Active; 'I' for Inactive)
REMARK    1  A    between atoms: C_1  and  C_2
REMARK    2  A    between atoms: C_2  and  C_3
REMARK    3  A    between atoms: C_3  and  N_4
REMARK    4  A    between atoms: C_10  and  N_15
REMARK    5  A    between atoms: C_11  and  C_12
REMARK    6  A    between atoms: C_16  and  C_18
REMARK    7  A    between atoms: N_21  and  S_24
REMARK    8  A    between atoms: S_24  and  C_27
REMARK                            x       y       z     vdW  Elec       q    Type
REMARK                         _______ _______ _______ _____ _____    ______ ____
ROOT
ATOM      1  N   UNL     1      -1.413  -2.002   0.005  0.00  0.00    +0.383 N 
ATOM      2  C   UNL     1      -2.787  -2.509  -0.110  0.00  0.00    -0.074 C 
ATOM      3  C   UNL     1      -2.773  -4.007  -0.433  0.00  0.00    +0.018 C 
ATOM      4  C   UNL     1      -1.878  -4.697   0.588  0.00  0.00    -0.027 A 
ATOM      5  C   UNL     1      -1.009  -3.973   1.329  0.00  0.00    -0.021 A 
ATOM      6  S   UNL     1      -0.201  -5.161   2.357  0.00  0.00    -0.079 S 
ATOM      7  C   UNL     1      -0.971  -6.561   1.836  0.00  0.00    +0.084 A 
ATOM      8  C   UNL     1      -1.857  -6.119   0.865  0.00  0.00    +0.068 A 
ATOM      9  C   UNL     1      -0.807  -2.492   1.257  0.00  0.00    -0.035 C 
ATOM     10  H   UNL     1      -0.870  -2.327  -0.781  0.00  0.00    -0.081 HD
ENDROOT
BRANCH   8  11
ATOM     11  C   UNL     1      -2.735  -7.051   0.150  0.00  0.00    +0.244 C 
ATOM     12  O   UNL     1      -2.357  -7.571  -0.884  0.00  0.00    -0.270 OA
ATOM     13  N   UNL     1      -3.959  -7.332   0.638  0.00  0.00    -0.325 N 
ATOM     14  H   UNL     1      -4.260  -6.918   1.462  0.00  0.00    +0.145 HD
ATOM     15  H   UNL     1      -4.540  -7.949   0.165  0.00  0.00    +0.145 HD
ENDBRANCH   8  11
BRANCH   7  16
ATOM     16  N   UNL     1      -0.766  -7.860   2.276  0.00  0.00    -0.279 N 
ATOM     17  C   UNL     1       0.145  -8.110   3.238  0.00  0.00    +0.221 C 
ATOM     18  O   UNL     1       0.785  -7.199   3.718  0.00  0.00    -0.275 OA
ATOM     19  H   UNL     1      -1.278  -8.588   1.892  0.00  0.00    +0.155 HD
BRANCH  17  20
ATOM     20  C   UNL     1       0.367  -9.522   3.716  0.00  0.00    +0.078 C 
ATOM     21  C   UNL     1      -0.939 -10.078   4.288  0.00  0.00    +0.030 C 
ATOM     22  C   UNL     1      -0.718 -11.525   4.741  0.00  0.00    +0.110 C 
ATOM     23  N   UNL     1       0.414 -11.559   5.677  0.00  0.00    -0.176 NA
ATOM     24  C   UNL     1       1.693 -10.969   5.261  0.00  0.00    +0.110 C 
ATOM     25  C   UNL     1       1.446  -9.529   4.802  0.00  0.00    +0.030 C 
BRANCH  23  26
ATOM     26  S   UNL     1       0.251 -12.251   7.173  0.00  0.00    +0.067 S 
ATOM     27  O   UNL     1       1.242 -11.661   8.003  0.00  0.00    -0.152 OA
ATOM     28  O   UNL     1      -1.133 -12.208   7.491  0.00  0.00    -0.152 OA
BRANCH  26  29
ATOM     29  C   UNL     1       0.678 -13.952   7.010  0.00  0.00    +0.143 A 
ATOM     30  C   UNL     1       1.888 -14.546   7.153  0.00  0.00    +0.036 A 
ATOM     31  C   UNL     1       1.988 -15.913   6.978  0.00  0.00    +0.010 A 
ATOM     32  C   UNL     1       0.874 -16.620   6.668  0.00  0.00    +0.047 A 
ATOM     33  S   UNL     1      -0.372 -15.343   6.622  0.00  0.00    -0.077 S 
ENDBRANCH  26  29
ENDBRANCH  23  26
ENDBRANCH  17  20
ENDBRANCH   7  16
BRANCH   1  34
ATOM     34  C   UNL     1      -1.433  -0.534   0.013  0.00  0.00    -0.079 C 
BRANCH  34  36
ATOM     35  C   UNL     1      -0.019   1.526   0.010  0.00  0.00    +0.002 C 
ATOM     36  C   UNL     1       0.002  -0.004   0.002  0.00  0.00    -0.022 C 
ENDBRANCH  34  36
ENDBRANCH   1  34
TORSDOF 7
