REMARK  Name = ZINC59403224
REMARK  9 active torsions:
REMARK  status: ('A' for Active; 'I' for Inactive)
REMARK    1  A    between atoms: C_1  and  C_2
REMARK    2  A    between atoms: C_2  and  N_3
REMARK    3  A    between atoms: N_3  and  C_4
REMARK    4  A    between atoms: N_3  and  C_12
REMARK    5  A    between atoms: C_4  and  C_5
REMARK    6  A    between atoms: C_10  and  C_11
REMARK    7  A    between atoms: C_12  and  C_13
REMARK    8  A    between atoms: N_15  and  C_16
REMARK    9  A    between atoms: C_17  and  C_25
REMARK                            x       y       z     vdW  Elec       q    Type
REMARK                         _______ _______ _______ _____ _____    ______ ____
ROOT
ATOM      1  C   UNL     1       1.783  -2.393  -0.129  0.00  0.00    +0.201 C 
ATOM      2  O   UNL     1       2.123  -1.525  -0.906  0.00  0.00    -0.278 OA
ATOM      3  N   UNL     1       2.111  -3.678  -0.369  0.00  0.00    -0.281 N 
ATOM      4  H   UNL     1       1.839  -4.372   0.252  0.00  0.00    +0.155 HD
ENDROOT
BRANCH   3   5
ATOM      5  C   UNL     1       2.836  -4.008  -1.504  0.00  0.00    +0.084 A 
ATOM      6  C   UNL     1       3.253  -5.265  -1.913  0.00  0.00    +0.068 A 
ATOM      7  C   UNL     1       4.007  -5.344  -3.152  0.00  0.00    -0.023 A 
ATOM      8  C   UNL     1       4.205  -4.152  -3.755  0.00  0.00    -0.004 A 
ATOM      9  S   UNL     1       3.404  -2.978  -2.703  0.00  0.00    -0.077 S 
ATOM     10  C   UNL     1       4.941  -3.903  -5.035  0.00  0.00    +0.043 C 
ATOM     11  C   UNL     1       5.762  -5.157  -5.371  0.00  0.00    +0.005 C 
ATOM     12  C   UNL     1       4.865  -6.390  -5.230  0.00  0.00    +0.005 C 
ATOM     13  C   UNL     1       4.544  -6.634  -3.754  0.00  0.00    +0.037 C 
BRANCH   6  14
ATOM     14  C   UNL     1       2.948  -6.464  -1.127  0.00  0.00    +0.244 C 
ATOM     15  O   UNL     1       1.923  -7.086  -1.338  0.00  0.00    -0.270 OA
ATOM     16  N   UNL     1       3.801  -6.878  -0.169  0.00  0.00    -0.325 N 
ATOM     17  H   UNL     1       4.618  -6.383  -0.001  0.00  0.00    +0.145 HD
ATOM     18  H   UNL     1       3.599  -7.672   0.351  0.00  0.00    +0.145 HD
ENDBRANCH   6  14
ENDBRANCH   3   5
BRANCH   1  19
ATOM     19  C   UNL     1       0.995  -2.034   1.104  0.00  0.00    +0.019 C 
BRANCH  19  20
ATOM     20  N   UNL     1       0.768  -0.583   1.135  0.00  0.00    +0.388 N 
ATOM     21  H   UNL     1       1.653  -0.102   1.069  0.00  0.00    -0.081 HD
BRANCH  20  23
ATOM     22  C   UNL     1      -0.198   1.329  -0.051  0.00  0.00    -0.017 C 
ATOM     23  C   UNL     1      -0.084  -0.196   0.003  0.00  0.00    -0.081 C 
ENDBRANCH  20  23
BRANCH  20  24
ATOM     24  C   UNL     1       0.105  -0.217   2.394  0.00  0.00    -0.042 C 
BRANCH  24  25
ATOM     25  C   UNL     1       1.036  -0.488   3.549  0.00  0.00    -0.061 A 
ATOM     26  C   UNL     1       0.881  -1.634   4.307  0.00  0.00    +0.002 A 
ATOM     27  C   UNL     1       1.734  -1.882   5.366  0.00  0.00    +0.000 A 
ATOM     28  C   UNL     1       2.742  -0.986   5.666  0.00  0.00    +0.000 A 
ATOM     29  C   UNL     1       2.898   0.159   4.907  0.00  0.00    +0.003 A 
ATOM     30  C   UNL     1       2.047   0.406   3.846  0.00  0.00    -0.049 A 
ATOM     31  C   UNL     1       2.220   1.651   3.015  0.00  0.00    +0.044 C 
ENDBRANCH  24  25
ENDBRANCH  20  24
ENDBRANCH  19  20
ENDBRANCH   1  19
TORSDOF 7
