REMARK  Name = ZINC06149330
REMARK  14 active torsions:
REMARK  status: ('A' for Active; 'I' for Inactive)
REMARK    1  A    between atoms: C_1  and  C_2
REMARK    2  A    between atoms: C_2  and  C_3
REMARK    3  A    between atoms: C_3  and  C_4
REMARK    4  A    between atoms: C_3  and  C_5
REMARK    5  A    between atoms: C_3  and  N_6
REMARK    6  A    between atoms: C_7  and  C_11
REMARK    7  A    between atoms: C_11  and  C_13
REMARK    8  A    between atoms: C_11  and  N_72
REMARK    9  A    between atoms: C_16  and  C_26
REMARK   10  A    between atoms: C_18  and  C_25
REMARK   11  A    between atoms: C_27  and  C_28
REMARK   12  A    between atoms: C_27  and  N_72
REMARK   13  A    between atoms: C_35  and  C_36
REMARK   14  A    between atoms: C_35  and  N_72
REMARK                            x       y       z     vdW  Elec       q    Type
REMARK                         _______ _______ _______ _____ _____    ______ ____
ROOT
ATOM      1  C   UNL     1       5.369  -2.583  -0.208  0.00  0.00    +0.040 C 
ENDROOT
BRANCH   1   2
ATOM      2  C   UNL     1       4.257  -1.622   0.125  0.00  0.00    +0.011 A 
ATOM      3  C   UNL     1       3.679  -1.656   1.352  0.00  0.00    +0.018 A 
ATOM      4  C   UNL     1       2.602  -0.710   1.643  0.00  0.00    +0.002 A 
ATOM      5  C   UNL     1       1.967  -0.698   2.890  0.00  0.00    -0.041 A 
ATOM      6  C   UNL     1       0.965   0.200   3.131  0.00  0.00    +0.007 A 
ATOM      7  C   UNL     1       0.571   1.099   2.150  0.00  0.00    -0.048 A 
ATOM      8  C   UNL     1       1.181   1.104   0.914  0.00  0.00    +0.029 A 
ATOM      9  C   UNL     1       2.204   0.200   0.646  0.00  0.00    +0.050 A 
ATOM     10  N   UNL     1       2.833   0.184  -0.581  0.00  0.00    -0.322 N 
ATOM     11  H   UNL     1       2.549   0.832  -1.288  0.00  0.00    +0.169 HD
ATOM     12  C   UNL     1       3.821  -0.690  -0.840  0.00  0.00    +0.251 A 
ATOM     13  O   UNL     1       4.354  -0.676  -1.936  0.00  0.00    -0.268 OA
ATOM     14  C   UNL     1      -0.533   2.083   2.440  0.00  0.00    +0.044 C 
ATOM     15  C   UNL     1       2.387  -1.669   3.962  0.00  0.00    +0.044 C 
ENDBRANCH   1   2
BRANCH   1  17
ATOM     16  N   UNL     1       6.793  -3.242   1.803  0.00  0.00    -0.225 N 
ATOM     17  C   UNL     1       5.714  -3.396   1.014  0.00  0.00    +0.143 A 
ATOM     18  N   UNL     1       5.017  -4.386   1.518  0.00  0.00    -0.115 NA
ATOM     19  N   UNL     1       5.641  -4.822   2.557  0.00  0.00    -0.023 NA
ATOM     20  N   UNL     1       6.713  -4.131   2.734  0.00  0.00    -0.043 NA
BRANCH  16  21
ATOM     21  C   UNL     1       7.859  -2.251   1.636  0.00  0.00    +0.061 C 
ATOM     22  C   UNL     1       8.614  -2.528   0.335  0.00  0.00    +0.036 C 
ATOM     23  C   UNL     1       7.247  -0.849   1.582  0.00  0.00    +0.036 C 
BRANCH  21  25
ATOM     24  C   UNL     1       9.940  -1.304   2.643  0.00  0.00    +0.006 C 
ATOM     25  C   UNL     1       8.828  -2.340   2.817  0.00  0.00    +0.026 C 
ENDBRANCH  21  25
ENDBRANCH  16  21
ENDBRANCH   1  17
BRANCH   1  26
ATOM     26  N   UNL     1       4.928  -3.465  -1.309  0.00  0.00    +0.397 N 
ATOM     27  H   UNL     1       4.739  -2.892  -2.140  0.00  0.00    -0.079 HD
BRANCH  26  28
ATOM     28  C   UNL     1       5.990  -4.441  -1.631  0.00  0.00    -0.041 C 
BRANCH  28  29
ATOM     29  C   UNL     1       5.673  -5.082  -2.958  0.00  0.00    -0.064 A 
ATOM     30  C   UNL     1       4.967  -6.269  -3.000  0.00  0.00    +0.004 A 
ATOM     31  C   UNL     1       4.671  -6.855  -4.216  0.00  0.00    +0.038 A 
ATOM     32  C   UNL     1       5.093  -6.258  -5.392  0.00  0.00    +0.123 A 
ATOM     33  C   UNL     1       5.805  -5.072  -5.348  0.00  0.00    +0.038 A 
ATOM     34  C   UNL     1       6.095  -4.485  -4.131  0.00  0.00    +0.004 A 
ATOM     35  F   UNL     1       4.809  -6.832  -6.582  0.00  0.00    -0.205 F 
ENDBRANCH  28  29
ENDBRANCH  26  28
BRANCH  26  36
ATOM     36  C   UNL     1       3.690  -4.175  -0.923  0.00  0.00    -0.001 C 
BRANCH  36  37
ATOM     37  C   UNL     1       2.509  -3.321  -1.306  0.00  0.00    +0.089 A 
ATOM     38  C   UNL     1       1.948  -3.255  -2.527  0.00  0.00    +0.042 A 
ATOM     39  C   UNL     1       0.876  -2.338  -2.437  0.00  0.00    +0.041 A 
ATOM     40  C   UNL     1       0.846  -1.897  -1.166  0.00  0.00    +0.195 A 
ATOM     41  O   UNL     1       1.833  -2.500  -0.484  0.00  0.00    -0.470 OA
ENDBRANCH  36  37
ENDBRANCH  26  36
ENDBRANCH   1  26
TORSDOF 9
