REMARK  Name = ZINC57810261
REMARK  12 active torsions:
REMARK  status: ('A' for Active; 'I' for Inactive)
REMARK    1  A    between atoms: C_1  and  C_2
REMARK    2  A    between atoms: C_7  and  C_14
REMARK    3  A    between atoms: C_8  and  O_12
REMARK    4  A    between atoms: O_12  and  C_13
REMARK    5  A    between atoms: C_14  and  N_15
REMARK    6  A    between atoms: N_15  and  C_16
REMARK    7  A    between atoms: N_15  and  C_23
REMARK    8  A    between atoms: C_16  and  C_17
REMARK    9  A    between atoms: C_18  and  C_22
REMARK   10  A    between atoms: C_23  and  C_24
REMARK   11  A    between atoms: C_24  and  C_26
REMARK   12  A    between atoms: C_24  and  O_27
REMARK                            x       y       z     vdW  Elec       q    Type
REMARK                         _______ _______ _______ _____ _____    ______ ____
ROOT
ATOM      1  C   UNL     1       0.609  -5.633   0.626  0.00  0.00    +0.125 C 
ENDROOT
BRANCH   1   8
ATOM      2  C   UNL     1       3.444   1.672  -0.571  0.00  0.00    +0.044 C 
ATOM      3  C   UNL     1       2.993   0.234  -0.553  0.00  0.00    -0.048 A 
ATOM      4  C   UNL     1       3.278  -0.587  -1.643  0.00  0.00    +0.004 A 
ATOM      5  C   UNL     1       2.884  -1.890  -1.656  0.00  0.00    +0.010 A 
ATOM      6  C   UNL     1       2.182  -2.415  -0.560  0.00  0.00    +0.001 A 
ATOM      7  C   UNL     1       1.758  -3.759  -0.537  0.00  0.00    +0.020 A 
ATOM      8  C   UNL     1       1.081  -4.204   0.559  0.00  0.00    +0.029 A 
ATOM      9  C   UNL     1       0.825  -3.330   1.623  0.00  0.00    +0.220 A 
ATOM     10  N   UNL     1       1.222  -2.076   1.596  0.00  0.00    -0.213 NA
ATOM     11  C   UNL     1       1.891  -1.583   0.548  0.00  0.00    +0.075 A 
ATOM     12  C   UNL     1       2.319  -0.244   0.528  0.00  0.00    +0.031 A 
BRANCH   9  13
ATOM     13  O   UNL     1       0.150  -3.787   2.706  0.00  0.00    -0.479 OA
ATOM     14  C   UNL     1      -0.086  -2.856   3.764  0.00  0.00    +0.279 C 
ENDBRANCH   9  13
ENDBRANCH   1   8
BRANCH   1  15
ATOM     15  N   UNL     1       1.644  -6.462   1.258  0.00  0.00    -0.291 NA
BRANCH  15  16
ATOM     16  C   UNL     1       1.402  -7.889   1.007  0.00  0.00    +0.127 C 
BRANCH  16  17
ATOM     17  C   UNL     1       2.663  -8.668   1.279  0.00  0.00    +0.007 A 
ATOM     18  C   UNL     1       2.975  -9.441   2.348  0.00  0.00    -0.039 A 
ATOM     19  C   UNL     1       4.206 -10.069   2.384  0.00  0.00    +0.011 A 
ATOM     20  C   UNL     1       5.065  -9.893   1.350  0.00  0.00    +0.046 A 
ATOM     21  S   UNL     1       4.131  -8.817   0.274  0.00  0.00    -0.100 S 
ATOM     22  C   UNL     1       1.995  -9.613   3.479  0.00  0.00    +0.044 C 
ENDBRANCH  16  17
ENDBRANCH  15  16
BRANCH  15  23
ATOM     23  C   UNL     1       1.730  -6.188   2.699  0.00  0.00    +0.116 C 
BRANCH  23  24
ATOM     24  C   UNL     1       3.139  -6.516   3.197  0.00  0.00    +0.125 C 
ATOM     25  C   UNL     1       3.249  -6.164   4.682  0.00  0.00    +0.039 C 
BRANCH  24  26
ATOM     26  O   UNL     1       4.095  -5.756   2.455  0.00  0.00    -0.391 OA
ATOM     27  H   UNL     1       3.981  -4.799   2.531  0.00  0.00    +0.210 HD
ENDBRANCH  24  26
ENDBRANCH  23  24
ENDBRANCH  15  23
ENDBRANCH   1  15
TORSDOF 8
