REMARK  Name = ZINC08789923
REMARK  7 active torsions:
REMARK  status: ('A' for Active; 'I' for Inactive)
REMARK    1  A    between atoms: C_1  and  C_2
REMARK    2  A    between atoms: C_2  and  C_3
REMARK    3  A    between atoms: C_14  and  C_16
REMARK    4  A    between atoms: C_16  and  C_18
REMARK    5  A    between atoms: C_16  and  O_19
REMARK    6  A    between atoms: N_22  and  C_25
REMARK    7  A    between atoms: C_25  and  C_26
REMARK                            x       y       z     vdW  Elec       q    Type
REMARK                         _______ _______ _______ _____ _____    ______ ____
ROOT
ATOM      1  C   UNL     1       3.132  -3.717  -3.518  0.00  0.00    -0.047 A 
ATOM      2  C   UNL     1       4.410  -3.534  -4.014  0.00  0.00    +0.005 A 
ATOM      3  C   UNL     1       4.960  -2.271  -4.073  0.00  0.00    +0.024 A 
ATOM      4  C   UNL     1       4.231  -1.168  -3.634  0.00  0.00    +0.036 A 
ATOM      5  C   UNL     1       2.946  -1.364  -3.137  0.00  0.00    -0.027 A 
ATOM      6  C   UNL     1       2.401  -2.627  -3.079  0.00  0.00    +0.008 A 
ATOM      7  C   UNL     1       2.441  -0.002  -2.756  0.00  0.00    +0.050 C 
ATOM      8  C   UNL     1       1.158   0.355  -3.518  0.00  0.00    +0.088 C 
ATOM      9  C   UNL     1       0.010   0.034  -2.521  0.00  0.00    +0.075 C 
ATOM     10  C   UNL     1       0.718  -0.497  -1.257  0.00  0.00    -0.028 C 
ATOM     11  C   UNL     1      -0.601   1.384  -2.222  0.00  0.00    +0.224 C 
ATOM     12  O   UNL     1      -1.534   1.580  -1.474  0.00  0.00    -0.275 OA
ATOM     13  N   UNL     1       0.050   2.329  -2.911  0.00  0.00    -0.237 N 
ATOM     14  C   UNL     1       1.053   1.872  -3.669  0.00  0.00    +0.225 C 
ATOM     15  O   UNL     1       1.767   2.555  -4.372  0.00  0.00    -0.275 OA
ATOM     16  C   UNL     1       3.563   0.941  -3.094  0.00  0.00    +0.211 C 
ATOM     17  O   UNL     1       3.568   2.144  -2.944  0.00  0.00    -0.277 OA
ATOM     18  N   UNL     1       4.562   0.189  -3.595  0.00  0.00    -0.286 N 
ATOM     19  H   UNL     1       5.412   0.547  -3.894  0.00  0.00    +0.155 HD
ATOM     20  N   UNL     1       2.073   0.051  -1.351  0.00  0.00    +0.396 N 
ATOM     21  H   UNL     1       2.087   1.021  -1.016  0.00  0.00    -0.083 HD
ATOM     22  H   UNL     1       2.724  -0.514  -0.792  0.00  0.00    -0.083 HD
ENDROOT
BRANCH   1  24
ATOM     23  C   UNL     1       1.796  -5.396  -4.761  0.00  0.00    +0.009 C 
ATOM     24  C   UNL     1       2.537  -5.100  -3.455  0.00  0.00    +0.032 C 
ENDBRANCH   1  24
BRANCH  10  25
ATOM     25  C   UNL     1       0.002  -0.004   0.002  0.00  0.00    +0.098 C 
ATOM     26  C   UNL     1      -1.389  -0.635   0.078  0.00  0.00    +0.036 C 
BRANCH  25  27
ATOM     27  O   UNL     1       0.757  -0.376   1.157  0.00  0.00    -0.394 OA
ATOM     28  H   UNL     1       0.882  -1.330   1.254  0.00  0.00    +0.210 HD
ENDBRANCH  25  27
ENDBRANCH  10  25
BRANCH  13  29
ATOM     29  C   UNL     1      -0.308   3.748  -2.841  0.00  0.00    +0.151 C 
BRANCH  29  30
ATOM     30  C   UNL     1       0.470   4.408  -1.731  0.00  0.00    -0.026 A 
ATOM     31  C   UNL     1      -0.057   4.455  -0.454  0.00  0.00    +0.009 A 
ATOM     32  C   UNL     1       0.654   5.055   0.569  0.00  0.00    +0.050 A 
ATOM     33  C   UNL     1       1.893   5.620   0.313  0.00  0.00    +0.166 A 
ATOM     34  C   UNL     1       2.421   5.577  -0.975  0.00  0.00    +0.167 A 
ATOM     35  C   UNL     1       1.705   4.969  -1.994  0.00  0.00    +0.054 A 
ATOM     36  O   UNL     1       3.639   6.194  -0.969  0.00  0.00    -0.453 OA
ATOM     37  C   UNL     1       4.032   6.254   0.415  0.00  0.00    +0.466 C 
ATOM     38  O   UNL     1       2.780   6.264   1.126  0.00  0.00    -0.453 OA
ENDBRANCH  29  30
ENDBRANCH  13  29
TORSDOF 5
