REMARK  Name = ZINC40058338
REMARK  6 active torsions:
REMARK  status: ('A' for Active; 'I' for Inactive)
REMARK    1  A    between atoms: C_1  and  C_2
REMARK    2  A    between atoms: C_7  and  C_12
REMARK    3  A    between atoms: N_14  and  N_15
REMARK    4  A    between atoms: C_16  and  C_18
REMARK    5  A    between atoms: C_23  and  O_24
REMARK    6  A    between atoms: O_24  and  C_25
REMARK                            x       y       z     vdW  Elec       q    Type
REMARK                         _______ _______ _______ _____ _____    ______ ____
ROOT
ATOM      1  C   UNL     1       0.088  -5.558   2.350  0.00  0.00    +0.276 C 
ATOM      2  O   UNL     1       0.100  -6.611   1.742  0.00  0.00    -0.267 OA
ATOM      3  N   UNL     1       0.094  -5.558   3.698  0.00  0.00    -0.229 N 
ATOM      4  H   UNL     1       0.085  -4.718   4.183  0.00  0.00    +0.173 HD
ENDROOT
BRANCH   1  11
ATOM      5  C   UNL     1      -0.018   1.503   0.010  0.00  0.00    +0.044 C 
ATOM      6  C   UNL     1       0.002  -0.004   0.002  0.00  0.00    -0.048 A 
ATOM      7  C   UNL     1       0.006  -0.685  -1.209  0.00  0.00    +0.004 A 
ATOM      8  C   UNL     1       0.025  -2.049  -1.239  0.00  0.00    +0.010 A 
ATOM      9  C   UNL     1       0.040  -2.772  -0.039  0.00  0.00    +0.000 A 
ATOM     10  C   UNL     1       0.060  -4.156   0.262  0.00  0.00    +0.041 A 
ATOM     11  C   UNL     1       0.068  -4.284   1.615  0.00  0.00    +0.104 A 
ATOM     12  N   UNL     1       0.054  -3.028   2.189  0.00  0.00    -0.351 N 
ATOM     13  H   UNL     1       0.056  -2.842   3.142  0.00  0.00    +0.166 HD
ATOM     14  C   UNL     1       0.037  -2.084   1.190  0.00  0.00    +0.047 A 
ATOM     15  C   UNL     1       0.023  -0.692   1.194  0.00  0.00    +0.029 A 
ENDBRANCH   1  11
BRANCH   3  16
ATOM     16  N   UNL     1       0.113  -6.771   4.398  0.00  0.00    -0.230 N 
ATOM     17  C   UNL     1       0.119  -6.771   5.746  0.00  0.00    +0.264 C 
ATOM     18  O   UNL     1       0.107  -5.718   6.354  0.00  0.00    -0.269 OA
ATOM     19  H   UNL     1       0.122  -7.611   3.913  0.00  0.00    +0.173 HD
BRANCH  17  20
ATOM     20  C   UNL     1       0.139  -8.049   6.484  0.00  0.00    +0.081 A 
ATOM     21  C   UNL     1       0.158  -9.261   5.789  0.00  0.00    +0.036 A 
ATOM     22  C   UNL     1       0.177 -10.451   6.484  0.00  0.00    +0.042 A 
ATOM     23  C   UNL     1       0.177 -10.451   7.871  0.00  0.00    +0.023 A 
ATOM     24  C   UNL     1       0.158  -9.260   8.569  0.00  0.00    +0.048 A 
ATOM     25  C   UNL     1       0.145  -8.053   7.885  0.00  0.00    +0.132 A 
ATOM     26 CL   UNL     1       0.200 -11.957   5.620  0.00  0.00    -0.084 Cl
BRANCH  25  27
ATOM     27  O   UNL     1       0.133  -6.882   8.570  0.00  0.00    -0.494 OA
ATOM     28  C   UNL     1       0.140  -6.965   9.996  0.00  0.00    +0.277 C 
ENDBRANCH  25  27
ENDBRANCH  17  20
ENDBRANCH   3  16
TORSDOF 4
