REMARK  Name = ZINC59400530
REMARK  6 active torsions:
REMARK  status: ('A' for Active; 'I' for Inactive)
REMARK    1  A    between atoms: C_1  and  C_2
REMARK    2  A    between atoms: C_5  and  N_11
REMARK    3  A    between atoms: C_6  and  N_8
REMARK    4  A    between atoms: C_12  and  C_14
REMARK    5  A    between atoms: C_19  and  O_20
REMARK    6  A    between atoms: O_20  and  C_21
REMARK                            x       y       z     vdW  Elec       q    Type
REMARK                         _______ _______ _______ _____ _____    ______ ____
ROOT
ATOM      1  N   UNL     1       0.039  -4.000  -0.028  0.00  0.00    -0.280 N 
ATOM      2  C   UNL     1      -0.099  -4.617  -1.218  0.00  0.00    +0.252 C 
ATOM      3  O   UNL     1      -0.138  -3.961  -2.242  0.00  0.00    -0.270 OA
ATOM      4  H   UNL     1       0.151  -4.524   0.780  0.00  0.00    +0.155 HD
ENDROOT
BRANCH   2   5
ATOM      5  C   UNL     1      -0.203  -6.087  -1.279  0.00  0.00    +0.081 A 
ATOM      6  C   UNL     1      -0.165  -6.843  -0.105  0.00  0.00    +0.032 A 
ATOM      7  C   UNL     1      -0.262  -8.217  -0.168  0.00  0.00    +0.020 A 
ATOM      8  C   UNL     1      -0.398  -8.852  -1.393  0.00  0.00    +0.034 A 
ATOM      9  C   UNL     1      -0.437  -8.116  -2.561  0.00  0.00    +0.061 A 
ATOM     10  C   UNL     1      -0.346  -6.732  -2.514  0.00  0.00    +0.146 A 
ATOM     11 BR   UNL     1      -0.622  -8.995  -4.225  0.00  0.00    -0.046 Br
ATOM     12 BR   UNL     1      -0.211  -9.239   1.422  0.00  0.00    -0.050 Br
BRANCH  10  13
ATOM     13  O   UNL     1      -0.389  -6.008  -3.661  0.00  0.00    -0.493 OA
ATOM     14  C   UNL     1       0.856  -5.747  -4.311  0.00  0.00    +0.277 C 
ENDBRANCH  10  13
ENDBRANCH   2   5
BRANCH   1  19
ATOM     15  C   UNL     1      -0.039   1.665   0.256  0.00  0.00    +0.044 C 
ATOM     16  C   UNL     1      -0.019   0.160   0.181  0.00  0.00    -0.048 A 
ATOM     17  C   UNL     1      -0.652  -0.487  -0.864  0.00  0.00    +0.005 A 
ATOM     18  C   UNL     1      -0.635  -1.866  -0.937  0.00  0.00    +0.026 A 
ATOM     19  C   UNL     1       0.020  -2.603   0.042  0.00  0.00    +0.064 A 
ATOM     20  C   UNL     1       0.655  -1.950   1.090  0.00  0.00    +0.148 A 
ATOM     21  C   UNL     1       0.638  -0.570   1.154  0.00  0.00    +0.038 A 
BRANCH  20  22
ATOM     22  N   UNL     1       1.353  -2.732   2.136  0.00  0.00    +0.058 N 
ATOM     23  O   UNL     1       1.823  -2.170   3.097  0.00  0.00    -0.126 OA
ATOM     24  O   UNL     1       1.453  -3.931   2.027  0.00  0.00    -0.126 OA
ENDBRANCH  20  22
ENDBRANCH   1  19
TORSDOF 4
