REMARK  Name = ZINC12298049
REMARK  12 active torsions:
REMARK  status: ('A' for Active; 'I' for Inactive)
REMARK    1  A    between atoms: C_1  and  C_2
REMARK    2  A    between atoms: C_2  and  O_3
REMARK    3  A    between atoms: O_3  and  C_4
REMARK    4  A    between atoms: C_7  and  C_10
REMARK    5  A    between atoms: C_12  and  C_16
REMARK    6  A    between atoms: C_13  and  C_15
REMARK    7  A    between atoms: C_16  and  N_59
REMARK    8  A    between atoms: N_19  and  C_25
REMARK    9  A    between atoms: C_22  and  C_24
REMARK   10  A    between atoms: C_25  and  C_26
REMARK   11  A    between atoms: C_26  and  C_27
REMARK   12  A    between atoms: C_26  and  C_28
REMARK                            x       y       z     vdW  Elec       q    Type
REMARK                         _______ _______ _______ _____ _____    ______ ____
ROOT
ATOM      1  C   UNL     1      -2.521   3.868   0.046  0.00  0.00    +0.228 A 
ATOM      2  N   UNL     1      -3.712   3.315   0.050  0.00  0.00    -0.216 NA
ATOM      3  C   UNL     1      -4.636   4.288   0.069  0.00  0.00    +0.066 A 
ATOM      4  C   UNL     1      -3.993   5.469   0.069  0.00  0.00    +0.124 A 
ATOM      5  O   UNL     1      -2.671   5.204   0.055  0.00  0.00    -0.440 OA
ATOM      6  C   UNL     1      -4.630   6.834   0.082  0.00  0.00    +0.088 C 
ENDROOT
BRANCH   1  10
ATOM      7  C   UNL     1       1.181   1.786   0.000  0.00  0.00    +0.121 A 
ATOM      8  C   UNL     1      -0.013   1.076   0.008  0.00  0.00    +0.046 A 
ATOM      9  C   UNL     1      -1.216   1.748   0.017  0.00  0.00    +0.017 A 
ATOM     10  C   UNL     1      -1.234   3.144   0.030  0.00  0.00    +0.037 A 
ATOM     11  C   UNL     1      -0.031   3.854   0.023  0.00  0.00    +0.017 A 
ATOM     12  C   UNL     1       1.168   3.175   0.008  0.00  0.00    +0.046 A 
BRANCH   7  13
ATOM     13  O   UNL     1       2.365   1.120  -0.014  0.00  0.00    -0.492 OA
BRANCH  13  15
ATOM     14  C   UNL     1       4.778   0.993  -0.037  0.00  0.00    +0.048 C 
ATOM     15  C   UNL     1       3.555   1.912  -0.021  0.00  0.00    +0.225 C 
ENDBRANCH  13  15
ENDBRANCH   7  13
ENDBRANCH   1  10
BRANCH   3  16
ATOM     16  C   UNL     1      -6.130   4.092   0.082  0.00  0.00    -0.018 C 
BRANCH  16  24
ATOM     17  C   UNL     1      -6.125   2.838  -1.992  0.00  0.00    -0.058 C 
ATOM     18  C   UNL     1      -6.409   2.982  -3.489  0.00  0.00    +0.089 C 
ATOM     19  N   UNL     1      -7.809   3.337  -3.700  0.00  0.00    -0.304 N 
ATOM     20  C   UNL     1      -8.584   3.842  -2.735  0.00  0.00    +0.202 C 
ATOM     21  O   UNL     1      -9.729   4.140  -3.005  0.00  0.00    -0.277 OA
ATOM     22  C   UNL     1      -8.097   4.057  -1.330  0.00  0.00    +0.017 C 
ATOM     23  C   UNL     1      -8.595   5.411  -0.821  0.00  0.00    -0.004 C 
ATOM     24  N   UNL     1      -6.622   4.052  -1.314  0.00  0.00    +0.392 N 
ATOM     25  H   UNL     1      -6.279   4.880  -1.813  0.00  0.00    -0.080 HD
BRANCH  19  26
ATOM     26  C   UNL     1      -8.390   3.133  -5.029  0.00  0.00    +0.110 C 
BRANCH  26  27
ATOM     27  C   UNL     1      -8.989   1.727  -5.113  0.00  0.00    +0.000 C 
ATOM     28  C   UNL     1      -9.704   1.557  -6.455  0.00  0.00    +0.009 C 
ATOM     29  C   UNL     1      -7.871   0.689  -4.996  0.00  0.00    +0.009 C 
ENDBRANCH  26  27
ENDBRANCH  19  26
ENDBRANCH  16  24
ENDBRANCH   3  16
TORSDOF 7
