REMARK  Name = ZINC22809388
REMARK  11 active torsions:
REMARK  status: ('A' for Active; 'I' for Inactive)
REMARK    1  A    between atoms: C_1  and  C_2
REMARK    2  A    between atoms: C_4  and  C_18
REMARK    3  A    between atoms: C_5  and  C_17
REMARK    4  A    between atoms: N_6  and  C_7
REMARK    5  A    between atoms: C_10  and  S_13
REMARK    6  A    between atoms: S_13  and  N_16
REMARK    7  A    between atoms: C_18  and  C_20
REMARK    8  A    between atoms: C_20  and  N_21
REMARK    9  A    between atoms: N_24  and  C_27
REMARK   10  A    between atoms: C_27  and  C_28
REMARK   11  A    between atoms: C_29  and  C_30
REMARK                            x       y       z     vdW  Elec       q    Type
REMARK                         _______ _______ _______ _____ _____    ______ ____
ROOT
ATOM      1  C   UNL     1      -0.018   1.503   0.010  0.00  0.00    +0.064 C 
ATOM      2  C   UNL     1       0.002  -0.004   0.002  0.00  0.00    +0.022 A 
ATOM      3  C   UNL     1       0.008  -0.777  -1.097  0.00  0.00    +0.034 A 
ATOM      4  C   UNL     1       0.029  -2.168  -0.626  0.00  0.00    +0.040 A 
ATOM      5  C   UNL     1       0.034  -2.101   0.755  0.00  0.00    +0.031 A 
ATOM      6  N   UNL     1       0.024  -0.802   1.112  0.00  0.00    -0.317 N 
ATOM      7  C   UNL     1       0.053  -3.277   1.697  0.00  0.00    +0.064 C 
ENDROOT
BRANCH   6   8
ATOM      8  C   UNL     1       0.030  -0.336   2.433  0.00  0.00    +0.047 A 
ATOM      9  C   UNL     1       1.132  -0.562   3.246  0.00  0.00    +0.028 A 
ATOM     10  C   UNL     1       1.135  -0.101   4.548  0.00  0.00    +0.030 A 
ATOM     11  C   UNL     1       0.042   0.586   5.042  0.00  0.00    +0.105 A 
ATOM     12  C   UNL     1      -1.058   0.813   4.235  0.00  0.00    +0.030 A 
ATOM     13  C   UNL     1      -1.064   0.360   2.930  0.00  0.00    +0.028 A 
BRANCH  11  14
ATOM     14  S   UNL     1       0.049   1.172   6.704  0.00  0.00    +0.056 S 
ATOM     15  O   UNL     1      -1.311   1.308   7.093  0.00  0.00    -0.153 OA
ATOM     16  O   UNL     1       0.968   0.357   7.418  0.00  0.00    -0.153 OA
BRANCH  14  17
ATOM     17  N   UNL     1       0.690   2.699   6.681  0.00  0.00    -0.204 NA
ATOM     18  H   UNL     1       0.409   3.353   7.341  0.00  0.00    +0.144 HD
ATOM     19  H   UNL     1       1.345   2.940   6.008  0.00  0.00    +0.144 HD
ENDBRANCH  14  17
ENDBRANCH  11  14
ENDBRANCH   6   8
BRANCH   4  20
ATOM     20  C   UNL     1       0.041  -3.378  -1.450  0.00  0.00    +0.179 C 
ATOM     21  O   UNL     1       0.058  -4.471  -0.923  0.00  0.00    -0.291 OA
BRANCH  20  22
ATOM     22  C   UNL     1       0.033  -3.266  -2.953  0.00  0.00    +0.164 C 
BRANCH  22  23
ATOM     23  N   UNL     1       0.048  -4.611  -3.544  0.00  0.00    -0.299 NA
ATOM     24  C   UNL     1       1.315  -5.299  -3.257  0.00  0.00    +0.066 C 
ATOM     25  C   UNL     1       1.267  -6.714  -3.837  0.00  0.00    -0.063 C 
ATOM     26  N   UNL     1       1.048  -6.641  -5.288  0.00  0.00    +0.384 N 
ATOM     27  C   UNL     1      -0.233  -5.974  -5.559  0.00  0.00    -0.063 C 
ATOM     28  C   UNL     1      -0.197  -4.553  -4.992  0.00  0.00    +0.066 C 
ATOM     29  H   UNL     1       1.796  -6.117  -5.715  0.00  0.00    -0.081 HD
BRANCH  26  30
ATOM     30  C   UNL     1       1.020  -7.999  -5.848  0.00  0.00    -0.051 C 
BRANCH  30  31
ATOM     31  C   UNL     1       0.918  -7.922  -7.349  0.00  0.00    -0.045 C 
ATOM     32  C   UNL     1       1.814  -8.539  -8.107  0.00  0.00    +0.002 C 
BRANCH  32  33
ATOM     33  C   UNL     1       1.714  -8.463  -9.580  0.00  0.00    -0.025 A 
ATOM     34  C   UNL     1       0.681  -7.738 -10.175  0.00  0.00    +0.008 A 
ATOM     35  C   UNL     1       0.593  -7.671 -11.551  0.00  0.00    +0.001 A 
ATOM     36  C   UNL     1       1.526  -8.321 -12.339  0.00  0.00    +0.000 A 
ATOM     37  C   UNL     1       2.552  -9.042 -11.754  0.00  0.00    +0.001 A 
ATOM     38  C   UNL     1       2.655  -9.111 -10.380  0.00  0.00    +0.008 A 
ENDBRANCH  32  33
ENDBRANCH  30  31
ENDBRANCH  26  30
ENDBRANCH  22  23
ENDBRANCH  20  22
ENDBRANCH   4  20
TORSDOF 9
