REMARK  Name = ZINC08790342
REMARK  3 active torsions:
REMARK  status: ('A' for Active; 'I' for Inactive)
REMARK    1  A    between atoms: C_1  and  C_2
REMARK    2  A    between atoms: C_22  and  C_29
REMARK    3  A    between atoms: C_29  and  C_31
REMARK                            x       y       z     vdW  Elec       q    Type
REMARK                         _______ _______ _______ _____ _____    ______ ____
ROOT
ATOM      1  C   UNL     1      -2.759   5.208  -5.745  0.00  0.00    +0.045 C 
ATOM      2  C   UNL     1      -3.091   5.676  -4.351  0.00  0.00    -0.029 A 
ATOM      3  C   UNL     1      -3.327   7.014  -4.113  0.00  0.00    +0.005 A 
ATOM      4  C   UNL     1      -3.632   7.453  -2.838  0.00  0.00    +0.001 A 
ATOM      5  C   UNL     1      -3.702   6.546  -1.795  0.00  0.00    +0.004 A 
ATOM      6  C   UNL     1      -3.466   5.210  -2.029  0.00  0.00    -0.026 A 
ATOM      7  C   UNL     1      -3.158   4.756  -3.307  0.00  0.00    +0.039 A 
ATOM      8  N   UNL     1      -2.964   3.374  -3.295  0.00  0.00    -0.286 N 
ATOM      9  C   UNL     1      -3.124   2.849  -2.066  0.00  0.00    +0.212 C 
ATOM     10  O   UNL     1      -3.017   1.681  -1.760  0.00  0.00    -0.277 OA
ATOM     11  C   UNL     1      -3.462   3.993  -1.143  0.00  0.00    +0.060 C 
ATOM     12  C   UNL     1      -2.435   4.121  -0.024  0.00  0.00    +0.085 C 
ATOM     13  C   UNL     1      -1.366   3.069  -0.118  0.00  0.00    -0.011 A 
ATOM     14  C   UNL     1      -1.389   1.692  -0.124  0.00  0.00    +0.006 A 
ATOM     15  C   UNL     1      -0.207   0.981  -0.224  0.00  0.00    +0.000 A 
ATOM     16  C   UNL     1       0.996   1.655  -0.327  0.00  0.00    +0.002 A 
ATOM     17  C   UNL     1       1.023   3.034  -0.326  0.00  0.00    +0.023 A 
ATOM     18  C   UNL     1      -0.162   3.759  -0.221  0.00  0.00    +0.038 A 
ATOM     19  N   UNL     1      -0.390   5.136  -0.197  0.00  0.00    -0.285 N 
ATOM     20  C   UNL     1      -1.699   5.432  -0.086  0.00  0.00    +0.228 C 
ATOM     21  O   UNL     1      -2.190   6.541  -0.043  0.00  0.00    -0.275 OA
ATOM     22  C   UNL     1      -3.228   3.995   1.288  0.00  0.00    +0.066 C 
ATOM     23  C   UNL     1      -4.670   4.356   0.859  0.00  0.00    -0.055 C 
ATOM     24  C   UNL     1      -5.013   2.339  -0.314  0.00  0.00    -0.076 C 
ATOM     25  C   UNL     1      -5.913   2.243   0.934  0.00  0.00    -0.020 C 
ATOM     26  C   UNL     1      -5.668   3.552   1.710  0.00  0.00    -0.016 C 
ATOM     27  H   UNL     1      -2.740   2.852  -4.081  0.00  0.00    +0.155 HD
ATOM     28  H   UNL     1       0.313   5.802  -0.255  0.00  0.00    +0.155 HD
ATOM     29  N   UNL     1      -4.754   3.782  -0.473  0.00  0.00    +0.395 N 
ATOM     30  H   UNL     1      -5.508   4.223  -1.012  0.00  0.00    -0.079 HD
ENDROOT
BRANCH  22  31
ATOM     31  C   UNL     1      -3.166   2.584   1.815  0.00  0.00    +0.166 C 
ATOM     32  O   UNL     1      -4.008   1.776   1.485  0.00  0.00    -0.292 OA
BRANCH  31  33
ATOM     33  C   UNL     1      -2.084   2.187   2.730  0.00  0.00    +0.018 A 
ATOM     34  C   UNL     1      -1.108   3.115   3.108  0.00  0.00    +0.011 A 
ATOM     35  C   UNL     1      -0.099   2.736   3.969  0.00  0.00    +0.001 A 
ATOM     36  C   UNL     1      -0.046   1.440   4.451  0.00  0.00    +0.000 A 
ATOM     37  C   UNL     1      -1.005   0.515   4.077  0.00  0.00    +0.001 A 
ATOM     38  C   UNL     1      -2.023   0.879   3.221  0.00  0.00    +0.011 A 
ENDBRANCH  31  33
ENDBRANCH  22  31
TORSDOF 2
