REMARK  Name = ZINC47371762
REMARK  4 active torsions:
REMARK  status: ('A' for Active; 'I' for Inactive)
REMARK    1  A    between atoms: C_4  and  C_7
REMARK    2  A    between atoms: C_9  and  C_13
REMARK    3  A    between atoms: C_18  and  N_19
REMARK    4  A    between atoms: C_20  and  C_22
REMARK                            x       y       z     vdW  Elec       q    Type
REMARK                         _______ _______ _______ _____ _____    ______ ____
ROOT
ATOM      1  C   UNL     1       5.693  -3.702  -0.203  0.00  0.00    +0.040 A 
ATOM      2  C   UNL     1       7.072  -3.887  -0.304  0.00  0.00    +0.013 A 
ATOM      3  C   UNL     1       7.607  -5.152  -0.182  0.00  0.00    +0.001 A 
ATOM      4  C   UNL     1       6.782  -6.241   0.041  0.00  0.00    +0.002 A 
ATOM      5  C   UNL     1       5.415  -6.072   0.144  0.00  0.00    +0.024 A 
ATOM      6  C   UNL     1       4.861  -4.805   0.029  0.00  0.00    +0.044 A 
ENDROOT
BRANCH   1   9
ATOM      7  C   UNL     1       3.672  -0.733  -0.484  0.00  0.00    +0.182 A 
ATOM      8  N   UNL     1       3.830  -2.055  -0.358  0.00  0.00    -0.207 NA
ATOM      9  C   UNL     1       5.113  -2.348  -0.332  0.00  0.00    +0.158 A 
ATOM     10  N   UNL     1       5.809  -1.192  -0.443  0.00  0.00    -0.258 N 
ATOM     11  H   UNL     1       6.774  -1.093  -0.454  0.00  0.00    +0.191 HD
ATOM     12  N   UNL     1       4.857  -0.164  -0.545  0.00  0.00    -0.152 NA
BRANCH   7  16
ATOM     13  C   UNL     1      -0.057   1.303  -0.678  0.00  0.00    +0.000 A 
ATOM     14  C   UNL     1       1.124   2.019  -0.752  0.00  0.00    +0.001 A 
ATOM     15  C   UNL     1       2.337   1.364  -0.690  0.00  0.00    +0.011 A 
ATOM     16  C   UNL     1       2.371  -0.022  -0.552  0.00  0.00    +0.021 A 
ATOM     17  C   UNL     1       1.178  -0.739  -0.477  0.00  0.00    +0.011 A 
ATOM     18  C   UNL     1      -0.029  -0.073  -0.541  0.00  0.00    +0.001 A 
ENDBRANCH   7  16
ENDBRANCH   1   9
BRANCH   6  19
ATOM     19  N   UNL     1       3.481  -4.632   0.137  0.00  0.00    -0.278 N 
ATOM     20  C   UNL     1       2.645  -5.610  -0.264  0.00  0.00    +0.284 C 
ATOM     21  O   UNL     1       3.094  -6.675  -0.645  0.00  0.00    -0.266 OA
ATOM     22  H   UNL     1       3.123  -3.807   0.502  0.00  0.00    +0.155 HD
BRANCH  20  23
ATOM     23  C   UNL     1       1.196  -5.390  -0.243  0.00  0.00    +0.189 A 
ATOM     24  C   UNL     1       0.242  -6.293  -0.615  0.00  0.00    +0.054 A 
ATOM     25  C   UNL     1      -1.001  -5.666  -0.434  0.00  0.00    +0.042 A 
ATOM     26  C   UNL     1      -0.754  -4.423   0.035  0.00  0.00    +0.196 A 
ATOM     27  O   UNL     1       0.571  -4.262   0.154  0.00  0.00    -0.458 OA
ENDBRANCH  20  23
ENDBRANCH   6  19
TORSDOF 4
