REMARK  Name = ZINC20681365
REMARK  10 active torsions:
REMARK  status: ('A' for Active; 'I' for Inactive)
REMARK    1  A    between atoms: C_1  and  C_2
REMARK    2  A    between atoms: C_2  and  C_3
REMARK    3  A    between atoms: C_3  and  C_4
REMARK    4  A    between atoms: C_4  and  N_5
REMARK    5  A    between atoms: C_9  and  S_31
REMARK    6  A    between atoms: C_13  and  C_14
REMARK    7  A    between atoms: C_14  and  N_15
REMARK    8  A    between atoms: N_18  and  C_21
REMARK    9  A    between atoms: C_21  and  C_22
REMARK   10  A    between atoms: S_31  and  N_34
REMARK                            x       y       z     vdW  Elec       q    Type
REMARK                         _______ _______ _______ _____ _____    ______ ____
ROOT
ATOM      1  N   UNL     1       8.931  -5.649  -1.116  0.00  0.00    -0.326 N 
ATOM      2  C   UNL     1       8.299  -6.564  -1.934  0.00  0.00    +0.069 A 
ATOM      3  C   UNL     1       8.262  -7.951  -1.985  0.00  0.00    +0.030 A 
ATOM      4  C   UNL     1       7.516  -8.579  -2.960  0.00  0.00    +0.030 A 
ATOM      5  C   UNL     1       6.804  -7.833  -3.889  0.00  0.00    +0.107 A 
ATOM      6  C   UNL     1       6.828  -6.468  -3.854  0.00  0.00    +0.058 A 
ATOM      7  C   UNL     1       7.577  -5.810  -2.874  0.00  0.00    +0.091 A 
ATOM      8  N   UNL     1       7.797  -4.502  -2.585  0.00  0.00    -0.231 NA
ATOM      9  C   UNL     1       8.586  -4.408  -1.554  0.00  0.00    +0.125 A 
ENDROOT
BRANCH   5  10
ATOM     10  S   UNL     1       5.858  -8.657  -5.127  0.00  0.00    +0.056 S 
ATOM     11  O   UNL     1       5.723  -7.745  -6.208  0.00  0.00    -0.153 OA
ATOM     12  O   UNL     1       6.432  -9.947  -5.286  0.00  0.00    -0.153 OA
BRANCH  10  13
ATOM     13  N   UNL     1       4.339  -8.888  -4.510  0.00  0.00    -0.204 NA
ATOM     14  H   UNL     1       3.714  -9.401  -5.255  0.00  0.00    +0.144 HD
ATOM     15  H   UNL     1       3.891  -7.913  -4.264  0.00  0.00    +0.144 HD
ENDBRANCH  10  13
ENDBRANCH   5  10
BRANCH   1  16
ATOM     16  C   UNL     1       9.808  -5.957   0.017  0.00  0.00    +0.123 C 
BRANCH  16  17
ATOM     17  C   UNL     1       8.972  -6.070   1.293  0.00  0.00    +0.021 C 
BRANCH  17  19
ATOM     18  C   UNL     1       9.052  -6.504   3.752  0.00  0.00    +0.004 C 
ATOM     19  C   UNL     1       9.888  -6.391   2.476  0.00  0.00    -0.002 C 
ENDBRANCH  17  19
ENDBRANCH  16  17
ENDBRANCH   1  16
BRANCH   9  20
ATOM     20  C   UNL     1       9.054  -3.114  -0.940  0.00  0.00    +0.158 C 
BRANCH  20  21
ATOM     21  N   UNL     1       8.107  -2.696   0.102  0.00  0.00    -0.299 NA
ATOM     22  C   UNL     1       8.396  -1.330   0.559  0.00  0.00    +0.066 C 
ATOM     23  C   UNL     1       7.441  -0.962   1.696  0.00  0.00    -0.063 C 
ATOM     24  N   UNL     1       6.054  -1.074   1.223  0.00  0.00    +0.384 N 
ATOM     25  C   UNL     1       5.765  -2.440   0.767  0.00  0.00    -0.063 C 
ATOM     26  C   UNL     1       6.720  -2.808  -0.371  0.00  0.00    +0.066 C 
ATOM     27  H   UNL     1       5.932  -0.396   0.365  0.00  0.00    -0.081 HD
BRANCH  24  28
ATOM     28  C   UNL     1       5.107  -0.655   2.265  0.00  0.00    -0.043 C 
BRANCH  28  29
ATOM     29  C   UNL     1       3.725  -0.548   1.674  0.00  0.00    -0.060 A 
ATOM     30  C   UNL     1       2.885  -1.646   1.677  0.00  0.00    +0.005 A 
ATOM     31  C   UNL     1       1.617  -1.553   1.135  0.00  0.00    +0.050 A 
ATOM     32  C   UNL     1       1.183  -0.356   0.589  0.00  0.00    +0.166 A 
ATOM     33  C   UNL     1       2.028   0.751   0.586  0.00  0.00    +0.166 A 
ATOM     34  C   UNL     1       3.298   0.650   1.131  0.00  0.00    +0.051 A 
ATOM     35  O   UNL     1       1.376   1.797  -0.001  0.00  0.00    -0.453 OA
ATOM     36  C   UNL     1      -0.018   1.436   0.010  0.00  0.00    +0.466 C 
ATOM     37  O   UNL     1       0.002  -0.004   0.002  0.00  0.00    -0.453 OA
ENDBRANCH  28  29
ENDBRANCH  24  28
ENDBRANCH  20  21
ENDBRANCH   9  20
TORSDOF 9
