REMARK  Name = ZINC38627249
REMARK  8 active torsions:
REMARK  status: ('A' for Active; 'I' for Inactive)
REMARK    1  A    between atoms: C_1  and  C_2
REMARK    2  A    between atoms: C_7  and  C_30
REMARK    3  A    between atoms: C_9  and  N_12
REMARK    4  A    between atoms: C_13  and  C_15
REMARK    5  A    between atoms: C_21  and  C_23
REMARK    6  A    between atoms: C_23  and  C_24
REMARK    7  A    between atoms: C_30  and  O_32
REMARK    8  A    between atoms: O_32  and  C_33
REMARK                            x       y       z     vdW  Elec       q    Type
REMARK                         _______ _______ _______ _____ _____    ______ ____
ROOT
ATOM      1  N   UNL     1       0.728  -3.203   3.329  0.00  0.00    -0.286 N 
ATOM      2  C   UNL     1       0.612  -2.075   4.057  0.00  0.00    +0.221 C 
ATOM      3  O   UNL     1       0.141  -1.076   3.557  0.00  0.00    -0.275 OA
ATOM      4  H   UNL     1       1.030  -4.023   3.750  0.00  0.00    +0.155 HD
ENDROOT
BRANCH   1  12
ATOM      5  C   UNL     1       0.699  -7.994   0.534  0.00  0.00    +0.044 C 
ATOM      6  C   UNL     1       0.457  -6.524   0.308  0.00  0.00    -0.050 A 
ATOM      7  C   UNL     1       0.105  -6.079  -0.969  0.00  0.00    +0.005 A 
ATOM      8  C   UNL     1      -0.125  -4.771  -1.234  0.00  0.00    +0.026 A 
ATOM      9  C   UNL     1      -0.010  -3.809  -0.196  0.00  0.00    +0.045 A 
ATOM     10  N   UNL     1      -0.177  -2.502  -0.195  0.00  0.00    -0.367 N 
ATOM     11  C   UNL     1       0.069  -1.989   1.156  0.00  0.00    +0.234 C 
ATOM     12  C   UNL     1       0.419  -3.193   2.002  0.00  0.00    +0.053 C 
ATOM     13  C   UNL     1       0.362  -4.281   1.149  0.00  0.00    +0.018 A 
ATOM     14  C   UNL     1       0.582  -5.665   1.350  0.00  0.00    +0.015 A 
ATOM     15  H   UNL     1      -0.424  -1.966  -0.965  0.00  0.00    +0.161 HD
BRANCH  11  16
ATOM     16  C   UNL     1       1.216  -1.012   1.139  0.00  0.00    +0.335 C 
ATOM     17  O   UNL     1       2.201  -1.248   0.479  0.00  0.00    -0.248 OA
BRANCH  16  18
ATOM     18  O   UNL     1       1.146   0.119   1.857  0.00  0.00    -0.466 OA
ATOM     19  C   UNL     1       2.270   0.999   1.795  0.00  0.00    +0.280 C 
ENDBRANCH  16  18
ENDBRANCH  11  16
ENDBRANCH   1  12
BRANCH   2  20
ATOM     20  C   UNL     1       1.069  -2.054   5.493  0.00  0.00    +0.083 C 
ATOM     21  C   UNL     1       0.356  -0.927   6.243  0.00  0.00    +0.040 C 
ATOM     22  C   UNL     1       0.862   0.406   5.775  0.00  0.00    -0.030 C 
ATOM     23  C   UNL     1       1.966   0.573   5.119  0.00  0.00    -0.031 C 
ATOM     24  C   UNL     1       2.888  -0.543   4.726  0.00  0.00    +0.031 C 
ATOM     25  C   UNL     1       2.581  -1.801   5.550  0.00  0.00    +0.009 C 
BRANCH  25  26
ATOM     26  C   UNL     1       3.326  -3.003   4.965  0.00  0.00    +0.039 C 
BRANCH  26  27
ATOM     27  C   UNL     1       4.810  -2.804   5.134  0.00  0.00    -0.047 A 
ATOM     28  C   UNL     1       5.538  -2.161   4.150  0.00  0.00    +0.003 A 
ATOM     29  C   UNL     1       6.899  -1.979   4.305  0.00  0.00    +0.000 A 
ATOM     30  C   UNL     1       7.533  -2.440   5.444  0.00  0.00    +0.000 A 
ATOM     31  C   UNL     1       6.805  -3.083   6.428  0.00  0.00    +0.000 A 
ATOM     32  C   UNL     1       5.443  -3.261   6.275  0.00  0.00    +0.003 A 
ENDBRANCH  26  27
ENDBRANCH  25  26
ENDBRANCH   2  20
TORSDOF 6
