REMARK  Name = ZINC38965893
REMARK  6 active torsions:
REMARK  status: ('A' for Active; 'I' for Inactive)
REMARK    1  A    between atoms: C_4  and  C_7
REMARK    2  A    between atoms: C_10  and  C_13
REMARK    3  A    between atoms: N_14  and  N_15
REMARK    4  A    between atoms: C_16  and  C_23
REMARK    5  A    between atoms: C_20  and  S_22
REMARK    6  A    between atoms: C_26  and  C_29
REMARK                            x       y       z     vdW  Elec       q    Type
REMARK                         _______ _______ _______ _____ _____    ______ ____
ROOT
ATOM      1  N   UNL     1       8.652  -4.729  -0.011  0.00  0.00    -0.207 N 
ATOM      2  C   UNL     1       8.853  -6.188  -0.017  0.00  0.00    +0.206 C 
ATOM      3  N   UNL     1      10.312  -6.414   0.098  0.00  0.00    -0.231 NA
ATOM      4  N   UNL     1      10.824  -5.186   0.728  0.00  0.00    -0.225 NA
ATOM      5  C   UNL     1       9.994  -4.121   0.101  0.00  0.00    +0.231 C 
ATOM      6  H   UNL     1      10.729  -6.554  -0.810  0.00  0.00    +0.143 HD
ATOM      7  H   UNL     1      10.691  -5.211   1.728  0.00  0.00    +0.143 HD
ENDROOT
BRANCH   2   8
ATOM      8  C   UNL     1       8.331  -6.784  -1.325  0.00  0.00    +0.190 C 
ATOM      9  C   UNL     1       8.472  -8.296  -1.320  0.00  0.00    +0.034 C 
ATOM     10  C   UNL     1       9.302  -8.547  -2.351  0.00  0.00    +0.091 C 
ATOM     11  N   UNL     1       9.666  -7.388  -2.959  0.00  0.00    -0.154 NA
ATOM     12  N   UNL     1       9.174  -6.369  -2.459  0.00  0.00    -0.176 NA
BRANCH  10  13
ATOM     13  C   UNL     1       9.755  -9.898  -2.763  0.00  0.00    +0.002 A 
ATOM     14  C   UNL     1       9.315 -11.025  -2.071  0.00  0.00    +0.010 A 
ATOM     15  C   UNL     1       9.739 -12.279  -2.459  0.00  0.00    +0.001 A 
ATOM     16  C   UNL     1      10.599 -12.419  -3.534  0.00  0.00    +0.000 A 
ATOM     17  C   UNL     1      11.039 -11.305  -4.225  0.00  0.00    +0.001 A 
ATOM     18  C   UNL     1      10.617 -10.046  -3.848  0.00  0.00    +0.010 A 
ENDBRANCH  10  13
ENDBRANCH   2   8
BRANCH   1  20
ATOM     19  C   UNL     1       6.315  -4.717  -0.088  0.00  0.00    +0.138 C 
ATOM     20  N   UNL     1       7.429  -4.050  -0.100  0.00  0.00    -0.188 NA
BRANCH  19  24
ATOM     21  C   UNL     1       2.630  -2.702  -0.713  0.00  0.00    -0.018 A 
ATOM     22  C   UNL     1       2.642  -4.080  -0.495  0.00  0.00    +0.009 A 
ATOM     23  C   UNL     1       3.836  -4.734  -0.293  0.00  0.00    +0.010 A 
ATOM     24  C   UNL     1       5.036  -4.018  -0.305  0.00  0.00    -0.005 A 
ATOM     25  C   UNL     1       5.022  -2.637  -0.524  0.00  0.00    +0.010 A 
ATOM     26  C   UNL     1       3.827  -1.986  -0.731  0.00  0.00    +0.009 A 
BRANCH  21  30
ATOM     27  C   UNL     1      -1.060  -0.684  -1.337  0.00  0.00    +0.000 A 
ATOM     28  C   UNL     1      -1.050  -2.050  -1.116  0.00  0.00    +0.001 A 
ATOM     29  C   UNL     1       0.144  -2.710  -0.913  0.00  0.00    +0.008 A 
ATOM     30  C   UNL     1       1.343  -1.998  -0.931  0.00  0.00    -0.018 A 
ATOM     31  C   UNL     1       1.326  -0.622  -1.154  0.00  0.00    +0.008 A 
ATOM     32  C   UNL     1       0.126   0.027  -1.355  0.00  0.00    +0.001 A 
ENDBRANCH  21  30
ENDBRANCH  19  24
ENDBRANCH   1  20
BRANCH   5  33
ATOM     33  S   UNL     1       9.939  -2.652   1.163  0.00  0.00    -0.138 S 
ATOM     34  H   UNL     1      11.209  -2.211   1.174  0.00  0.00    +0.105 HD
ENDBRANCH   5  33
TORSDOF 6
