REMARK  Name = ZINC45606846
REMARK  10 active torsions:
REMARK  status: ('A' for Active; 'I' for Inactive)
REMARK    1  A    between atoms: C_1  and  C_2
REMARK    2  A    between atoms: C_3  and  C_30
REMARK    3  A    between atoms: C_4  and  C_29
REMARK    4  A    between atoms: C_7  and  C_8
REMARK    5  A    between atoms: C_8  and  C_10
REMARK    6  A    between atoms: C_10  and  C_12
REMARK    7  A    between atoms: C_10  and  N_13
REMARK    8  A    between atoms: C_17  and  C_20
REMARK    9  A    between atoms: N_22  and  C_23
REMARK   10  A    between atoms: C_30  and  C_32
REMARK                            x       y       z     vdW  Elec       q    Type
REMARK                         _______ _______ _______ _____ _____    ______ ____
ROOT
ATOM      1  N   UNL     1      -0.781  -0.583   4.589  0.00  0.00    +0.387 N 
ATOM      2  C   UNL     1      -0.816  -1.731   5.503  0.00  0.00    -0.078 C 
ATOM      3  C   UNL     1      -1.442  -1.309   6.835  0.00  0.00    -0.018 C 
ATOM      4  C   UNL     1      -2.868  -0.807   6.586  0.00  0.00    +0.009 C 
ATOM      5  C   UNL     1      -2.825   0.341   5.574  0.00  0.00    +0.059 C 
ATOM      6  C   UNL     1      -2.148  -0.142   4.290  0.00  0.00    -0.065 C 
ATOM      7  H   UNL     1      -0.272   0.173   5.022  0.00  0.00    -0.081 HD
ENDROOT
BRANCH   5   8
ATOM      8  C   UNL     1      -4.230   0.792   5.265  0.00  0.00    +0.219 C 
ATOM      9  O   UNL     1      -4.648   0.736   4.128  0.00  0.00    -0.275 OA
ATOM     10  N   UNL     1      -5.021   1.257   6.252  0.00  0.00    -0.285 N 
ATOM     11  H   UNL     1      -4.663   1.373   7.146  0.00  0.00    +0.155 HD
BRANCH  10  12
ATOM     12  C   UNL     1      -6.358   1.572   5.987  0.00  0.00    +0.033 A 
ATOM     13  C   UNL     1      -6.973   2.619   6.662  0.00  0.00    +0.023 A 
ATOM     14  C   UNL     1      -8.293   2.927   6.398  0.00  0.00    +0.002 A 
ATOM     15  C   UNL     1      -9.003   2.195   5.463  0.00  0.00    +0.000 A 
ATOM     16  C   UNL     1      -8.393   1.152   4.791  0.00  0.00    +0.002 A 
ATOM     17  C   UNL     1      -7.072   0.842   5.046  0.00  0.00    +0.023 A 
ENDBRANCH  10  12
ENDBRANCH   5   8
BRANCH   1  18
ATOM     18  C   UNL     1      -0.109  -0.973   3.342  0.00  0.00    +0.003 C 
ATOM     19  C   UNL     1       1.316  -1.433   3.653  0.00  0.00    -0.005 C 
BRANCH  18  20
ATOM     20  C   UNL     1      -0.064   0.207   2.406  0.00  0.00    +0.166 C 
ATOM     21  O   UNL     1      -0.198   1.333   2.841  0.00  0.00    -0.292 OA
BRANCH  20  28
ATOM     22  C   UNL     1       0.066   2.473   0.283  0.00  0.00    +0.047 C 
ATOM     23  C   UNL     1       0.197   0.988   0.058  0.00  0.00    -0.012 A 
ATOM     24  C   UNL     1       0.412   0.339  -1.179  0.00  0.00    +0.041 A 
ATOM     25  C   UNL     1       0.467  -1.023  -0.920  0.00  0.00    +0.024 A 
ATOM     26  N   UNL     1       0.297  -1.217   0.395  0.00  0.00    -0.355 N 
ATOM     27  H   UNL     1       0.293  -2.079   0.839  0.00  0.00    +0.166 HD
ATOM     28  C   UNL     1       0.135   0.004   1.019  0.00  0.00    +0.084 A 
ATOM     29  C   UNL     1       0.682  -2.104  -1.948  0.00  0.00    +0.064 C 
BRANCH  24  30
ATOM     30  C   UNL     1       0.551   0.984  -2.489  0.00  0.00    +0.162 C 
ATOM     31  O   UNL     1      -0.432   1.194  -3.168  0.00  0.00    -0.292 OA
ATOM     32  C   UNL     1       1.914   1.385  -2.991  0.00  0.00    +0.091 C 
ENDBRANCH  24  30
ENDBRANCH  20  28
ENDBRANCH  18  20
ENDBRANCH   1  18
TORSDOF 6
