REMARK  Name = ZINC16034617
REMARK  13 active torsions:
REMARK  status: ('A' for Active; 'I' for Inactive)
REMARK    1  A    between atoms: C_1  and  C_2
REMARK    2  A    between atoms: C_2  and  C_3
REMARK    3  A    between atoms: C_2  and  C_4
REMARK    4  A    between atoms: C_2  and  O_5
REMARK    5  A    between atoms: O_5  and  C_6
REMARK    6  A    between atoms: C_15  and  C_27
REMARK    7  A    between atoms: C_17  and  C_23
REMARK    8  A    between atoms: C_17  and  C_25
REMARK    9  A    between atoms: C_18  and  N_22
REMARK   10  A    between atoms: C_19  and  C_20
REMARK   11  A    between atoms: C_30  and  C_33
REMARK   12  A    between atoms: C_33  and  O_35
REMARK   13  A    between atoms: O_35  and  C_36
REMARK                            x       y       z     vdW  Elec       q    Type
REMARK                         _______ _______ _______ _____ _____    ______ ____
ROOT
ATOM      1  C   UNL     1       0.186  -0.361   3.723  0.00  0.00    +0.404 C 
ATOM      2  O   UNL     1       1.374  -0.380   3.470  0.00  0.00    -0.226 OA
ATOM      3  N   UNL     1      -0.579   0.662   3.294  0.00  0.00    -0.263 N 
ATOM      4  C   UNL     1      -2.023   0.716   3.583  0.00  0.00    +0.138 C 
ATOM      5  C   UNL     1      -2.735   0.832   2.259  0.00  0.00    -0.003 C 
ATOM      6  C   UNL     1      -2.154   1.396   1.219  0.00  0.00    -0.026 C 
ATOM      7  C   UNL     1      -0.778   1.998   1.242  0.00  0.00    +0.048 C 
ATOM      8  C   UNL     1      -0.009   1.769   2.519  0.00  0.00    +0.120 C 
ATOM      9  C   UNL     1      -0.018   1.503   0.010  0.00  0.00    +0.068 C 
ATOM     10  C   UNL     1      -0.725   2.013  -1.247  0.00  0.00    +0.188 C 
ATOM     11  C   UNL     1      -2.194   1.719  -1.215  0.00  0.00    +0.054 C 
ATOM     12  C   UNL     1      -2.881   1.442  -0.078  0.00  0.00    +0.074 C 
ENDROOT
BRANCH   9  13
ATOM     13  C   UNL     1       0.002  -0.004   0.002  0.00  0.00    -0.041 A 
ATOM     14  C   UNL     1      -1.085  -0.705  -0.488  0.00  0.00    +0.005 A 
ATOM     15  C   UNL     1      -1.071  -2.084  -0.504  0.00  0.00    +0.015 A 
ATOM     16  C   UNL     1       0.040  -2.773  -0.013  0.00  0.00    +0.059 A 
ATOM     17  C   UNL     1       1.131  -2.060   0.485  0.00  0.00    +0.015 A 
ATOM     18  C   UNL     1       1.106  -0.680   0.490  0.00  0.00    +0.005 A 
BRANCH  16  19
ATOM     19  C   UNL     1       0.060  -4.250  -0.022  0.00  0.00    +0.339 C 
ATOM     20  O   UNL     1       1.028  -4.847   0.406  0.00  0.00    -0.245 OA
BRANCH  19  21
ATOM     21  O   UNL     1      -0.995  -4.936  -0.504  0.00  0.00    -0.464 OA
ATOM     22  C   UNL     1      -0.906  -6.385  -0.481  0.00  0.00    +0.280 C 
ENDBRANCH  19  21
ENDBRANCH  16  19
ENDBRANCH   9  13
BRANCH  11  23
ATOM     23  N   UNL     1      -2.880   1.732  -2.397  0.00  0.00    -0.358 N 
ATOM     24  H   UNL     1      -3.960   1.521  -2.408  0.00  0.00    +0.142 HD
ATOM     25  H   UNL     1      -2.353   1.953  -3.336  0.00  0.00    +0.142 HD
ENDBRANCH  11  23
BRANCH  12  26
ATOM     26  C   UNL     1      -4.291   1.195  -0.127  0.00  0.00    +0.101 C 
ATOM     27  N   UNL     1      -5.410   1.000  -0.165  0.00  0.00    -0.191 NA
ENDBRANCH  12  26
BRANCH  10  28
ATOM     28  C   UNL     1      -0.528   3.468  -1.351  0.00  0.00    +0.091 C 
ATOM     29  N   UNL     1      -0.376   4.591  -1.431  0.00  0.00    -0.194 NA
ENDBRANCH  10  28
BRANCH  10  30
ATOM     30  C   UNL     1      -0.132   1.363  -2.427  0.00  0.00    +0.091 C 
ATOM     31  N   UNL     1       0.325   0.861  -3.338  0.00  0.00    -0.194 NA
ENDBRANCH  10  30
BRANCH   1  32
ATOM     32  O   UNL     1      -0.367  -1.363   4.433  0.00  0.00    -0.445 OA
BRANCH  32  34
ATOM     33  C   UNL     1       1.617  -1.856   5.755  0.00  0.00    +0.055 C 
ATOM     34  C   UNL     1       0.516  -2.432   4.863  0.00  0.00    +0.107 C 
ATOM     35  C   UNL     1      -0.286  -3.471   5.649  0.00  0.00    +0.055 C 
ATOM     36  C   UNL     1       1.147  -3.096   3.637  0.00  0.00    +0.055 C 
ENDBRANCH  32  34
ENDBRANCH   1  32
TORSDOF 9
