REMARK  Name = ZINC07988709
REMARK  6 active torsions:
REMARK  status: ('A' for Active; 'I' for Inactive)
REMARK    1  A    between atoms: C_4  and  N_13
REMARK    2  A    between atoms: C_5  and  C_7
REMARK    3  A    between atoms: N_9  and  C_10
REMARK    4  A    between atoms: C_14  and  C_16
REMARK    5  A    between atoms: C_16  and  S_17
REMARK    6  A    between atoms: S_17  and  C_18
REMARK                            x       y       z     vdW  Elec       q    Type
REMARK                         _______ _______ _______ _____ _____    ______ ____
ROOT
ATOM      1  N   UNL     1      -1.330   6.730   0.034  0.00  0.00    -0.284 N 
ATOM      2  C   UNL     1      -0.356   5.993   0.604  0.00  0.00    +0.227 C 
ATOM      3  O   UNL     1       0.584   6.540   1.140  0.00  0.00    -0.275 OA
ATOM      4  H   UNL     1      -2.048   6.294  -0.450  0.00  0.00    +0.155 HD
ENDROOT
BRANCH   1   8
ATOM      5  C   UNL     1      -1.252  10.887   0.352  0.00  0.00    +0.001 A 
ATOM      6  C   UNL     1      -0.071  10.174   0.233  0.00  0.00    +0.002 A 
ATOM      7  C   UNL     1      -0.093   8.797   0.132  0.00  0.00    +0.024 A 
ATOM      8  C   UNL     1      -1.305   8.119   0.140  0.00  0.00    +0.046 A 
ATOM      9  C   UNL     1      -2.503   8.838   0.262  0.00  0.00    +0.058 A 
ATOM     10  C   UNL     1      -2.464  10.230   0.368  0.00  0.00    +0.015 A 
BRANCH   9  11
ATOM     11  C   UNL     1      -3.796   8.129   0.278  0.00  0.00    +0.246 C 
ATOM     12  O   UNL     1      -3.822   6.913   0.285  0.00  0.00    -0.270 OA
ATOM     13  N   UNL     1      -4.948   8.828   0.284  0.00  0.00    -0.308 N 
ATOM     14  H   UNL     1      -4.927   9.798   0.278  0.00  0.00    +0.149 HD
BRANCH  13  15
ATOM     15  C   UNL     1      -6.232   8.123   0.300  0.00  0.00    +0.073 C 
ATOM     16  C   UNL     1      -7.333   8.639  -0.629  0.00  0.00    +0.024 C 
ATOM     17  C   UNL     1      -7.438   8.865   0.881  0.00  0.00    +0.024 C 
ENDBRANCH  13  15
ENDBRANCH   9  11
ENDBRANCH   1   8
BRANCH   2  18
ATOM     18  C   UNL     1      -0.436   4.488   0.576  0.00  0.00    +0.172 C 
BRANCH  18  19
ATOM     19  S   UNL     1       1.011   3.790   1.419  0.00  0.00    -0.088 S 
BRANCH  19  20
ATOM     20  C   UNL     1       0.773   2.048   1.302  0.00  0.00    +0.160 A 
ATOM     21  N   UNL     1      -0.213   1.375   0.741  0.00  0.00    -0.133 NA
ATOM     22  N   UNL     1      -0.202  -0.001   0.764  0.00  0.00    -0.125 NA
ATOM     23  C   UNL     1       0.793  -0.639   1.346  0.00  0.00    +0.180 A 
ATOM     24  S   UNL     1       1.802   0.722   1.913  0.00  0.00    -0.025 S 
ATOM     25  N   UNL     1       1.002  -2.007   1.483  0.00  0.00    -0.336 N 
ATOM     26  H   UNL     1       0.358  -2.635   1.119  0.00  0.00    +0.144 HD
ATOM     27  H   UNL     1       1.792  -2.333   1.942  0.00  0.00    +0.144 HD
ENDBRANCH  19  20
ENDBRANCH  18  19
ENDBRANCH   2  18
TORSDOF 6
