REMARK  Name = ZINC58182499
REMARK  4 active torsions:
REMARK  status: ('A' for Active; 'I' for Inactive)
REMARK    1  A    between atoms: C_1  and  C_2
REMARK    2  A    between atoms: C_5  and  C_7
REMARK    3  A    between atoms: C_12  and  N_13
REMARK    4  A    between atoms: C_14  and  C_16
REMARK                            x       y       z     vdW  Elec       q    Type
REMARK                         _______ _______ _______ _____ _____    ______ ____
ROOT
ATOM      1  N   UNL     1       0.065  -4.650  -0.582  0.00  0.00    -0.284 N 
ATOM      2  C   UNL     1       0.182  -5.853  -1.178  0.00  0.00    +0.223 C 
ATOM      3  O   UNL     1       0.199  -6.863  -0.507  0.00  0.00    -0.275 OA
ATOM      4  H   UNL     1      -0.016  -3.847  -1.121  0.00  0.00    +0.155 HD
ENDROOT
BRANCH   2   5
ATOM      5  C   UNL     1       0.290  -5.944  -2.678  0.00  0.00    +0.048 C 
ATOM      6  C   UNL     1       1.529  -5.178  -3.147  0.00  0.00    +0.019 C 
ATOM      7  C   UNL     1       1.640  -5.270  -4.670  0.00  0.00    -0.009 C 
ATOM      8  C   UNL     1       1.760  -6.737  -5.085  0.00  0.00    +0.007 C 
ATOM      9  C   UNL     1       0.522  -7.503  -4.617  0.00  0.00    -0.009 C 
ATOM     10  C   UNL     1       0.411  -7.411  -3.093  0.00  0.00    +0.019 C 
ATOM     11  C   UNL     1      -0.727  -6.893  -5.256  0.00  0.00    +0.007 C 
ATOM     12  C   UNL     1      -0.848  -5.426  -4.841  0.00  0.00    -0.009 C 
ATOM     13  C   UNL     1       0.391  -4.660  -5.310  0.00  0.00    +0.007 C 
ATOM     14  C   UNL     1      -0.958  -5.334  -3.318  0.00  0.00    +0.019 C 
ENDBRANCH   2   5
BRANCH   1  20
ATOM     15  C   UNL     1       0.659  -3.461   1.446  0.00  0.00    +0.060 A 
ATOM     16  C   UNL     1       0.644  -3.377   2.839  0.00  0.00    +0.015 A 
ATOM     17  C   UNL     1       0.048  -4.374   3.581  0.00  0.00    +0.001 A 
ATOM     18  C   UNL     1      -0.536  -5.460   2.951  0.00  0.00    +0.002 A 
ATOM     19  C   UNL     1      -0.528  -5.556   1.573  0.00  0.00    +0.024 A 
ATOM     20  C   UNL     1       0.061  -4.558   0.811  0.00  0.00    +0.046 A 
BRANCH  15  25
ATOM     21  C   UNL     1       3.083   0.705   0.074  0.00  0.00    +0.111 C 
ATOM     22  C   UNL     1       2.338  -0.605   0.050  0.00  0.00    +0.215 A 
ATOM     23  N   UNL     1       1.998  -1.277  -1.014  0.00  0.00    -0.112 NA
ATOM     24  N   UNL     1       1.376  -2.348  -0.665  0.00  0.00    -0.107 NA
ATOM     25  C   UNL     1       1.296  -2.396   0.645  0.00  0.00    +0.250 A 
ATOM     26  O   UNL     1       1.910  -1.294   1.122  0.00  0.00    -0.420 OA
ENDBRANCH  15  25
ENDBRANCH   1  20
TORSDOF 3
