REMARK  Name = ZINC40572257
REMARK  9 active torsions:
REMARK  status: ('A' for Active; 'I' for Inactive)
REMARK    1  A    between atoms: C_1  and  C_2
REMARK    2  A    between atoms: C_7  and  N_10
REMARK    3  A    between atoms: N_13  and  C_14
REMARK    4  A    between atoms: N_13  and  C_19
REMARK    5  A    between atoms: C_14  and  C_15
REMARK    6  A    between atoms: C_15  and  C_16
REMARK    7  A    between atoms: C_19  and  C_20
REMARK    8  A    between atoms: C_19  and  C_21
REMARK    9  A    between atoms: C_19  and  C_22
REMARK                            x       y       z     vdW  Elec       q    Type
REMARK                         _______ _______ _______ _____ _____    ______ ____
ROOT
ATOM      1  N   UNL     1      -0.743  -2.438   1.327  0.00  0.00    -0.296 N 
ATOM      2  C   UNL     1      -0.950  -3.679   1.809  0.00  0.00    +0.303 C 
ATOM      3  O   UNL     1      -0.012  -4.340   2.211  0.00  0.00    -0.253 OA
ATOM      4  N   UNL     1      -2.197  -4.189   1.844  0.00  0.00    -0.280 N 
ATOM      5  H   UNL     1      -1.479  -1.940   0.937  0.00  0.00    +0.151 HD
ENDROOT
BRANCH   1  11
ATOM      6  C   UNL     1      -0.352   1.663   0.103  0.00  0.00    +0.007 C 
ATOM      7  C   UNL     1      -0.229   0.138   0.106  0.00  0.00    -0.012 C 
ATOM      8  C   UNL     1       0.591  -0.310  -1.105  0.00  0.00    +0.003 C 
ATOM      9  C   UNL     1       0.714  -1.835  -1.102  0.00  0.00    +0.002 C 
ATOM     10  C   UNL     1       1.412  -2.287   0.182  0.00  0.00    +0.022 C 
ATOM     11  C   UNL     1       0.592  -1.839   1.393  0.00  0.00    +0.075 C 
ATOM     12  C   UNL     1       0.469  -0.314   1.390  0.00  0.00    +0.025 C 
ENDBRANCH   1  11
BRANCH   4  13
ATOM     13  C   UNL     1      -2.439  -5.492   2.468  0.00  0.00    +0.030 C 
ATOM     14  C   UNL     1      -1.965  -5.457   3.922  0.00  0.00    +0.031 C 
ATOM     15  C   UNL     1      -3.935  -5.809   2.426  0.00  0.00    +0.031 C 
ATOM     16  C   UNL     1      -1.667  -6.573   1.707  0.00  0.00    +0.031 C 
ENDBRANCH   4  13
BRANCH   4  17
ATOM     17  C   UNL     1      -3.312  -3.440   1.258  0.00  0.00    +0.121 C 
BRANCH  17  18
ATOM     18  C   UNL     1      -3.470  -3.829  -0.213  0.00  0.00    +0.144 C 
BRANCH  18  19
ATOM     19  C   UNL     1      -4.617  -3.058  -0.816  0.00  0.00    +0.358 C 
ATOM     20  O   UNL     1      -5.248  -2.271  -0.132  0.00  0.00    -0.246 OA
ATOM     21  O   UNL     1      -4.912  -3.222  -1.987  0.00  0.00    -0.246 OA
ENDBRANCH  18  19
ENDBRANCH  17  18
ENDBRANCH   4  17
TORSDOF 5
