REMARK  Name = ZINC48373950
REMARK  6 active torsions:
REMARK  status: ('A' for Active; 'I' for Inactive)
REMARK    1  A    between atoms: C_1  and  C_2
REMARK    2  A    between atoms: C_5  and  S_22
REMARK    3  A    between atoms: C_7  and  C_8
REMARK    4  A    between atoms: C_13  and  C_16
REMARK    5  A    between atoms: S_22  and  N_25
REMARK    6  A    between atoms: N_25  and  C_26
REMARK                            x       y       z     vdW  Elec       q    Type
REMARK                         _______ _______ _______ _____ _____    ______ ____
ROOT
ATOM      1  C   UNL     1      -0.501   1.454   0.081  0.00  0.00    +0.044 C 
ATOM      2  C   UNL     1      -0.229  -0.027   0.036  0.00  0.00    -0.038 A 
ATOM      3  C   UNL     1      -0.329  -0.713  -1.158  0.00  0.00    +0.006 A 
ATOM      4  C   UNL     1      -0.079  -2.073  -1.201  0.00  0.00    +0.029 A 
ATOM      5  C   UNL     1       0.270  -2.755  -0.049  0.00  0.00    +0.106 A 
ATOM      6  C   UNL     1       0.372  -2.082   1.151  0.00  0.00    +0.041 A 
ATOM      7  C   UNL     1       0.128  -0.709   1.200  0.00  0.00    +0.042 A 
ENDROOT
BRANCH   7   8
ATOM      8  C   UNL     1       0.242   0.020   2.481  0.00  0.00    +0.250 C 
ATOM      9  O   UNL     1       0.140   1.231   2.503  0.00  0.00    -0.270 OA
ATOM     10  N   UNL     1       0.460  -0.658   3.625  0.00  0.00    -0.259 N 
ATOM     11  C   UNL     1       0.567   0.025   4.827  0.00  0.00    +0.185 A 
ATOM     12  N   UNL     1       0.781  -0.461   6.036  0.00  0.00    -0.204 NA
ATOM     13  C   UNL     1       0.845   0.397   7.040  0.00  0.00    +0.170 A 
ATOM     14  N   UNL     1       0.690   1.677   6.767  0.00  0.00    -0.187 NA
ATOM     15  S   UNL     1       0.462   1.679   5.107  0.00  0.00    +0.050 S 
ATOM     16  H   UNL     1       0.541  -1.625   3.608  0.00  0.00    +0.157 HD
BRANCH  13  17
ATOM     17  C   UNL     1       1.083  -0.067   8.429  0.00  0.00    +0.020 A 
ATOM     18  C   UNL     1       1.250  -1.425   8.694  0.00  0.00    +0.011 A 
ATOM     19  C   UNL     1       1.470  -1.851   9.988  0.00  0.00    +0.001 A 
ATOM     20  C   UNL     1       1.527  -0.932  11.021  0.00  0.00    +0.000 A 
ATOM     21  C   UNL     1       1.362   0.417  10.764  0.00  0.00    +0.001 A 
ATOM     22  C   UNL     1       1.146   0.855   9.472  0.00  0.00    +0.011 A 
ENDBRANCH  13  17
ENDBRANCH   7   8
BRANCH   5  23
ATOM     23  S   UNL     1       0.585  -4.487  -0.115  0.00  0.00    +0.059 S 
ATOM     24  O   UNL     1       0.360  -4.991   1.195  0.00  0.00    -0.153 OA
ATOM     25  O   UNL     1      -0.109  -4.983  -1.251  0.00  0.00    -0.153 OA
BRANCH  23  26
ATOM     26  N   UNL     1       2.200  -4.680  -0.425  0.00  0.00    -0.187 NA
ATOM     27  H   UNL     1       2.489  -5.087  -1.258  0.00  0.00    +0.148 HD
BRANCH  26  28
ATOM     28  C   UNL     1       3.193  -4.237   0.556  0.00  0.00    +0.077 C 
ATOM     29  C   UNL     1       4.521  -3.695   0.022  0.00  0.00    +0.022 C 
ATOM     30  C   UNL     1       4.470  -5.068   0.695  0.00  0.00    +0.022 C 
ENDBRANCH  26  28
ENDBRANCH  23  26
ENDBRANCH   5  23
TORSDOF 5
