REMARK  Name = ZINC02593682
REMARK  7 active torsions:
REMARK  status: ('A' for Active; 'I' for Inactive)
REMARK    1  A    between atoms: C_1  and  C_2
REMARK    2  A    between atoms: C_9  and  N_14
REMARK    3  A    between atoms: C_10  and  C_11
REMARK    4  A    between atoms: N_14  and  C_15
REMARK    5  A    between atoms: C_15  and  N_17
REMARK    6  A    between atoms: C_18  and  C_20
REMARK    7  A    between atoms: C_23  and  C_25
REMARK                            x       y       z     vdW  Elec       q    Type
REMARK                         _______ _______ _______ _____ _____    ______ ____
ROOT
ATOM      1  C   UNL     1      -1.137  -2.041   0.002  0.00  0.00    +0.142 C 
ATOM      2  S   UNL     1       0.356  -2.877  -0.017  0.00  0.00    -0.018 S 
ENDROOT
BRANCH   1   3
ATOM      3  N   UNL     1      -1.156  -0.694   0.009  0.00  0.00    -0.261 N 
ATOM      4  C   UNL     1       0.002  -0.004   0.002  0.00  0.00    +0.285 C 
ATOM      5  O   UNL     1       1.064  -0.598  -0.011  0.00  0.00    -0.266 OA
ATOM      6  H   UNL     1      -2.116  -0.157   0.021  0.00  0.00    +0.157 HD
BRANCH   4   7
ATOM      7  C   UNL     1      -0.018   1.460   0.010  0.00  0.00    +0.190 A 
ATOM      8  C   UNL     1       1.087   2.284   0.004  0.00  0.00    +0.055 A 
ATOM      9  C   UNL     1       0.610   3.598   0.015  0.00  0.00    +0.051 A 
ATOM     10  C   UNL     1      -0.755   3.530   0.027  0.00  0.00    +0.137 A 
ATOM     11  O   UNL     1      -1.121   2.237   0.019  0.00  0.00    -0.450 OA
BRANCH  10  12
ATOM     12  C   UNL     1      -1.674   4.685   0.041  0.00  0.00    +0.037 A 
ATOM     13  C   UNL     1      -2.727   4.755  -0.875  0.00  0.00    +0.033 A 
ATOM     14  C   UNL     1      -3.582   5.838  -0.856  0.00  0.00    +0.042 A 
ATOM     15  C   UNL     1      -3.399   6.854   0.067  0.00  0.00    +0.021 A 
ATOM     16  C   UNL     1      -2.359   6.792   0.976  0.00  0.00    +0.022 A 
ATOM     17  C   UNL     1      -1.498   5.711   0.973  0.00  0.00    +0.052 A 
ATOM     18 CL   UNL     1      -0.198   5.631   2.120  0.00  0.00    -0.083 Cl
ATOM     19 CL   UNL     1      -4.891   5.926  -1.993  0.00  0.00    -0.084 Cl
ENDBRANCH  10  12
ENDBRANCH   4   7
ENDBRANCH   1   3
BRANCH   1  20
ATOM     20  N   UNL     1      -2.295  -2.731   0.009  0.00  0.00    -0.291 N 
ATOM     21  H   UNL     1      -3.255  -2.194   0.021  0.00  0.00    +0.154 HD
BRANCH  20  29
ATOM     22  C   UNL     1      -1.757 -10.533  -0.130  0.00  0.00    +0.008 C 
ATOM     23  C   UNL     1      -2.247  -9.109  -0.404  0.00  0.00    -0.009 C 
ATOM     24  C   UNL     1      -3.487  -8.820   0.446  0.00  0.00    +0.008 C 
ATOM     25  C   UNL     1      -4.127  -7.503   0.004  0.00  0.00    +0.037 C 
ATOM     26  C   UNL     1      -3.058  -6.417  -0.002  0.00  0.00    -0.023 A 
ATOM     27  C   UNL     1      -1.745  -6.733  -0.017  0.00  0.00    -0.004 A 
ATOM     28  S   UNL     1      -0.905  -5.175  -0.017  0.00  0.00    -0.077 S 
ATOM     29  C   UNL     1      -2.277  -4.117   0.002  0.00  0.00    +0.084 A 
ATOM     30  C   UNL     1      -3.352  -4.994   0.013  0.00  0.00    +0.068 A 
ATOM     31  C   UNL     1      -1.147  -8.105  -0.031  0.00  0.00    +0.046 C 
BRANCH  30  32
ATOM     32  C   UNL     1      -4.733  -4.503   0.035  0.00  0.00    +0.244 C 
ATOM     33  O   UNL     1      -5.322  -4.295  -1.010  0.00  0.00    -0.270 OA
ATOM     34  N   UNL     1      -5.351  -4.283   1.212  0.00  0.00    -0.325 N 
ATOM     35  H   UNL     1      -6.388  -3.914   1.229  0.00  0.00    +0.145 HD
ATOM     36  H   UNL     1      -4.819  -4.471   2.157  0.00  0.00    +0.145 HD
ENDBRANCH  30  32
ENDBRANCH  20  29
ENDBRANCH   1  20
TORSDOF 6
