REMARK  Name = ZINC17105891
REMARK  8 active torsions:
REMARK  status: ('A' for Active; 'I' for Inactive)
REMARK    1  A    between atoms: C_1  and  C_2
REMARK    2  A    between atoms: C_5  and  N_9
REMARK    3  A    between atoms: C_13  and  S_14
REMARK    4  A    between atoms: S_14  and  C_15
REMARK    5  A    between atoms: C_15  and  C_17
REMARK    6  A    between atoms: C_15  and  C_18
REMARK    7  A    between atoms: C_30  and  C_31
REMARK    8  A    between atoms: C_30  and  C_32
REMARK                            x       y       z     vdW  Elec       q    Type
REMARK                         _______ _______ _______ _____ _____    ______ ____
ROOT
ATOM      1  C   UNL     1      -5.528   3.581  -2.051  0.00  0.00    +0.137 C 
ATOM      2  C   UNL     1      -5.592   4.779  -3.000  0.00  0.00    +0.029 C 
ENDROOT
BRANCH   1   3
ATOM      3  C   UNL     1      -5.798   2.315  -2.822  0.00  0.00    +0.234 C 
ATOM      4  O   UNL     1      -4.918   1.492  -2.965  0.00  0.00    -0.274 OA
ATOM      5  N   UNL     1      -7.017   2.096  -3.353  0.00  0.00    -0.255 N 
ATOM      6  C   UNL     1      -7.237   1.040  -4.251  0.00  0.00    +0.059 A 
ATOM      7  C   UNL     1      -6.227   0.583  -5.078  0.00  0.00    +0.025 A 
ATOM      8  C   UNL     1      -6.476  -0.457  -5.956  0.00  0.00    +0.002 A 
ATOM      9  C   UNL     1      -7.731  -1.037  -6.009  0.00  0.00    +0.002 A 
ATOM     10  C   UNL     1      -8.749  -0.590  -5.174  0.00  0.00    +0.025 A 
ATOM     11  C   UNL     1      -8.506   0.453  -4.294  0.00  0.00    +0.055 A 
ATOM     12  N   UNL     1      -9.516   0.927  -3.450  0.00  0.00    -0.282 N 
ATOM     13  C   UNL     1      -9.379   2.101  -2.804  0.00  0.00    +0.241 C 
ATOM     14  O   UNL     1     -10.249   2.471  -2.045  0.00  0.00    -0.273 OA
ATOM     15  C   UNL     1      -8.158   2.959  -3.014  0.00  0.00    +0.113 C 
ATOM     16  C   UNL     1      -7.851   3.734  -1.731  0.00  0.00    +0.042 C 
ATOM     17  C   UNL     1      -8.414   3.942  -4.159  0.00  0.00    +0.042 C 
ATOM     18  H   UNL     1     -10.325   0.405  -3.330  0.00  0.00    +0.155 HD
ENDBRANCH   1   3
BRANCH   1  19
ATOM     19  S   UNL     1      -3.882   3.492  -1.302  0.00  0.00    -0.073 S 
BRANCH  19  24
ATOM     20  N   UNL     1      -2.879   5.455   0.425  0.00  0.00    -0.277 N 
ATOM     21  C   UNL     1      -3.338   6.635   0.949  0.00  0.00    +0.230 A 
ATOM     22  N   UNL     1      -4.537   6.828   0.477  0.00  0.00    -0.137 NA
ATOM     23  N   UNL     1      -4.870   5.857  -0.297  0.00  0.00    -0.122 NA
ATOM     24  C   UNL     1      -3.891   4.985  -0.366  0.00  0.00    +0.197 A 
BRANCH  20  29
ATOM     25  C   UNL     1       2.162   3.018   1.359  0.00  0.00    +0.045 C 
ATOM     26  C   UNL     1       0.824   3.665   1.111  0.00  0.00    -0.032 A 
ATOM     27  C   UNL     1       0.758   4.996   0.743  0.00  0.00    +0.007 A 
ATOM     28  C   UNL     1      -0.467   5.591   0.515  0.00  0.00    +0.026 A 
ATOM     29  C   UNL     1      -1.634   4.853   0.656  0.00  0.00    +0.051 A 
ATOM     30  C   UNL     1      -1.566   3.515   1.020  0.00  0.00    +0.046 A 
ATOM     31  C   UNL     1      -0.337   2.925   1.253  0.00  0.00    +0.046 A 
ATOM     32 CL   UNL     1      -0.251   1.254   1.715  0.00  0.00    -0.083 Cl
ENDBRANCH  20  29
ENDBRANCH  19  24
ENDBRANCH   1  19
TORSDOF 4
