REMARK  Name = ZINC10249552
REMARK  8 active torsions:
REMARK  status: ('A' for Active; 'I' for Inactive)
REMARK    1  A    between atoms: C_1  and  C_2
REMARK    2  A    between atoms: C_2  and  C_4
REMARK    3  A    between atoms: C_2  and  C_27
REMARK    4  A    between atoms: C_4  and  N_5
REMARK    5  A    between atoms: N_13  and  C_26
REMARK    6  A    between atoms: C_20  and  C_23
REMARK    7  A    between atoms: C_27  and  S_28
REMARK    8  A    between atoms: S_28  and  C_29
REMARK                            x       y       z     vdW  Elec       q    Type
REMARK                         _______ _______ _______ _____ _____    ______ ____
ROOT
ATOM      1  N   UNL     1       0.006   1.381   0.011  0.00  0.00    -0.306 N 
ATOM      2  C   UNL     1       1.261   1.974  -0.030  0.00  0.00    +0.153 A 
ATOM      3  C   UNL     1       1.722   3.301  -0.083  0.00  0.00    +0.280 A 
ATOM      4  O   UNL     1       0.930   4.227  -0.101  0.00  0.00    -0.265 OA
ATOM      5  N   UNL     1       3.050   3.538  -0.113  0.00  0.00    -0.273 N 
ATOM      6  H   UNL     1       3.380   4.481  -0.151  0.00  0.00    +0.173 HD
ATOM      7  C   UNL     1       3.934   2.527  -0.093  0.00  0.00    +0.331 A 
ATOM      8  O   UNL     1       5.124   2.778  -0.122  0.00  0.00    -0.246 OA
ATOM      9  N   UNL     1       3.536   1.242  -0.043  0.00  0.00    -0.280 N 
ATOM     10  C   UNL     1       2.185   0.934  -0.010  0.00  0.00    +0.170 A 
ATOM     11  N   UNL     1       1.502  -0.210   0.041  0.00  0.00    -0.196 NA
ATOM     12  C   UNL     1       0.208   0.038   0.054  0.00  0.00    +0.201 A 
ATOM     13  N   UNL     1      -0.783  -0.915   0.103  0.00  0.00    -0.301 N 
ATOM     14  C   UNL     1      -0.802  -1.589   1.407  0.00  0.00    +0.108 C 
ATOM     15  C   UNL     1      -2.003  -2.534   1.478  0.00  0.00    +0.032 C 
ATOM     16  C   UNL     1      -1.902  -3.565   0.351  0.00  0.00    +0.078 C 
ATOM     17  C   UNL     1      -1.835  -2.836  -0.994  0.00  0.00    +0.032 C 
ATOM     18  C   UNL     1      -0.639  -1.882  -0.993  0.00  0.00    +0.108 C 
ATOM     19  C   UNL     1       4.532   0.167  -0.023  0.00  0.00    +0.155 C 
ENDROOT
BRANCH  16  20
ATOM     20  C   UNL     1      -3.112  -4.463   0.377  0.00  0.00    +0.214 C 
ATOM     21  O   UNL     1      -3.849  -4.515  -0.584  0.00  0.00    -0.276 OA
ATOM     22  N   UNL     1      -3.374  -5.208   1.469  0.00  0.00    -0.329 N 
ATOM     23  H   UNL     1      -2.784  -5.166   2.238  0.00  0.00    +0.145 HD
ATOM     24  H   UNL     1      -4.153  -5.786   1.486  0.00  0.00    +0.145 HD
ENDBRANCH  16  20
BRANCH   1  25
ATOM     25  C   UNL     1      -1.286   2.071   0.004  0.00  0.00    +0.129 C 
BRANCH  25  27
ATOM     26  C   UNL     1      -0.845   3.168   2.205  0.00  0.00    +0.010 C 
ATOM     27  C   UNL     1      -1.786   2.233   1.442  0.00  0.00    +0.016 C 
BRANCH  27  28
ATOM     28  C   UNL     1      -3.195   2.828   1.428  0.00  0.00    +0.079 C 
BRANCH  28  29
ATOM     29  S   UNL     1      -3.845   2.884   3.120  0.00  0.00    -0.125 S 
BRANCH  29  30
ATOM     30  C   UNL     1      -5.452   3.583   2.938  0.00  0.00    +0.008 A 
ATOM     31  C   UNL     1      -5.914   3.945   1.679  0.00  0.00    +0.016 A 
ATOM     32  C   UNL     1      -7.176   4.488   1.538  0.00  0.00    +0.021 A 
ATOM     33  C   UNL     1      -7.976   4.681   2.651  0.00  0.00    +0.041 A 
ATOM     34  C   UNL     1      -7.516   4.326   3.907  0.00  0.00    +0.021 A 
ATOM     35  C   UNL     1      -6.257   3.778   4.053  0.00  0.00    +0.016 A 
ATOM     36 CL   UNL     1      -9.559   5.369   2.470  0.00  0.00    -0.084 Cl
ENDBRANCH  29  30
ENDBRANCH  28  29
ENDBRANCH  27  28
ENDBRANCH  25  27
ENDBRANCH   1  25
TORSDOF 6
