REMARK  Name = ZINC32994518
REMARK  14 active torsions:
REMARK  status: ('A' for Active; 'I' for Inactive)
REMARK    1  A    between atoms: C_1  and  C_2
REMARK    2  A    between atoms: C_2  and  C_3
REMARK    3  A    between atoms: C_2  and  C_4
REMARK    4  A    between atoms: C_4  and  N_5
REMARK    5  A    between atoms: C_6  and  N_37
REMARK    6  A    between atoms: C_7  and  N_14
REMARK    7  A    between atoms: N_14  and  C_15
REMARK    8  A    between atoms: C_15  and  C_16
REMARK    9  A    between atoms: C_16  and  O_17
REMARK   10  A    between atoms: O_17  and  C_18
REMARK   11  A    between atoms: C_19  and  C_21
REMARK   12  A    between atoms: C_21  and  C_22
REMARK   13  A    between atoms: C_22  and  N_23
REMARK   14  A    between atoms: N_26  and  C_27
REMARK                            x       y       z     vdW  Elec       q    Type
REMARK                         _______ _______ _______ _____ _____    ______ ____
ROOT
ATOM      1  N   UNL     1     -10.720   0.538   3.113  0.00  0.00    -0.262 N 
ATOM      2  C   UNL     1      -9.527   1.168   3.094  0.00  0.00    +0.222 C 
ATOM      3  O   UNL     1      -9.280   2.024   3.918  0.00  0.00    -0.275 OA
ENDROOT
BRANCH   1   6
ATOM      4  N   UNL     1     -12.249   0.778   6.445  0.00  0.00    -0.280 N 
ATOM      5  C   UNL     1     -11.330   0.507   5.458  0.00  0.00    +0.127 A 
ATOM      6  C   UNL     1     -11.642   0.803   4.147  0.00  0.00    +0.140 A 
ATOM      7  C   UNL     1     -12.893   1.379   3.860  0.00  0.00    +0.277 A 
ATOM      8  O   UNL     1     -13.193   1.655   2.711  0.00  0.00    -0.266 OA
ATOM      9  N   UNL     1     -13.760   1.620   4.863  0.00  0.00    -0.273 N 
ATOM     10  H   UNL     1     -14.744   2.062   4.646  0.00  0.00    +0.173 HD
ATOM     11  C   UNL     1     -13.439   1.325   6.135  0.00  0.00    +0.331 A 
ATOM     12  O   UNL     1     -14.238   1.556   7.022  0.00  0.00    -0.246 OA
BRANCH   5  13
ATOM     13  N   UNL     1     -10.115  -0.051   5.775  0.00  0.00    -0.343 N 
ATOM     14  H   UNL     1      -9.384  -0.265   4.981  0.00  0.00    +0.144 HD
ATOM     15  H   UNL     1      -9.873  -0.285   6.822  0.00  0.00    +0.144 HD
ENDBRANCH   5  13
BRANCH   4  16
ATOM     16  C   UNL     1     -11.931   0.469   7.841  0.00  0.00    +0.131 C 
BRANCH  16  18
ATOM     17  C   UNL     1     -12.248   2.845   8.549  0.00  0.00    +0.009 C 
ATOM     18  C   UNL     1     -11.257   1.680   8.490  0.00  0.00    +0.003 C 
ATOM     19  C   UNL     1     -10.813   1.317   9.909  0.00  0.00    +0.009 C 
ENDBRANCH  16  18
ENDBRANCH   4  16
ENDBRANCH   1   6
BRANCH   1  20
ATOM     20  C   UNL     1     -11.057  -0.422   2.058  0.00  0.00    +0.142 C 
BRANCH  20  21
ATOM     21  C   UNL     1     -10.593  -1.819   2.473  0.00  0.00    +0.178 C 
BRANCH  21  22
ATOM     22  O   UNL     1     -11.329  -2.245   3.622  0.00  0.00    -0.381 OA
ATOM     23  C   UNL     1     -10.970  -3.545   4.093  0.00  0.00    +0.194 C 
ENDBRANCH  21  22
ENDBRANCH  20  21
ENDBRANCH   1  20
BRANCH   2  24
ATOM     24  C   UNL     1      -8.501   0.809   2.050  0.00  0.00    +0.115 C 
BRANCH  24  25
ATOM     25  C   UNL     1      -7.248   1.665   2.251  0.00  0.00    +0.115 C 
BRANCH  25  26
ATOM     26  N   UNL     1      -6.251   1.316   1.236  0.00  0.00    -0.299 N 
ATOM     27  C   UNL     1      -5.059   1.945   1.217  0.00  0.00    +0.300 C 
ATOM     28  O   UNL     1      -4.812   2.803   2.043  0.00  0.00    -0.253 OA
ATOM     29  N   UNL     1      -4.142   1.624   0.283  0.00  0.00    -0.294 N 
ATOM     30  H   UNL     1      -6.475   0.540   0.489  0.00  0.00    +0.150 HD
ATOM     31  H   UNL     1      -4.366   0.849  -0.464  0.00  0.00    +0.151 HD
BRANCH  29  32
ATOM     32  C   UNL     1      -2.847   2.309   0.263  0.00  0.00    +0.037 C 
ATOM     33  C   UNL     1      -1.999   1.761  -0.886  0.00  0.00    +0.029 C 
ATOM     34  C   UNL     1      -0.646   2.476  -0.907  0.00  0.00    -0.008 C 
ATOM     35  C   UNL     1       0.078   2.237   0.419  0.00  0.00    +0.007 C 
ATOM     36  C   UNL     1      -0.771   2.784   1.569  0.00  0.00    -0.008 C 
ATOM     37  C   UNL     1      -2.123   2.070   1.590  0.00  0.00    +0.029 C 
ATOM     38  C   UNL     1      -0.990   4.285   1.371  0.00  0.00    +0.007 C 
ATOM     39  C   UNL     1      -1.714   4.525   0.044  0.00  0.00    -0.008 C 
ATOM     40  C   UNL     1      -0.866   3.977  -1.105  0.00  0.00    +0.007 C 
ATOM     41  C   UNL     1      -3.066   3.810   0.065  0.00  0.00    +0.029 C 
ENDBRANCH  29  32
ENDBRANCH  25  26
ENDBRANCH  24  25
ENDBRANCH   2  24
TORSDOF 11
