REMARK  Name = ZINC36583811
REMARK  11 active torsions:
REMARK  status: ('A' for Active; 'I' for Inactive)
REMARK    1  A    between atoms: C_1  and  C_2
REMARK    2  A    between atoms: C_2  and  C_3
REMARK    3  A    between atoms: C_2  and  C_4
REMARK    4  A    between atoms: C_2  and  N_5
REMARK    5  A    between atoms: N_5  and  C_6
REMARK    6  A    between atoms: C_6  and  C_8
REMARK    7  A    between atoms: C_6  and  C_15
REMARK    8  A    between atoms: N_17  and  C_18
REMARK    9  A    between atoms: C_24  and  C_26
REMARK   10  A    between atoms: C_28  and  N_35
REMARK   11  A    between atoms: C_30  and  N_32
REMARK                            x       y       z     vdW  Elec       q    Type
REMARK                         _______ _______ _______ _____ _____    ______ ____
ROOT
ATOM      1  N   UNL     1      -2.187  -2.152   1.615  0.00  0.00    -0.277 N 
ATOM      2  C   UNL     1      -1.942  -3.038   2.601  0.00  0.00    +0.248 C 
ATOM      3  O   UNL     1      -1.101  -2.792   3.443  0.00  0.00    -0.270 OA
ENDROOT
BRANCH   2   4
ATOM      4  C   UNL     1      -2.695  -4.309   2.657  0.00  0.00    +0.041 A 
ATOM      5  C   UNL     1      -3.175  -4.892   1.483  0.00  0.00    +0.046 A 
ATOM      6  C   UNL     1      -3.877  -6.078   1.542  0.00  0.00    +0.129 A 
ATOM      7  C   UNL     1      -4.105  -6.690   2.762  0.00  0.00    +0.065 A 
ATOM      8  C   UNL     1      -3.632  -6.117   3.929  0.00  0.00    +0.129 A 
ATOM      9  C   UNL     1      -2.924  -4.934   3.883  0.00  0.00    +0.046 A 
BRANCH   8  10
ATOM     10  N   UNL     1      -3.882  -6.779   5.229  0.00  0.00    +0.057 N 
ATOM     11  O   UNL     1      -4.498  -7.818   5.271  0.00  0.00    -0.126 OA
ATOM     12  O   UNL     1      -3.469  -6.280   6.250  0.00  0.00    -0.126 OA
ENDBRANCH   8  10
BRANCH   6  13
ATOM     13  N   UNL     1      -4.386  -6.698   0.298  0.00  0.00    +0.057 N 
ATOM     14  O   UNL     1      -4.109  -6.215  -0.775  0.00  0.00    -0.126 OA
ATOM     15  O   UNL     1      -5.080  -7.686   0.355  0.00  0.00    -0.126 OA
ENDBRANCH   6  13
ENDBRANCH   2   4
BRANCH   1  17
ATOM     16  C   UNL     1      -3.619  -1.228  -0.139  0.00  0.00    +0.031 C 
ATOM     17  C   UNL     1      -3.098  -2.505   0.523  0.00  0.00    +0.030 C 
ATOM     18  C   UNL     1      -4.275  -3.308   1.080  0.00  0.00    +0.031 C 
ATOM     19  C   UNL     1      -2.350  -3.347  -0.513  0.00  0.00    +0.031 C 
ENDBRANCH   1  17
BRANCH   1  20
ATOM     20  C   UNL     1      -1.543  -0.837   1.636  0.00  0.00    +0.193 C 
BRANCH  20  21
ATOM     21  C   UNL     1      -2.115  -0.015   2.762  0.00  0.00    -0.018 A 
ATOM     22  C   UNL     1      -3.473  -0.045   3.019  0.00  0.00    +0.007 A 
ATOM     23  C   UNL     1      -3.998   0.708   4.052  0.00  0.00    +0.020 A 
ATOM     24  C   UNL     1      -3.164   1.492   4.829  0.00  0.00    +0.041 A 
ATOM     25  C   UNL     1      -1.805   1.522   4.572  0.00  0.00    +0.020 A 
ATOM     26  C   UNL     1      -1.281   0.764   3.542  0.00  0.00    +0.007 A 
ATOM     27 CL   UNL     1      -3.823   2.439   6.126  0.00  0.00    -0.084 Cl
ENDBRANCH  20  21
BRANCH  20  28
ATOM     28  C   UNL     1      -0.060  -1.006   1.841  0.00  0.00    +0.238 C 
ATOM     29  O   UNL     1       0.402  -2.110   2.042  0.00  0.00    -0.273 OA
ATOM     30  N   UNL     1       0.753   0.068   1.800  0.00  0.00    -0.311 N 
ATOM     31  H   UNL     1       0.384   0.950   1.639  0.00  0.00    +0.149 HD
BRANCH  30  32
ATOM     32  C   UNL     1       2.195  -0.098   1.999  0.00  0.00    +0.073 C 
ATOM     33  C   UNL     1       2.507  -0.094   3.497  0.00  0.00    +0.022 C 
ATOM     34  C   UNL     1       4.013  -0.266   3.705  0.00  0.00    +0.002 C 
ATOM     35  C   UNL     1       4.757   0.886   3.026  0.00  0.00    +0.000 C 
ATOM     36  C   UNL     1       4.445   0.882   1.529  0.00  0.00    +0.002 C 
ATOM     37  C   UNL     1       2.939   1.055   1.321  0.00  0.00    +0.022 C 
ENDBRANCH  30  32
ENDBRANCH  20  28
ENDBRANCH   1  20
TORSDOF 8
