REMARK  Name = ZINC39944388
REMARK  11 active torsions:
REMARK  status: ('A' for Active; 'I' for Inactive)
REMARK    1  A    between atoms: C_1  and  C_2
REMARK    2  A    between atoms: C_7  and  O_8
REMARK    3  A    between atoms: O_8  and  C_9
REMARK    4  A    between atoms: C_9  and  C_10
REMARK    5  A    between atoms: C_12  and  S_16
REMARK    6  A    between atoms: S_16  and  C_17
REMARK    7  A    between atoms: C_17  and  C_18
REMARK    8  A    between atoms: N_20  and  C_21
REMARK    9  A    between atoms: C_23  and  C_33
REMARK   10  A    between atoms: C_33  and  O_35
REMARK   11  A    between atoms: O_35  and  C_36
REMARK                            x       y       z     vdW  Elec       q    Type
REMARK                         _______ _______ _______ _____ _____    ______ ____
ROOT
ATOM      1  C   UNL     1       4.559   2.444   7.727  0.00  0.00    +0.224 C 
ATOM      2  O   UNL     1       4.217   3.140   8.659  0.00  0.00    -0.275 OA
ATOM      3  N   UNL     1       5.868   2.274   7.457  0.00  0.00    -0.301 N 
ATOM      4  H   UNL     1       6.141   1.717   6.711  0.00  0.00    +0.150 HD
ENDROOT
BRANCH   3   5
ATOM      5  C   UNL     1       6.879   2.931   8.290  0.00  0.00    +0.153 C 
ATOM      6  C   UNL     1       7.970   1.934   8.753  0.00  0.00    +0.155 C 
ATOM      7  C   UNL     1       7.631   1.331  10.096  0.00  0.00    -0.044 C 
ATOM      8  C   UNL     1       6.760   1.966  10.844  0.00  0.00    -0.013 C 
ATOM      9  S   UNL     1       6.201   3.391   9.941  0.00  0.00    -0.106 S 
ATOM     10  C   UNL     1       6.324   1.579  12.243  0.00  0.00    +0.042 C 
ATOM     11  C   UNL     1       5.501   0.288  12.131  0.00  0.00    +0.005 C 
ATOM     12  C   UNL     1       6.415  -0.908  11.987  0.00  0.00    +0.001 C 
ATOM     13  C   UNL     1       7.142  -1.025  10.670  0.00  0.00    +0.004 C 
ATOM     14  C   UNL     1       8.263   0.005  10.542  0.00  0.00    +0.032 C 
BRANCH   6  15
ATOM     15  C   UNL     1       9.287   2.658   8.857  0.00  0.00    +0.317 C 
ATOM     16  O   UNL     1       9.854   2.731   9.922  0.00  0.00    -0.250 OA
BRANCH  15  17
ATOM     17  O   UNL     1       9.832   3.221   7.767  0.00  0.00    -0.467 OA
ATOM     18  C   UNL     1      11.082   3.891   7.939  0.00  0.00    +0.280 C 
ENDBRANCH  15  17
ENDBRANCH   6  15
ENDBRANCH   3   5
BRANCH   1  19
ATOM     19  C   UNL     1       3.519   1.768   6.870  0.00  0.00    +0.173 C 
BRANCH  19  20
ATOM     20  S   UNL     1       1.864   2.188   7.483  0.00  0.00    -0.077 S 
BRANCH  20  23
ATOM     21  C   UNL     1       0.047   0.090   4.775  0.00  0.00    +0.189 A 
ATOM     22  N   UNL     1       1.133   0.575   5.378  0.00  0.00    -0.202 NA
ATOM     23  C   UNL     1       0.776   1.334   6.392  0.00  0.00    +0.185 A 
ATOM     24  N   UNL     1      -0.574   1.341   6.449  0.00  0.00    -0.253 N 
ATOM     25  H   UNL     1      -1.127   1.812   7.091  0.00  0.00    +0.191 HD
ATOM     26  N   UNL     1      -1.017   0.533   5.389  0.00  0.00    -0.153 NA
BRANCH  21  27
ATOM     27  C   UNL     1       0.048  -0.820   3.574  0.00  0.00    +0.306 C 
BRANCH  27  28
ATOM     28  O   UNL     1       0.025  -0.033   2.381  0.00  0.00    -0.484 OA
BRANCH  28  35
ATOM     29  C   UNL     1      -0.018   1.503   0.010  0.00  0.00    +0.047 C 
ATOM     30  C   UNL     1       0.002  -0.004   0.002  0.00  0.00    -0.009 A 
ATOM     31  C   UNL     1       0.006  -0.689  -1.198  0.00  0.00    +0.007 A 
ATOM     32  C   UNL     1       0.024  -2.071  -1.206  0.00  0.00    +0.000 A 
ATOM     33  C   UNL     1       0.039  -2.772  -0.014  0.00  0.00    +0.004 A 
ATOM     34  C   UNL     1       0.036  -2.092   1.188  0.00  0.00    +0.046 A 
ATOM     35  C   UNL     1       0.023  -0.705   1.199  0.00  0.00    +0.124 A 
ENDBRANCH  28  35
ENDBRANCH  27  28
ENDBRANCH  21  27
ENDBRANCH  20  23
ENDBRANCH  19  20
ENDBRANCH   1  19
TORSDOF 9
