REMARK  Name = ZINC39685464
REMARK  7 active torsions:
REMARK  status: ('A' for Active; 'I' for Inactive)
REMARK    1  A    between atoms: C_5  and  C_7
REMARK    2  A    between atoms: C_10  and  C_12
REMARK    3  A    between atoms: C_16  and  C_25
REMARK    4  A    between atoms: N_27  and  C_28
REMARK    5  A    between atoms: C_28  and  C_29
REMARK    6  A    between atoms: C_29  and  O_30
REMARK    7  A    between atoms: O_30  and  C_31
REMARK                            x       y       z     vdW  Elec       q    Type
REMARK                         _______ _______ _______ _____ _____    ______ ____
ROOT
ATOM      1  C   UNL     1       2.167  -5.167  -1.330  0.00  0.00    +0.282 C 
ATOM      2  O   UNL     1       1.824  -6.308  -1.080  0.00  0.00    -0.267 OA
ATOM      3  N   UNL     1       2.988  -4.924  -2.371  0.00  0.00    -0.294 N 
ATOM      4  C   UNL     1       3.600  -3.632  -2.763  0.00  0.00    +0.121 C 
ATOM      5  C   UNL     1       5.032  -3.999  -3.212  0.00  0.00    +0.100 C 
ATOM      6  C   UNL     1       4.948  -5.479  -3.620  0.00  0.00    -0.004 C 
ATOM      7  C   UNL     1       3.488  -5.889  -3.380  0.00  0.00    +0.115 C 
ATOM      8  C   UNL     1       5.308  -5.643  -5.093  0.00  0.00    -0.010 C 
ATOM      9  C   UNL     1       5.274  -7.129  -5.461  0.00  0.00    -0.082 C 
ATOM     10  N   UNL     1       6.226  -7.865  -4.619  0.00  0.00    +0.379 N 
ATOM     11  C   UNL     1       5.819  -7.779  -3.211  0.00  0.00    -0.082 C 
ATOM     12  C   UNL     1       5.877  -6.321  -2.749  0.00  0.00    -0.010 C 
ATOM     13  H   UNL     1       6.246  -8.832  -4.904  0.00  0.00    -0.086 HD
ATOM     14  H   UNL     1       7.146  -7.466  -4.727  0.00  0.00    -0.086 HD
ENDROOT
BRANCH   1  18
ATOM     15  C   UNL     1       1.317  -2.023   0.238  0.00  0.00    +0.139 A 
ATOM     16  C   UNL     1       0.705  -2.876   1.111  0.00  0.00    +0.051 A 
ATOM     17  C   UNL     1       0.936  -4.175   0.648  0.00  0.00    +0.055 A 
ATOM     18  C   UNL     1       1.688  -4.059  -0.501  0.00  0.00    +0.190 A 
ATOM     19  O   UNL     1       1.902  -2.747  -0.731  0.00  0.00    -0.450 OA
BRANCH  15  24
ATOM     20  C   UNL     1       0.147   1.532   0.525  0.00  0.00    +0.001 A 
ATOM     21  C   UNL     1       1.352   2.214   0.529  0.00  0.00    +0.003 A 
ATOM     22  C   UNL     1       2.546   1.523   0.440  0.00  0.00    +0.039 A 
ATOM     23  C   UNL     1       2.543   0.144   0.345  0.00  0.00    +0.134 A 
ATOM     24  C   UNL     1       1.329  -0.550   0.340  0.00  0.00    +0.052 A 
ATOM     25  C   UNL     1       0.128   0.157   0.431  0.00  0.00    +0.014 A 
ATOM     26  F   UNL     1       3.710  -0.532   0.257  0.00  0.00    -0.205 F 
ENDBRANCH  15  24
ENDBRANCH   1  18
BRANCH   5  27
ATOM     27  C   UNL     1       6.002  -3.820  -2.072  0.00  0.00    +0.218 C 
ATOM     28  O   UNL     1       5.610  -3.891  -0.927  0.00  0.00    -0.275 OA
ATOM     29  N   UNL     1       7.304  -3.582  -2.327  0.00  0.00    -0.312 N 
ATOM     30  H   UNL     1       7.604  -3.453  -3.240  0.00  0.00    +0.149 HD
BRANCH  29  31
ATOM     31  C   UNL     1       8.265  -3.518  -1.223  0.00  0.00    +0.145 C 
BRANCH  31  32
ATOM     32  C   UNL     1       9.638  -3.115  -1.766  0.00  0.00    +0.247 C 
BRANCH  32  33
ATOM     33  O   UNL     1       9.576  -1.782  -2.279  0.00  0.00    -0.490 OA
BRANCH  33  34
ATOM     34  C   UNL     1      10.691  -1.304  -2.891  0.00  0.00    +0.123 A 
ATOM     35  C   UNL     1      11.783  -2.136  -3.095  0.00  0.00    +0.046 A 
ATOM     36  C   UNL     1      12.915  -1.649  -3.717  0.00  0.00    +0.006 A 
ATOM     37  C   UNL     1      12.963  -0.333  -4.138  0.00  0.00    +0.038 A 
ATOM     38  C   UNL     1      11.875   0.500  -3.937  0.00  0.00    +0.127 A 
ATOM     39  C   UNL     1      10.736   0.014  -3.319  0.00  0.00    +0.084 A 
ATOM     40  F   UNL     1      11.923   1.786  -4.349  0.00  0.00    -0.205 F 
ENDBRANCH  33  34
ENDBRANCH  32  33
ENDBRANCH  31  32
ENDBRANCH  29  31
ENDBRANCH   5  27
TORSDOF 7
