REMARK  Name = ZINC51147033
REMARK  8 active torsions:
REMARK  status: ('A' for Active; 'I' for Inactive)
REMARK    1  A    between atoms: C_1  and  C_2
REMARK    2  A    between atoms: C_2  and  N_3
REMARK    3  A    between atoms: N_3  and  C_4
REMARK    4  A    between atoms: N_3  and  C_12
REMARK    5  A    between atoms: C_4  and  C_5
REMARK    6  A    between atoms: C_6  and  N_10
REMARK    7  A    between atoms: N_10  and  N_11
REMARK    8  A    between atoms: C_17  and  C_18
REMARK                            x       y       z     vdW  Elec       q    Type
REMARK                         _______ _______ _______ _____ _____    ______ ____
ROOT
ATOM      1  C   UNL     1      -0.028  -0.750   2.427  0.00  0.00    +0.164 C 
ENDROOT
BRANCH   1   2
ATOM      2  C   UNL     1      -0.503  -2.180   2.436  0.00  0.00    +0.111 A 
ATOM      3  C   UNL     1      -1.714  -2.541   1.917  0.00  0.00    +0.124 A 
ATOM      4  S   UNL     1      -1.728  -4.200   2.185  0.00  0.00    +0.053 S 
ATOM      5  N   UNL     1      -0.234  -4.356   2.926  0.00  0.00    -0.108 NA
ATOM      6  N   UNL     1       0.226  -3.151   2.940  0.00  0.00    -0.143 NA
BRANCH   3   7
ATOM      7  N   UNL     1      -2.685  -1.740   1.320  0.00  0.00    -0.274 N 
ATOM      8  H   UNL     1      -2.540  -0.785   1.232  0.00  0.00    +0.167 HD
BRANCH   7   9
ATOM      9  N   UNL     1      -3.843  -2.300   0.859  0.00  0.00    -0.256 NA
ATOM     10  H   UNL     1      -4.447  -1.601   0.455  0.00  0.00    +0.140 HD
ATOM     11  H   UNL     1      -3.650  -3.037   0.198  0.00  0.00    +0.140 HD
ENDBRANCH   7   9
ENDBRANCH   3   7
ENDBRANCH   1   2
BRANCH   1  12
ATOM     12  N   UNL     1       0.711  -0.489   1.189  0.00  0.00    -0.324 N 
BRANCH  12  13
ATOM     13  C   UNL     1       2.090  -0.703   1.140  0.00  0.00    +0.033 A 
ATOM     14  C   UNL     1       2.966   0.323   1.472  0.00  0.00    +0.023 A 
ATOM     15  C   UNL     1       4.329   0.108   1.424  0.00  0.00    +0.002 A 
ATOM     16  C   UNL     1       4.823  -1.127   1.044  0.00  0.00    +0.000 A 
ATOM     17  C   UNL     1       3.954  -2.150   0.712  0.00  0.00    +0.005 A 
ATOM     18  C   UNL     1       2.589  -1.944   0.764  0.00  0.00    -0.029 A 
ATOM     19  C   UNL     1       1.643  -3.061   0.409  0.00  0.00    +0.045 C 
ENDBRANCH  12  13
BRANCH  12  21
ATOM     20  C   UNL     1      -0.019   1.526   0.010  0.00  0.00    +0.024 C 
ATOM     21  C   UNL     1       0.002  -0.004   0.002  0.00  0.00    +0.102 C 
ENDBRANCH  12  21
ENDBRANCH   1  12
TORSDOF 6
