REMARK  Name = ZINC56077354
REMARK  9 active torsions:
REMARK  status: ('A' for Active; 'I' for Inactive)
REMARK    1  A    between atoms: C_1  and  C_2
REMARK    2  A    between atoms: C_5  and  C_8
REMARK    3  A    between atoms: C_8  and  C_10
REMARK    4  A    between atoms: C_8  and  N_11
REMARK    5  A    between atoms: N_11  and  C_12
REMARK    6  A    between atoms: N_11  and  S_13
REMARK    7  A    between atoms: S_13  and  N_16
REMARK    8  A    between atoms: N_16  and  C_17
REMARK    9  A    between atoms: N_16  and  C_18
REMARK                            x       y       z     vdW  Elec       q    Type
REMARK                         _______ _______ _______ _____ _____    ______ ____
ROOT
ATOM      1  N   UNL     1       1.048  -4.756   0.947  0.00  0.00    -0.162 NA
ATOM      2  C   UNL     1       0.854  -4.505   2.377  0.00  0.00    +0.133 C 
ENDROOT
BRANCH   1   3
ATOM      3  S   UNL     1       2.375  -5.599   0.427  0.00  0.00    +0.100 S 
ATOM      4  O   UNL     1       2.805  -6.396   1.522  0.00  0.00    -0.141 OA
ATOM      5  O   UNL     1       2.033  -6.157  -0.834  0.00  0.00    -0.141 OA
BRANCH   3   6
ATOM      6  N   UNL     1       3.576  -4.494   0.145  0.00  0.00    -0.166 NA
ATOM      7  C   UNL     1       4.501  -4.127   1.220  0.00  0.00    +0.133 C 
BRANCH   6   8
ATOM      8  C   UNL     1       3.714  -3.884  -1.180  0.00  0.00    +0.081 C 
ATOM      9  C   UNL     1       3.559  -2.366  -1.061  0.00  0.00    +0.020 C 
ATOM     10  C   UNL     1       3.704  -1.729  -2.445  0.00  0.00    +0.002 C 
ATOM     11  C   UNL     1       5.084  -2.058  -3.016  0.00  0.00    +0.000 C 
ATOM     12  C   UNL     1       5.239  -3.575  -3.135  0.00  0.00    +0.002 C 
ATOM     13  C   UNL     1       5.095  -4.213  -1.751  0.00  0.00    +0.020 C 
ENDBRANCH   6   8
ENDBRANCH   3   6
ENDBRANCH   1   3
BRANCH   1  14
ATOM     14  C   UNL     1       0.067  -4.262  -0.023  0.00  0.00    +0.107 C 
ATOM     15  C   UNL     1      -1.334  -4.712   0.395  0.00  0.00    +0.031 C 
BRANCH  14  20
ATOM     16  C   UNL     1       0.271   1.510  -0.196  0.00  0.00    +0.044 C 
ATOM     17  C   UNL     1       0.217   0.005  -0.151  0.00  0.00    -0.050 A 
ATOM     18  C   UNL     1       0.867  -0.679   0.860  0.00  0.00    +0.003 A 
ATOM     19  C   UNL     1       0.818  -2.060   0.901  0.00  0.00    +0.005 A 
ATOM     20  C   UNL     1       0.119  -2.757  -0.067  0.00  0.00    -0.029 A 
ATOM     21  C   UNL     1      -0.531  -2.072  -1.077  0.00  0.00    +0.005 A 
ATOM     22  C   UNL     1      -0.486  -0.691  -1.116  0.00  0.00    +0.003 A 
ENDBRANCH  14  20
ENDBRANCH   1  14
TORSDOF 5
