REMARK  Name = ZINC45809143
REMARK  9 active torsions:
REMARK  status: ('A' for Active; 'I' for Inactive)
REMARK    1  A    between atoms: C_1  and  C_2
REMARK    2  A    between atoms: C_2  and  C_4
REMARK    3  A    between atoms: C_7  and  N_11
REMARK    4  A    between atoms: C_17  and  C_19
REMARK    5  A    between atoms: C_19  and  O_20
REMARK    6  A    between atoms: O_20  and  C_21
REMARK    7  A    between atoms: C_21  and  C_23
REMARK    8  A    between atoms: C_26  and  N_28
REMARK    9  A    between atoms: C_29  and  C_31
REMARK                            x       y       z     vdW  Elec       q    Type
REMARK                         _______ _______ _______ _____ _____    ______ ____
ROOT
ATOM      1  N   UNL     1      -4.840  -2.869   0.034  0.00  0.00    -0.325 N 
ATOM      2  C   UNL     1      -5.478  -3.244   1.304  0.00  0.00    +0.124 C 
ATOM      3  C   UNL     1      -6.913  -2.703   1.310  0.00  0.00    +0.127 C 
ATOM      4  N   UNL     1      -7.565  -3.086   0.050  0.00  0.00    -0.296 N 
ATOM      5  C   UNL     1      -6.926  -2.711  -1.220  0.00  0.00    +0.127 C 
ATOM      6  C   UNL     1      -5.494  -3.247  -1.226  0.00  0.00    +0.124 C 
ATOM      7  C   UNL     1      -8.726  -3.769   0.058  0.00  0.00    +0.253 C 
ATOM      8  O   UNL     1      -9.243  -4.074   1.112  0.00  0.00    -0.272 OA
ENDROOT
BRANCH   1  12
ATOM      9  C   UNL     1      -1.259  -0.755   0.010  0.00  0.00    +0.020 A 
ATOM     10  C   UNL     1      -2.482  -0.073   0.020  0.00  0.00    +0.013 A 
ATOM     11  C   UNL     1      -3.655  -0.772   0.027  0.00  0.00    +0.027 A 
ATOM     12  C   UNL     1      -3.642  -2.164   0.026  0.00  0.00    +0.065 A 
ATOM     13  C   UNL     1      -2.429  -2.854   0.016  0.00  0.00    +0.145 A 
ATOM     14  C   UNL     1      -1.242  -2.156   0.002  0.00  0.00    +0.051 A 
ATOM     15  F   UNL     1      -2.420  -4.205   0.015  0.00  0.00    -0.204 F 
BRANCH   9  17
ATOM     16  C   UNL     1      -0.018   1.503   0.010  0.00  0.00    +0.091 C 
ATOM     17  C   UNL     1       0.002  -0.004   0.002  0.00  0.00    +0.160 C 
ATOM     18  O   UNL     1       1.061  -0.596  -0.011  0.00  0.00    -0.292 OA
ENDBRANCH   9  17
ENDBRANCH   1  12
BRANCH   7  19
ATOM     19  C   UNL     1      -9.383  -4.155  -1.243  0.00  0.00    +0.328 C 
BRANCH  19  20
ATOM     20  O   UNL     1     -10.592  -4.867  -0.973  0.00  0.00    -0.451 OA
BRANCH  20  21
ATOM     21  C   UNL     1     -11.307  -5.287  -2.038  0.00  0.00    +0.346 C 
ATOM     22  O   UNL     1     -10.912  -5.054  -3.166  0.00  0.00    -0.244 OA
BRANCH  21  23
ATOM     23  C   UNL     1     -12.516  -5.998  -1.844  0.00  0.00    +0.098 A 
ATOM     24  C   UNL     1     -13.387  -6.516  -2.795  0.00  0.00    +0.024 A 
ATOM     25  C   UNL     1     -14.491  -7.163  -2.306  0.00  0.00    +0.032 A 
ATOM     26  C   UNL     1     -14.654  -7.252  -0.942  0.00  0.00    +0.073 A 
ATOM     27  S   UNL     1     -13.308  -6.465  -0.317  0.00  0.00    -0.067 S 
BRANCH  26  28
ATOM     28  N   UNL     1     -15.689  -7.858  -0.244  0.00  0.00    -0.273 N 
ATOM     29  C   UNL     1     -15.689  -7.849   1.103  0.00  0.00    +0.284 C 
ATOM     30  O   UNL     1     -14.780  -7.311   1.708  0.00  0.00    -0.266 OA
ATOM     31  H   UNL     1     -16.413  -8.287  -0.727  0.00  0.00    +0.156 HD
BRANCH  29  32
ATOM     32  C   UNL     1     -16.782  -8.489   1.841  0.00  0.00    +0.189 A 
ATOM     33  C   UNL     1     -16.907  -8.549   3.200  0.00  0.00    +0.054 A 
ATOM     34  C   UNL     1     -18.094  -9.249   3.465  0.00  0.00    +0.042 A 
ATOM     35  C   UNL     1     -18.635  -9.582   2.272  0.00  0.00    +0.196 A 
ATOM     36  O   UNL     1     -17.845  -9.118   1.296  0.00  0.00    -0.458 OA
ENDBRANCH  29  32
ENDBRANCH  26  28
ENDBRANCH  21  23
ENDBRANCH  20  21
ENDBRANCH  19  20
ENDBRANCH   7  19
TORSDOF 8
