REMARK  Name = ZINC26070382
REMARK  12 active torsions:
REMARK  status: ('A' for Active; 'I' for Inactive)
REMARK    1  A    between atoms: C_1  and  C_2
REMARK    2  A    between atoms: C_2  and  C_3
REMARK    3  A    between atoms: C_3  and  C_4
REMARK    4  A    between atoms: C_4  and  C_5
REMARK    5  A    between atoms: C_5  and  N_6
REMARK    6  A    between atoms: C_15  and  C_17
REMARK    7  A    between atoms: N_19  and  N_20
REMARK    8  A    between atoms: C_21  and  C_23
REMARK    9  A    between atoms: C_26  and  S_29
REMARK   10  A    between atoms: S_29  and  N_32
REMARK   11  A    between atoms: N_32  and  C_33
REMARK   12  A    between atoms: C_33  and  C_34
REMARK                            x       y       z     vdW  Elec       q    Type
REMARK                         _______ _______ _______ _____ _____    ______ ____
ROOT
ATOM      1  C   UNL     1      -3.443   5.881   7.116  0.00  0.00    +0.281 C 
ATOM      2  O   UNL     1      -2.634   6.644   6.623  0.00  0.00    -0.267 OA
ATOM      3  N   UNL     1      -3.643   4.666   6.569  0.00  0.00    -0.229 N 
ATOM      4  H   UNL     1      -4.375   3.976   7.015  0.00  0.00    +0.173 HD
ENDROOT
BRANCH   1  14
ATOM      5  N   UNL     1      -5.779   5.745   9.886  0.00  0.00    -0.228 N 
ATOM      6  C   UNL     1      -5.698   6.915  10.551  0.00  0.00    +0.275 A 
ATOM      7  O   UNL     1      -6.388   7.124  11.532  0.00  0.00    -0.266 OA
ATOM      8  C   UNL     1      -4.757   7.934  10.064  0.00  0.00    +0.050 A 
ATOM      9  C   UNL     1      -4.599   9.172  10.678  0.00  0.00    +0.014 A 
ATOM     10  C   UNL     1      -3.694  10.073  10.158  0.00  0.00    +0.001 A 
ATOM     11  C   UNL     1      -2.943   9.757   9.033  0.00  0.00    +0.001 A 
ATOM     12  C   UNL     1      -3.086   8.535   8.410  0.00  0.00    +0.011 A 
ATOM     13  C   UNL     1      -3.989   7.609   8.921  0.00  0.00    +0.020 A 
ATOM     14  C   UNL     1      -4.205   6.286   8.313  0.00  0.00    +0.155 A 
ATOM     15  N   UNL     1      -5.079   5.470   8.851  0.00  0.00    -0.163 NA
BRANCH   5  16
ATOM     16  C   UNL     1      -6.718   4.733  10.376  0.00  0.00    +0.147 C 
BRANCH  16  17
ATOM     17  C   UNL     1      -8.077   4.930   9.703  0.00  0.00    +0.023 C 
BRANCH  17  18
ATOM     18  C   UNL     1      -9.058   3.873  10.215  0.00  0.00    +0.002 C 
BRANCH  18  20
ATOM     19  C   UNL     1     -11.399   3.014  10.054  0.00  0.00    +0.004 C 
ATOM     20  C   UNL     1     -10.418   4.071   9.542  0.00  0.00    -0.003 C 
ENDBRANCH  18  20
ENDBRANCH  17  18
ENDBRANCH  16  17
ENDBRANCH   5  16
ENDBRANCH   1  14
BRANCH   3  21
ATOM     21  N   UNL     1      -2.919   4.281   5.432  0.00  0.00    -0.230 N 
ATOM     22  C   UNL     1      -3.120   3.066   4.885  0.00  0.00    +0.260 C 
ATOM     23  O   UNL     1      -3.928   2.303   5.378  0.00  0.00    -0.269 OA
ATOM     24  H   UNL     1      -2.188   4.971   4.987  0.00  0.00    +0.173 HD
BRANCH  22  25
ATOM     25  C   UNL     1      -2.356   2.660   3.686  0.00  0.00    +0.038 A 
ATOM     26  C   UNL     1      -2.561   1.402   3.117  0.00  0.00    +0.015 A 
ATOM     27  C   UNL     1      -1.846   1.030   1.998  0.00  0.00    +0.029 A 
ATOM     28  C   UNL     1      -0.927   1.900   1.439  0.00  0.00    +0.105 A 
ATOM     29  C   UNL     1      -0.715   3.146   2.002  0.00  0.00    +0.029 A 
ATOM     30  C   UNL     1      -1.427   3.533   3.118  0.00  0.00    +0.015 A 
BRANCH  28  31
ATOM     31  S   UNL     1      -0.017   1.417   0.010  0.00  0.00    +0.059 S 
ATOM     32  O   UNL     1       0.002  -0.004   0.002  0.00  0.00    -0.153 OA
ATOM     33  O   UNL     1       1.172   2.195   0.003  0.00  0.00    -0.153 OA
BRANCH  31  34
ATOM     34  N   UNL     1      -0.897   1.885  -1.312  0.00  0.00    -0.178 NA
ATOM     35  H   UNL     1      -1.442   1.126  -1.892  0.00  0.00    +0.149 HD
BRANCH  34  36
ATOM     36  C   UNL     1      -1.125   3.309  -1.574  0.00  0.00    +0.194 C 
BRANCH  36  37
ATOM     37  C   UNL     1      -1.603   3.484  -2.955  0.00  0.00    -0.089 C 
ATOM     38  C   UNL     1      -1.984   3.623  -4.056  0.00  0.00    +0.005 C 
ENDBRANCH  36  37
ENDBRANCH  34  36
ENDBRANCH  31  34
ENDBRANCH  28  31
ENDBRANCH  22  25
ENDBRANCH   3  21
TORSDOF 11
