REMARK  Name = ZINC40317734
REMARK  11 active torsions:
REMARK  status: ('A' for Active; 'I' for Inactive)
REMARK    1  A    between atoms: C_1  and  C_2
REMARK    2  A    between atoms: C_4  and  C_32
REMARK    3  A    between atoms: C_6  and  O_8
REMARK    4  A    between atoms: O_8  and  C_9
REMARK    5  A    between atoms: C_9  and  C_10
REMARK    6  A    between atoms: C_10  and  C_12
REMARK    7  A    between atoms: C_10  and  O_31
REMARK    8  A    between atoms: C_12  and  N_13
REMARK    9  A    between atoms: N_13  and  C_14
REMARK   10  A    between atoms: N_13  and  C_23
REMARK   11  A    between atoms: C_14  and  C_15
REMARK                            x       y       z     vdW  Elec       q    Type
REMARK                         _______ _______ _______ _____ _____    ______ ____
ROOT
ATOM      1  N   UNL     1      -1.537  -2.385   6.949  0.00  0.00    +0.387 N 
ATOM      2  H   UNL     1      -2.252  -3.096   6.952  0.00  0.00    -0.081 HD
ENDROOT
BRANCH   1   3
ATOM      3  C   UNL     1      -0.500  -2.737   5.970  0.00  0.00    -0.045 C 
ATOM      4  C   UNL     1       0.234  -4.009   6.425  0.00  0.00    +0.009 C 
ATOM      5  C   UNL     1       1.520  -4.205   5.585  0.00  0.00    +0.164 C 
ATOM      6  S   UNL     1       1.965  -2.482   5.119  0.00  0.00    -0.033 S 
ATOM      7  O   UNL     1       1.898  -2.354   3.705  0.00  0.00    -0.174 OA
ATOM      8  O   UNL     1       3.156  -2.113   5.799  0.00  0.00    -0.174 OA
ATOM      9  C   UNL     1       0.542  -1.586   5.870  0.00  0.00    +0.151 C 
ENDBRANCH   1   3
BRANCH   1  10
ATOM     10  C   UNL     1      -2.133  -1.092   6.588  0.00  0.00    -0.043 C 
BRANCH  10  11
ATOM     11  C   UNL     1      -2.918  -1.239   5.283  0.00  0.00    +0.135 C 
BRANCH  11  12
ATOM     12  O   UNL     1      -2.012  -1.488   4.207  0.00  0.00    -0.390 OA
ATOM     13  H   UNL     1      -1.321  -0.818   4.112  0.00  0.00    +0.210 HD
ENDBRANCH  11  12
BRANCH  11  14
ATOM     14  C   UNL     1      -3.696   0.049   5.008  0.00  0.00    +0.258 C 
BRANCH  14  15
ATOM     15  O   UNL     1      -4.519  -0.129   3.853  0.00  0.00    -0.489 OA
BRANCH  15  21
ATOM     16  C   UNL     1      -5.966   4.476   4.578  0.00  0.00    +0.044 C 
ATOM     17  C   UNL     1      -6.013   3.188   3.797  0.00  0.00    -0.047 A 
ATOM     18  C   UNL     1      -6.832   3.082   2.688  0.00  0.00    +0.007 A 
ATOM     19  C   UNL     1      -6.878   1.902   1.969  0.00  0.00    -0.047 A 
ATOM     20  C   UNL     1      -6.104   0.825   2.357  0.00  0.00    +0.049 A 
ATOM     21  C   UNL     1      -5.281   0.929   3.469  0.00  0.00    +0.121 A 
ATOM     22  C   UNL     1      -5.233   2.116   4.186  0.00  0.00    +0.049 A 
ATOM     23  C   UNL     1      -7.772   1.790   0.761  0.00  0.00    +0.044 C 
ENDBRANCH  15  21
ENDBRANCH  14  15
ENDBRANCH  11  14
ENDBRANCH  10  11
ENDBRANCH   1  10
BRANCH   1  24
ATOM     24  C   UNL     1      -0.935  -2.290   8.286  0.00  0.00    -0.041 C 
BRANCH  24  25
ATOM     25  C   UNL     1      -1.500  -3.373   9.169  0.00  0.00    -0.046 A 
ATOM     26  C   UNL     1      -2.867  -3.560   9.244  0.00  0.00    +0.004 A 
ATOM     27  C   UNL     1      -3.386  -4.553  10.053  0.00  0.00    +0.020 A 
ATOM     28  C   UNL     1      -2.536  -5.360  10.789  0.00  0.00    +0.042 A 
ATOM     29  C   UNL     1      -1.168  -5.173  10.714  0.00  0.00    +0.040 A 
ATOM     30  C   UNL     1      -0.649  -4.183   9.900  0.00  0.00    +0.044 A 
ATOM     31 CL   UNL     1       1.069  -3.951   9.801  0.00  0.00    -0.083 Cl
ATOM     32 CL   UNL     1      -3.188  -6.607  11.806  0.00  0.00    -0.083 Cl
ENDBRANCH  24  25
ENDBRANCH   1  24
TORSDOF 9
