REMARK  Name = ZINC39655884
REMARK  10 active torsions:
REMARK  status: ('A' for Active; 'I' for Inactive)
REMARK    1  A    between atoms: C_1  and  C_2
REMARK    2  A    between atoms: C_8  and  C_11
REMARK    3  A    between atoms: C_11  and  C_12
REMARK    4  A    between atoms: C_12  and  N_13
REMARK    5  A    between atoms: C_14  and  C_16
REMARK    6  A    between atoms: C_27  and  C_29
REMARK    7  A    between atoms: C_32  and  O_37
REMARK    8  A    between atoms: C_34  and  O_35
REMARK    9  A    between atoms: O_35  and  C_36
REMARK   10  A    between atoms: O_37  and  C_38
REMARK                            x       y       z     vdW  Elec       q    Type
REMARK                         _______ _______ _______ _____ _____    ______ ____
ROOT
ATOM      1  C   UNL     1       4.619  -0.110  -7.498  0.00  0.00    +0.100 C 
ATOM      2  C   UNL     1       4.720   0.718  -8.799  0.00  0.00    +0.121 C 
ATOM      3  N   UNL     1       5.636  -0.059  -9.667  0.00  0.00    -0.296 N 
ATOM      4  C   UNL     1       5.257  -1.473  -9.429  0.00  0.00    +0.115 C 
ATOM      5  C   UNL     1       4.971  -1.547  -7.916  0.00  0.00    -0.004 C 
ATOM      6  C   UNL     1       3.793  -2.479  -7.648  0.00  0.00    -0.010 C 
ATOM      7  C   UNL     1       4.188  -3.912  -8.017  0.00  0.00    -0.082 C 
ATOM      8  N   UNL     1       5.352  -4.321  -7.223  0.00  0.00    +0.379 N 
ATOM      9  C   UNL     1       6.507  -3.478  -7.556  0.00  0.00    -0.082 C 
ATOM     10  C   UNL     1       6.210  -2.027  -7.167  0.00  0.00    -0.010 C 
ATOM     11  C   UNL     1       6.596   0.412 -10.487  0.00  0.00    +0.250 C 
ATOM     12  O   UNL     1       6.855   1.600 -10.500  0.00  0.00    -0.270 OA
ATOM     13  H   UNL     1       5.139  -4.225  -6.241  0.00  0.00    -0.086 HD
ATOM     14  H   UNL     1       5.572  -5.285  -7.423  0.00  0.00    -0.086 HD
ENDROOT
BRANCH  11  15
ATOM     15  C   UNL     1       7.332  -0.512 -11.366  0.00  0.00    +0.079 A 
ATOM     16  C   UNL     1       6.681  -1.614 -11.930  0.00  0.00    +0.020 A 
ATOM     17  C   UNL     1       7.372  -2.474 -12.751  0.00  0.00    +0.046 A 
ATOM     18  C   UNL     1       8.718  -2.253 -13.024  0.00  0.00    +0.124 A 
ATOM     19  C   UNL     1       9.374  -1.163 -12.471  0.00  0.00    +0.092 A 
ATOM     20  C   UNL     1       8.688  -0.287 -11.647  0.00  0.00    +0.136 A 
BRANCH  20  21
ATOM     21  O   UNL     1       9.326   0.782 -11.109  0.00  0.00    -0.494 OA
ATOM     22  C   UNL     1      10.707   0.948 -11.440  0.00  0.00    +0.277 C 
ENDBRANCH  20  21
BRANCH  18  23
ATOM     23  O   UNL     1       9.393  -3.107 -13.835  0.00  0.00    -0.495 OA
ATOM     24  C   UNL     1       8.658  -4.208 -14.372  0.00  0.00    +0.277 C 
ENDBRANCH  18  23
ENDBRANCH  11  15
BRANCH   1  26
ATOM     25  N   UNL     1       2.991  -0.333  -5.649  0.00  0.00    -0.315 N 
ATOM     26  C   UNL     1       3.217  -0.052  -6.947  0.00  0.00    +0.218 C 
ATOM     27  O   UNL     1       2.292   0.248  -7.673  0.00  0.00    -0.275 OA
ATOM     28  H   UNL     1       3.731  -0.573  -5.069  0.00  0.00    +0.149 HD
BRANCH  25  29
ATOM     29  C   UNL     1       1.628  -0.277  -5.114  0.00  0.00    +0.109 C 
BRANCH  29  30
ATOM     30  C   UNL     1       1.649  -0.637  -3.627  0.00  0.00    +0.056 C 
BRANCH  30  38
ATOM     31  C   UNL     1      -1.889  -5.121  -4.064  0.00  0.00    +0.044 C 
ATOM     32  C   UNL     1      -1.882  -3.719  -3.513  0.00  0.00    -0.050 A 
ATOM     33  C   UNL     1      -3.016  -3.218  -2.889  0.00  0.00    +0.005 A 
ATOM     34  C   UNL     1      -3.031  -1.939  -2.379  0.00  0.00    +0.026 A 
ATOM     35  C   UNL     1      -1.899  -1.138  -2.489  0.00  0.00    +0.047 A 
ATOM     36  N   UNL     1      -1.605   0.148  -2.093  0.00  0.00    -0.360 N 
ATOM     37  C   UNL     1      -0.322   0.463  -2.451  0.00  0.00    +0.087 A 
ATOM     38  C   UNL     1       0.248  -0.579  -3.076  0.00  0.00    -0.021 A 
ATOM     39  C   UNL     1      -0.751  -1.650  -3.122  0.00  0.00    +0.003 A 
ATOM     40  C   UNL     1      -0.757  -2.951  -3.627  0.00  0.00    +0.013 A 
ATOM     41  H   UNL     1      -2.216   0.742  -1.630  0.00  0.00    +0.165 HD
ENDBRANCH  30  38
ENDBRANCH  29  30
ENDBRANCH  25  29
ENDBRANCH   1  26
TORSDOF 7
