REMARK  Name = ZINC05318167
REMARK  6 active torsions:
REMARK  status: ('A' for Active; 'I' for Inactive)
REMARK    1  A    between atoms: C_1  and  C_2
REMARK    2  A    between atoms: N_4  and  C_18
REMARK    3  A    between atoms: C_8  and  N_9
REMARK    4  A    between atoms: N_9  and  N_10
REMARK    5  A    between atoms: N_10  and  C_11
REMARK    6  A    between atoms: N_10  and  C_12
REMARK                            x       y       z     vdW  Elec       q    Type
REMARK                         _______ _______ _______ _____ _____    ______ ____
ROOT
ATOM      1  C   UNL     1      -0.018   1.503   0.010  0.00  0.00    +0.068 C 
ATOM      2  C   UNL     1       0.002  -0.004   0.002  0.00  0.00    +0.070 C 
ATOM      3  N   UNL     1       0.008  -0.765  -1.049  0.00  0.00    -0.176 NA
ATOM      4  N   UNL     1       0.029  -2.115  -0.698  0.00  0.00    -0.156 N 
ATOM      5  C   UNL     1       0.036  -2.244   0.644  0.00  0.00    +0.273 C 
ATOM      6  O   UNL     1       0.054  -3.285   1.280  0.00  0.00    -0.268 OA
ATOM      7  C   UNL     1       0.025  -0.879   1.184  0.00  0.00    +0.076 C 
ATOM      8  C   UNL     1       0.033  -0.499   2.515  0.00  0.00    +0.102 C 
ENDROOT
BRANCH   4   9
ATOM      9  C   UNL     1       0.040  -3.180  -1.607  0.00  0.00    +0.060 A 
ATOM     10  C   UNL     1       0.054  -4.489  -1.145  0.00  0.00    +0.025 A 
ATOM     11  C   UNL     1       0.064  -5.538  -2.044  0.00  0.00    +0.002 A 
ATOM     12  C   UNL     1       0.061  -5.285  -3.404  0.00  0.00    +0.000 A 
ATOM     13  C   UNL     1       0.047  -3.982  -3.867  0.00  0.00    +0.002 A 
ATOM     14  C   UNL     1       0.031  -2.929  -2.973  0.00  0.00    +0.025 A 
ENDBRANCH   4   9
BRANCH   8  15
ATOM     15  N   UNL     1       0.055  -1.436   3.484  0.00  0.00    -0.271 N 
ATOM     16  H   UNL     1       0.065  -2.377   3.248  0.00  0.00    +0.169 HD
BRANCH  15  17
ATOM     17  N   UNL     1       0.062  -1.051   4.831  0.00  0.00    -0.257 N 
ATOM     18  C   UNL     1      -1.165  -0.551   5.457  0.00  0.00    +0.153 C 
BRANCH  17  19
ATOM     19  C   UNL     1       1.239  -1.145   5.577  0.00  0.00    +0.047 A 
ATOM     20  C   UNL     1       2.404  -1.613   4.984  0.00  0.00    +0.025 A 
ATOM     21  C   UNL     1       3.566  -1.704   5.725  0.00  0.00    +0.002 A 
ATOM     22  C   UNL     1       3.570  -1.330   7.056  0.00  0.00    +0.000 A 
ATOM     23  C   UNL     1       2.412  -0.863   7.650  0.00  0.00    +0.002 A 
ATOM     24  C   UNL     1       1.248  -0.763   6.913  0.00  0.00    +0.025 A 
ENDBRANCH  17  19
ENDBRANCH  15  17
ENDBRANCH   8  15
TORSDOF 4
