REMARK  Name = ZINC16715578
REMARK  10 active torsions:
REMARK  status: ('A' for Active; 'I' for Inactive)
REMARK    1  A    between atoms: C_1  and  C_2
REMARK    2  A    between atoms: C_3  and  C_34
REMARK    3  A    between atoms: N_9  and  C_31
REMARK    4  A    between atoms: C_10  and  S_12
REMARK    5  A    between atoms: S_12  and  C_13
REMARK    6  A    between atoms: C_13  and  C_15
REMARK    7  A    between atoms: C_13  and  C_16
REMARK    8  A    between atoms: C_28  and  C_29
REMARK    9  A    between atoms: C_28  and  C_30
REMARK   10  A    between atoms: C_31  and  C_32
REMARK                            x       y       z     vdW  Elec       q    Type
REMARK                         _______ _______ _______ _____ _____    ______ ____
ROOT
ATOM      1  C   UNL     1      -0.053   0.091   1.126  0.00  0.00    +0.137 C 
ATOM      2  C   UNL     1       0.720   0.288  -0.180  0.00  0.00    +0.029 C 
ENDROOT
BRANCH   1   3
ATOM      3  C   UNL     1      -1.443  -0.403   0.818  0.00  0.00    +0.234 C 
ATOM      4  O   UNL     1      -2.299   0.379   0.460  0.00  0.00    -0.274 OA
ATOM      5  N   UNL     1      -1.735  -1.713   0.939  0.00  0.00    -0.255 N 
ATOM      6  C   UNL     1      -0.755  -2.640   1.327  0.00  0.00    +0.059 A 
ATOM      7  C   UNL     1       0.580  -2.436   1.029  0.00  0.00    +0.025 A 
ATOM      8  C   UNL     1       1.521  -3.371   1.421  0.00  0.00    +0.002 A 
ATOM      9  C   UNL     1       1.130  -4.506   2.108  0.00  0.00    +0.002 A 
ATOM     10  C   UNL     1      -0.209  -4.714   2.421  0.00  0.00    +0.025 A 
ATOM     11  C   UNL     1      -1.157  -3.782   2.028  0.00  0.00    +0.055 A 
ATOM     12  N   UNL     1      -2.512  -3.972   2.322  0.00  0.00    -0.282 N 
ATOM     13  C   UNL     1      -3.458  -3.232   1.714  0.00  0.00    +0.241 C 
ATOM     14  O   UNL     1      -4.623  -3.384   2.017  0.00  0.00    -0.273 OA
ATOM     15  C   UNL     1      -3.088  -2.217   0.663  0.00  0.00    +0.113 C 
ATOM     16  C   UNL     1      -4.085  -1.057   0.699  0.00  0.00    +0.042 C 
ATOM     17  C   UNL     1      -3.117  -2.877  -0.717  0.00  0.00    +0.042 C 
ATOM     18  H   UNL     1      -2.772  -4.645   2.971  0.00  0.00    +0.155 HD
ENDBRANCH   1   3
BRANCH   1  19
ATOM     19  S   UNL     1      -0.155   1.667   2.010  0.00  0.00    -0.075 S 
BRANCH  19  29
ATOM     20  C   UNL     1       6.301   3.512   3.852  0.00  0.00    +0.045 C 
ATOM     21  C   UNL     1       5.654   2.364   3.120  0.00  0.00    -0.026 A 
ATOM     22  C   UNL     1       6.400   1.359   2.640  0.00  0.00    -0.008 A 
ATOM     23  S   UNL     1       5.202   0.280   1.879  0.00  0.00    -0.073 S 
ATOM     24  C   UNL     1       3.732   1.211   2.228  0.00  0.00    +0.117 A 
ATOM     25  C   UNL     1       4.214   2.334   2.926  0.00  0.00    +0.075 A 
ATOM     26  C   UNL     1       3.224   3.279   3.343  0.00  0.00    +0.263 A 
ATOM     27  O   UNL     1       3.548   4.283   3.954  0.00  0.00    -0.267 OA
ATOM     28  N   UNL     1       1.932   3.049   3.047  0.00  0.00    -0.283 N 
ATOM     29  C   UNL     1       1.551   1.928   2.368  0.00  0.00    +0.174 A 
ATOM     30  N   UNL     1       2.441   1.041   1.973  0.00  0.00    -0.216 NA
ATOM     31  C   UNL     1       7.895   1.183   2.724  0.00  0.00    +0.052 C 
BRANCH  28  32
ATOM     32  C   UNL     1       0.915   4.017   3.465  0.00  0.00    +0.154 C 
BRANCH  32  33
ATOM     33  C   UNL     1       0.414   3.656   4.840  0.00  0.00    -0.013 C 
ATOM     34  C   UNL     1       0.455   4.540   5.805  0.00  0.00    +0.005 C 
ENDBRANCH  32  33
ENDBRANCH  28  32
ENDBRANCH  19  29
ENDBRANCH   1  19
TORSDOF 5
