REMARK  Name = ZINC11355684
REMARK  8 active torsions:
REMARK  status: ('A' for Active; 'I' for Inactive)
REMARK    1  A    between atoms: C_1  and  C_2
REMARK    2  A    between atoms: C_6  and  N_8
REMARK    3  A    between atoms: C_10  and  C_15
REMARK    4  A    between atoms: C_21  and  S_23
REMARK    5  A    between atoms: S_23  and  C_24
REMARK    6  A    between atoms: C_24  and  C_25
REMARK    7  A    between atoms: C_25  and  C_26
REMARK    8  A    between atoms: C_26  and  C_27
REMARK                            x       y       z     vdW  Elec       q    Type
REMARK                         _______ _______ _______ _____ _____    ______ ____
ROOT
ATOM      1  C   UNL     1      -0.011   1.199   0.025  0.00  0.00    +0.224 C 
ATOM      2  O   UNL     1       0.005  -0.014   0.033  0.00  0.00    -0.275 OA
ATOM      3  N   UNL     1       1.146   1.888   0.013  0.00  0.00    -0.263 N 
ATOM      4  C   UNL     1       2.362   1.208   0.011  0.00  0.00    +0.189 A 
ATOM      5  N   UNL     1       2.609  -0.091   0.024  0.00  0.00    -0.125 NA
ATOM      6  N   UNL     1       3.785  -0.548   0.015  0.00  0.00    -0.133 NA
ATOM      7  C   UNL     1       4.845   0.247   0.003  0.00  0.00    +0.160 A 
ATOM      8  S   UNL     1       4.036   1.844  -0.004  0.00  0.00    -0.024 S 
ATOM      9  H   UNL     1       1.133   2.858   0.007  0.00  0.00    +0.157 HD
ENDROOT
BRANCH   1  12
ATOM     10  N   UNL     1      -3.541   1.574   0.868  0.00  0.00    -0.271 N 
ATOM     11  C   UNL     1      -2.513   0.945   0.030  0.00  0.00    +0.127 C 
ATOM     12  C   UNL     1      -1.327   1.934   0.022  0.00  0.00    +0.102 C 
ATOM     13  C   UNL     1      -1.540   2.693   1.352  0.00  0.00    +0.110 C 
ATOM     14  C   UNL     1      -3.021   2.555   1.625  0.00  0.00    +0.221 C 
ATOM     15  O   UNL     1      -3.648   3.232   2.412  0.00  0.00    -0.275 OA
BRANCH  10  21
ATOM     16  C   UNL     1      -8.045   2.026   2.787  0.00  0.00    +0.044 C 
ATOM     17  C   UNL     1      -7.095   1.403   1.797  0.00  0.00    -0.049 A 
ATOM     18  C   UNL     1      -7.556   0.461   0.895  0.00  0.00    +0.003 A 
ATOM     19  C   UNL     1      -6.687  -0.112  -0.015  0.00  0.00    +0.002 A 
ATOM     20  C   UNL     1      -5.356   0.255  -0.026  0.00  0.00    +0.023 A 
ATOM     21  C   UNL     1      -4.890   1.200   0.877  0.00  0.00    +0.037 A 
ATOM     22  C   UNL     1      -5.763   1.770   1.794  0.00  0.00    +0.027 A 
ENDBRANCH  10  21
ENDBRANCH   1  12
BRANCH   7  23
ATOM     23  S   UNL     1       6.561  -0.154  -0.006  0.00  0.00    -0.097 S 
BRANCH  23  24
ATOM     24  C   UNL     1       6.588  -1.968   0.008  0.00  0.00    +0.077 C 
BRANCH  24  25
ATOM     25  C   UNL     1       8.038  -2.456   0.002  0.00  0.00    +0.016 C 
BRANCH  25  26
ATOM     26  C   UNL     1       8.061  -3.986   0.013  0.00  0.00    +0.036 C 
BRANCH  26  27
ATOM     27  C   UNL     1       9.489  -4.467   0.007  0.00  0.00    -0.047 A 
ATOM     28  C   UNL     1      10.135  -4.702  -1.192  0.00  0.00    +0.003 A 
ATOM     29  C   UNL     1      11.447  -5.138  -1.198  0.00  0.00    +0.000 A 
ATOM     30  C   UNL     1      12.109  -5.350  -0.003  0.00  0.00    +0.000 A 
ATOM     31  C   UNL     1      11.462  -5.120   1.196  0.00  0.00    +0.000 A 
ATOM     32  C   UNL     1      10.152  -4.678   1.202  0.00  0.00    +0.003 A 
ENDBRANCH  26  27
ENDBRANCH  25  26
ENDBRANCH  24  25
ENDBRANCH  23  24
ENDBRANCH   7  23
TORSDOF 7
