REMARK  Name = ZINC35938511
REMARK  8 active torsions:
REMARK  status: ('A' for Active; 'I' for Inactive)
REMARK    1  A    between atoms: C_1  and  C_2
REMARK    2  A    between atoms: C_7  and  C_8
REMARK    3  A    between atoms: N_17  and  C_18
REMARK    4  A    between atoms: C_18  and  C_19
REMARK    5  A    between atoms: C_25  and  C_28
REMARK    6  A    between atoms: C_29  and  C_31
REMARK    7  A    between atoms: C_31  and  S_32
REMARK    8  A    between atoms: S_32  and  C_33
REMARK                            x       y       z     vdW  Elec       q    Type
REMARK                         _______ _______ _______ _____ _____    ______ ____
ROOT
ATOM      1  C   UNL     1       2.623  -2.001   4.221  0.00  0.00    +0.199 C 
ATOM      2  O   UNL     1       1.935  -2.438   5.120  0.00  0.00    -0.278 OA
ATOM      3  N   UNL     1       3.914  -2.375   4.118  0.00  0.00    -0.300 N 
ATOM      4  C   UNL     1       4.761  -1.850   3.038  0.00  0.00    +0.126 C 
ATOM      5  C   UNL     1       5.363  -3.032   2.269  0.00  0.00    +0.127 C 
ATOM      6  N   UNL     1       5.949  -3.972   3.234  0.00  0.00    -0.295 N 
ATOM      7  C   UNL     1       5.102  -4.497   4.314  0.00  0.00    +0.090 C 
ATOM      8  C   UNL     1       4.501  -3.311   5.088  0.00  0.00    +0.130 C 
ATOM      9  C   UNL     1       3.981  -5.351   3.718  0.00  0.00    +0.029 C 
ATOM     10  C   UNL     1       7.240  -4.346   3.131  0.00  0.00    +0.226 C 
ATOM     11  O   UNL     1       7.712  -5.122   3.934  0.00  0.00    -0.275 OA
ENDROOT
BRANCH   1  12
ATOM     12  C   UNL     1       2.035  -1.041   3.220  0.00  0.00    +0.020 C 
BRANCH  12  21
ATOM     13  C   UNL     1       0.025   0.045   2.504  0.00  0.00    -0.005 C 
ATOM     14  C   UNL     1      -1.408   0.381   2.904  0.00  0.00    -0.047 A 
ATOM     15  C   UNL     1      -2.385   0.814   2.011  0.00  0.00    +0.010 A 
ATOM     16  C   UNL     1      -3.634   1.088   2.455  0.00  0.00    +0.045 A 
ATOM     17  S   UNL     1      -3.490   0.739   4.202  0.00  0.00    -0.101 S 
ATOM     18  C   UNL     1      -1.786   0.260   4.208  0.00  0.00    -0.010 A 
ATOM     19  C   UNL     1      -0.922  -0.178   5.345  0.00  0.00    +0.024 C 
ATOM     20  C   UNL     1       0.538  -0.138   4.860  0.00  0.00    -0.072 C 
ATOM     21  N   UNL     1       0.625  -0.795   3.549  0.00  0.00    +0.393 N 
ATOM     22  H   UNL     1       0.135  -1.676   3.587  0.00  0.00    -0.080 HD
BRANCH  13  29
ATOM     23  C   UNL     1      -0.018   1.503   0.010  0.00  0.00    +0.044 C 
ATOM     24  C   UNL     1       0.002  -0.004   0.002  0.00  0.00    -0.049 A 
ATOM     25  C   UNL     1       0.006  -0.689  -1.199  0.00  0.00    +0.003 A 
ATOM     26  C   UNL     1       0.025  -2.071  -1.207  0.00  0.00    +0.000 A 
ATOM     27  C   UNL     1       0.040  -2.768  -0.013  0.00  0.00    +0.000 A 
ATOM     28  C   UNL     1       0.037  -2.084   1.188  0.00  0.00    +0.002 A 
ATOM     29  C   UNL     1       0.023  -0.702   1.195  0.00  0.00    -0.054 A 
ENDBRANCH  13  29
ENDBRANCH  12  21
ENDBRANCH   1  12
BRANCH  10  30
ATOM     30  C   UNL     1       8.096  -3.799   2.018  0.00  0.00    +0.170 C 
BRANCH  30  31
ATOM     31  S   UNL     1       9.770  -4.486   2.150  0.00  0.00    -0.116 S 
BRANCH  31  32
ATOM     32  C   UNL     1      10.636  -3.760   0.798  0.00  0.00    +0.008 A 
ATOM     33  C   UNL     1       9.984  -2.877  -0.053  0.00  0.00    +0.015 A 
ATOM     34  C   UNL     1      10.665  -2.310  -1.112  0.00  0.00    +0.001 A 
ATOM     35  C   UNL     1      11.996  -2.621  -1.326  0.00  0.00    +0.000 A 
ATOM     36  C   UNL     1      12.648  -3.501  -0.481  0.00  0.00    +0.001 A 
ATOM     37  C   UNL     1      11.975  -4.066   0.584  0.00  0.00    +0.015 A 
ENDBRANCH  31  32
ENDBRANCH  30  31
ENDBRANCH  10  30
TORSDOF 6
