REMARK  Name = ZINC02624821
REMARK  11 active torsions:
REMARK  status: ('A' for Active; 'I' for Inactive)
REMARK    1  A    between atoms: C_1  and  C_2
REMARK    2  A    between atoms: C_2  and  N_3
REMARK    3  A    between atoms: N_3  and  C_4
REMARK    4  A    between atoms: N_3  and  S_6
REMARK    5  A    between atoms: C_4  and  C_5
REMARK    6  A    between atoms: S_6  and  C_9
REMARK    7  A    between atoms: C_12  and  C_38
REMARK    8  A    between atoms: C_13  and  N_15
REMARK    9  A    between atoms: C_18  and  N_31
REMARK   10  A    between atoms: C_19  and  C_21
REMARK   11  A    between atoms: C_21  and  C_23
REMARK                            x       y       z     vdW  Elec       q    Type
REMARK                         _______ _______ _______ _____ _____    ______ ____
ROOT
ATOM      1  N   UNL     1       4.484   0.366  -4.282  0.00  0.00    -0.256 N 
ATOM      2  C   UNL     1       4.165   0.348  -5.609  0.00  0.00    +0.104 A 
ATOM      3  C   UNL     1       4.404   1.460  -6.432  0.00  0.00    +0.092 A 
ATOM      4  C   UNL     1       4.025   1.321  -7.778  0.00  0.00    +0.057 A 
ATOM      5  C   UNL     1       3.450   0.118  -8.168  0.00  0.00    +0.083 A 
ATOM      6  S   UNL     1       3.441  -0.819  -6.651  0.00  0.00    -0.065 S 
ATOM      7  C   UNL     1       5.029   2.624  -5.763  0.00  0.00    +0.264 A 
ATOM      8  O   UNL     1       5.282   3.634  -6.394  0.00  0.00    -0.267 OA
ATOM      9  N   UNL     1       5.316   2.552  -4.452  0.00  0.00    -0.274 N 
ATOM     10  H   UNL     1       5.738   3.340  -4.003  0.00  0.00    +0.173 HD
ATOM     11  C   UNL     1       5.052   1.454  -3.727  0.00  0.00    +0.335 A 
ATOM     12  O   UNL     1       5.330   1.440  -2.543  0.00  0.00    -0.246 OA
ENDROOT
BRANCH   1  17
ATOM     13  C   UNL     1       2.754  -1.999  -2.059  0.00  0.00    +0.107 A 
ATOM     14  C   UNL     1       3.713  -2.987  -1.930  0.00  0.00    +0.029 A 
ATOM     15  C   UNL     1       4.927  -2.865  -2.580  0.00  0.00    +0.007 A 
ATOM     16  C   UNL     1       5.186  -1.755  -3.361  0.00  0.00    -0.026 A 
ATOM     17  C   UNL     1       4.225  -0.761  -3.491  0.00  0.00    +0.057 A 
ATOM     18  C   UNL     1       3.004  -0.889  -2.842  0.00  0.00    +0.055 A 
ATOM     19  C   UNL     1       6.509  -1.623  -4.069  0.00  0.00    +0.046 C 
BRANCH  13  20
ATOM     20  S   UNL     1       1.207  -2.159  -1.229  0.00  0.00    +0.061 S 
ATOM     21  O   UNL     1       1.009  -3.548  -1.005  0.00  0.00    -0.153 OA
ATOM     22  O   UNL     1       0.276  -1.363  -1.949  0.00  0.00    -0.153 OA
BRANCH  20  23
ATOM     23  N   UNL     1       1.377  -1.459   0.262  0.00  0.00    -0.177 NA
BRANCH  23  25
ATOM     24  C   UNL     1       2.369   0.776   0.316  0.00  0.00    +0.022 C 
ATOM     25  C   UNL     1       1.078  -0.035   0.440  0.00  0.00    +0.106 C 
ENDBRANCH  23  25
BRANCH  23  26
ATOM     26  C   UNL     1       1.825  -2.262   1.402  0.00  0.00    +0.106 C 
ATOM     27  C   UNL     1       0.608  -2.765   2.181  0.00  0.00    +0.022 C 
ENDBRANCH  23  26
ENDBRANCH  20  23
ENDBRANCH  13  20
ENDBRANCH   1  17
BRANCH   4  28
ATOM     28  N   UNL     1       4.217   2.350  -8.685  0.00  0.00    -0.356 N 
ATOM     29  H   UNL     1       4.619   3.184  -8.395  0.00  0.00    +0.142 HD
ATOM     30  H   UNL     1       3.949   2.237  -9.611  0.00  0.00    +0.142 HD
ENDBRANCH   4  28
BRANCH   5  31
ATOM     31  C   UNL     1       2.990  -0.266  -9.444  0.00  0.00    +0.204 C 
ATOM     32  O   UNL     1       3.188   0.456 -10.406  0.00  0.00    -0.286 OA
BRANCH  31  33
ATOM     33  C   UNL     1       2.266  -1.544  -9.615  0.00  0.00    +0.061 A 
ATOM     34  C   UNL     1       1.856  -2.273  -8.497  0.00  0.00    +0.053 A 
ATOM     35  C   UNL     1       1.177  -3.463  -8.664  0.00  0.00    +0.124 A 
ATOM     36  C   UNL     1       0.909  -3.940  -9.938  0.00  0.00    +0.041 A 
ATOM     37  C   UNL     1       1.316  -3.226 -11.050  0.00  0.00    +0.042 A 
ATOM     38  C   UNL     1       1.993  -2.030 -10.897  0.00  0.00    +0.134 A 
ATOM     39  F   UNL     1       2.390  -1.333 -11.984  0.00  0.00    -0.205 F 
ATOM     40  F   UNL     1       0.776  -4.168  -7.583  0.00  0.00    -0.205 F 
ENDBRANCH  31  33
ENDBRANCH   5  31
TORSDOF 8
