REMARK  Name = ZINC39665446
REMARK  8 active torsions:
REMARK  status: ('A' for Active; 'I' for Inactive)
REMARK    1  A    between atoms: C_1  and  C_2
REMARK    2  A    between atoms: C_6  and  C_7
REMARK    3  A    between atoms: C_11  and  C_20
REMARK    4  A    between atoms: N_22  and  C_23
REMARK    5  A    between atoms: C_23  and  C_24
REMARK    6  A    between atoms: C_24  and  C_26
REMARK    7  A    between atoms: C_24  and  O_27
REMARK    8  A    between atoms: O_27  and  C_28
REMARK                            x       y       z     vdW  Elec       q    Type
REMARK                         _______ _______ _______ _____ _____    ______ ____
ROOT
ATOM      1  C   UNL     1      -0.093  -0.502   2.250  0.00  0.00    +0.254 C 
ATOM      2  O   UNL     1      -0.021   0.698   2.437  0.00  0.00    -0.269 OA
ATOM      3  N   UNL     1      -0.156  -1.345   3.300  0.00  0.00    -0.296 N 
ATOM      4  C   UNL     1      -0.124  -2.826   3.278  0.00  0.00    +0.121 C 
ATOM      5  C   UNL     1       0.741  -3.216   4.498  0.00  0.00    +0.100 C 
ATOM      6  C   UNL     1       0.639  -2.014   5.452  0.00  0.00    -0.004 C 
ATOM      7  C   UNL     1      -0.265  -0.999   4.737  0.00  0.00    +0.115 C 
ATOM      8  C   UNL     1       2.019  -1.408   5.688  0.00  0.00    -0.010 C 
ATOM      9  C   UNL     1       1.899  -0.251   6.684  0.00  0.00    -0.082 C 
ATOM     10  N   UNL     1       1.337  -0.746   7.946  0.00  0.00    +0.379 N 
ATOM     11  C   UNL     1      -0.026  -1.242   7.727  0.00  0.00    -0.082 C 
ATOM     12  C   UNL     1       0.012  -2.441   6.775  0.00  0.00    -0.010 C 
ATOM     13  H   UNL     1       1.914  -1.495   8.299  0.00  0.00    -0.086 HD
ATOM     14  H   UNL     1       1.316   0.005   8.620  0.00  0.00    -0.086 HD
ENDROOT
BRANCH   1  20
ATOM     15  C   UNL     1      -0.151   1.163  -0.383  0.00  0.00    +0.045 C 
ATOM     16  C   UNL     1      -0.137  -0.343  -0.321  0.00  0.00    -0.031 A 
ATOM     17  C   UNL     1      -0.144  -1.121  -1.453  0.00  0.00    +0.011 A 
ATOM     18  C   UNL     1      -0.129  -2.471  -1.325  0.00  0.00    +0.046 A 
ATOM     19  S   UNL     1      -0.107  -2.728   0.335  0.00  0.00    -0.092 S 
ATOM     20  C   UNL     1      -0.111  -1.031   0.883  0.00  0.00    +0.077 A 
ENDBRANCH   1  20
BRANCH   5  21
ATOM     21  C   UNL     1       0.194  -4.458   5.154  0.00  0.00    +0.218 C 
ATOM     22  O   UNL     1      -0.980  -4.738   5.037  0.00  0.00    -0.275 OA
ATOM     23  N   UNL     1       1.009  -5.256   5.871  0.00  0.00    -0.312 N 
ATOM     24  H   UNL     1       1.948  -5.032   5.965  0.00  0.00    +0.149 HD
BRANCH  23  25
ATOM     25  C   UNL     1       0.477  -6.463   6.509  0.00  0.00    +0.148 C 
BRANCH  25  26
ATOM     26  C   UNL     1       1.602  -7.184   7.254  0.00  0.00    +0.187 C 
ATOM     27  C   UNL     1       1.047  -8.444   7.920  0.00  0.00    +0.053 C 
BRANCH  26  28
ATOM     28  O   UNL     1       2.630  -7.547   6.330  0.00  0.00    -0.488 OA
BRANCH  28  29
ATOM     29  C   UNL     1       3.907  -7.539   6.794  0.00  0.00    +0.121 A 
ATOM     30  C   UNL     1       4.965  -7.747   5.920  0.00  0.00    +0.045 A 
ATOM     31  C   UNL     1       6.263  -7.738   6.394  0.00  0.00    +0.004 A 
ATOM     32  C   UNL     1       6.508  -7.524   7.738  0.00  0.00    +0.000 A 
ATOM     33  C   UNL     1       5.455  -7.317   8.611  0.00  0.00    +0.004 A 
ATOM     34  C   UNL     1       4.156  -7.319   8.141  0.00  0.00    +0.045 A 
ENDBRANCH  28  29
ENDBRANCH  26  28
ENDBRANCH  25  26
ENDBRANCH  23  25
ENDBRANCH   5  21
TORSDOF 6
