REMARK  Name = ZINC12709984
REMARK  12 active torsions:
REMARK  status: ('A' for Active; 'I' for Inactive)
REMARK    1  A    between atoms: C_1  and  C_2
REMARK    2  A    between atoms: C_2  and  N_67
REMARK    3  A    between atoms: C_3  and  C_4
REMARK    4  A    between atoms: C_3  and  N_67
REMARK    5  A    between atoms: C_5  and  C_6
REMARK    6  A    between atoms: C_5  and  N_67
REMARK    7  A    between atoms: C_6  and  N_7
REMARK    8  A    between atoms: N_7  and  C_8
REMARK    9  A    between atoms: C_8  and  C_9
REMARK   10  A    between atoms: N_27  and  C_28
REMARK   11  A    between atoms: C_33  and  O_34
REMARK   12  A    between atoms: O_34  and  C_35
REMARK                            x       y       z     vdW  Elec       q    Type
REMARK                         _______ _______ _______ _____ _____    ______ ____
ROOT
ATOM      1  N   UNL     1      -0.021   0.027  -0.050  0.00  0.00    -0.283 N 
ATOM      2  C   UNL     1      -0.214   1.359  -0.116  0.00  0.00    +0.307 C 
ATOM      3  O   UNL     1       0.740   2.113  -0.112  0.00  0.00    -0.252 OA
ATOM      4  N   UNL     1      -1.465   1.856  -0.194  0.00  0.00    -0.266 N 
ATOM      5  H   UNL     1      -2.223   1.254  -0.255  0.00  0.00    +0.156 HD
ENDROOT
BRANCH   4   6
ATOM      6  C   UNL     1      -1.670   3.243  -0.185  0.00  0.00    +0.077 A 
ATOM      7  C   UNL     1      -0.746   4.086  -0.784  0.00  0.00    +0.027 A 
ATOM      8  C   UNL     1      -0.953   5.452  -0.778  0.00  0.00    +0.002 A 
ATOM      9  C   UNL     1      -2.075   5.983  -0.168  0.00  0.00    +0.004 A 
ATOM     10  C   UNL     1      -2.998   5.149   0.435  0.00  0.00    +0.047 A 
ATOM     11  C   UNL     1      -2.800   3.777   0.430  0.00  0.00    +0.141 A 
BRANCH  11  12
ATOM     12  O   UNL     1      -3.706   2.956   1.023  0.00  0.00    -0.493 OA
ATOM     13  C   UNL     1      -4.840   3.574   1.634  0.00  0.00    +0.277 C 
ENDBRANCH  11  12
ENDBRANCH   4   6
BRANCH   1  14
ATOM     14  C   UNL     1      -1.171  -0.881  -0.055  0.00  0.00    +0.091 C 
BRANCH  14  15
ATOM     15  C   UNL     1      -1.514  -1.261  -1.496  0.00  0.00    -0.060 C 
BRANCH  15  16
ATOM     16  N   UNL     1      -2.733  -2.096  -1.489  0.00  0.00    +0.380 N 
ATOM     17  H   UNL     1      -2.671  -2.771  -0.717  0.00  0.00    -0.082 HD
BRANCH  16  19
ATOM     18  C   UNL     1      -5.141  -2.148  -1.060  0.00  0.00    -0.017 C 
ATOM     19  C   UNL     1      -3.926  -1.247  -1.288  0.00  0.00    -0.082 C 
ENDBRANCH  16  19
BRANCH  16  20
ATOM     20  C   UNL     1      -2.848  -2.835  -2.764  0.00  0.00    -0.082 C 
ATOM     21  C   UNL     1      -1.737  -3.884  -2.827  0.00  0.00    -0.017 C 
ENDBRANCH  16  20
ENDBRANCH  15  16
ENDBRANCH  14  15
ENDBRANCH   1  14
BRANCH   1  22
ATOM     22  C   UNL     1       1.338  -0.513   0.029  0.00  0.00    +0.149 C 
BRANCH  22  23
ATOM     23  C   UNL     1       1.748  -0.635   1.474  0.00  0.00    +0.035 A 
ATOM     24  C   UNL     1       1.584  -1.814   2.126  0.00  0.00    +0.020 A 
ATOM     25  C   UNL     1       1.996  -1.902   3.526  0.00  0.00    +0.003 A 
ATOM     26  C   UNL     1       1.855  -3.094   4.247  0.00  0.00    +0.059 A 
ATOM     27  C   UNL     1       2.248  -3.146   5.568  0.00  0.00    +0.163 A 
ATOM     28  C   UNL     1       2.787  -2.014   6.187  0.00  0.00    +0.164 A 
ATOM     29  C   UNL     1       2.931  -0.832   5.481  0.00  0.00    +0.075 A 
ATOM     30  C   UNL     1       2.538  -0.762   4.151  0.00  0.00    +0.053 A 
ATOM     31  N   UNL     1       2.673   0.409   3.433  0.00  0.00    -0.322 N 
ATOM     32  H   UNL     1       3.046   1.193   3.864  0.00  0.00    +0.169 HD
ATOM     33  C   UNL     1       2.296   0.477   2.144  0.00  0.00    +0.254 A 
ATOM     34  O   UNL     1       2.429   1.528   1.541  0.00  0.00    -0.268 OA
ATOM     35  O   UNL     1       3.182  -2.058   7.488  0.00  0.00    -0.485 OA
ATOM     36  C   UNL     1       2.682  -3.143   8.276  0.00  0.00    +0.270 C 
ATOM     37  C   UNL     1       2.848  -4.439   7.471  0.00  0.00    +0.270 C 
ATOM     38  O   UNL     1       2.101  -4.311   6.257  0.00  0.00    -0.485 OA
ENDBRANCH  22  23
ENDBRANCH   1  22
TORSDOF 9
