REMARK  Name = ZINC31978753
REMARK  1 active torsions:
REMARK  status: ('A' for Active; 'I' for Inactive)
REMARK    1  A    between atoms: C_6  and  C_11
REMARK                            x       y       z     vdW  Elec       q    Type
REMARK                         _______ _______ _______ _____ _____    ______ ____
ROOT
ATOM      1  C   UNL     1       4.831   4.023  -0.025  0.00  0.00    +0.090 A 
ATOM      2  C   UNL     1       6.074   3.494  -0.136  0.00  0.00    +0.121 A 
ATOM      3  N   UNL     1       6.983   4.545  -0.102  0.00  0.00    -0.297 N 
ATOM      4  C   UNL     1       8.362   4.699  -0.166  0.00  0.00    +0.038 A 
ATOM      5  C   UNL     1       8.865   5.938  -0.094  0.00  0.00    +0.027 A 
ATOM      6  S   UNL     1       7.433   6.970   0.067  0.00  0.00    -0.053 S 
ATOM      7  C   UNL     1       6.217   5.672   0.030  0.00  0.00    +0.178 A 
ATOM      8  N   UNL     1       4.954   5.363   0.070  0.00  0.00    -0.221 NA
ATOM      9  C   UNL     1      10.305   6.334  -0.140  0.00  0.00    +0.125 C 
ATOM     10  N   UNL     1      11.124   5.125   0.072  0.00  0.00    -0.311 NA
ATOM     11  C   UNL     1      10.664   4.034  -0.799  0.00  0.00    +0.087 C 
ATOM     12  C   UNL     1       9.309   3.510  -0.316  0.00  0.00    +0.070 C 
ATOM     13  H   UNL     1      12.176   5.349  -0.161  0.00  0.00    +0.122 HD
ENDROOT
BRANCH   1  19
ATOM     14  C   UNL     1      -1.199   1.743   0.017  0.00  0.00    +0.001 A 
ATOM     15  C   UNL     1      -1.239   3.136   0.031  0.00  0.00    +0.001 A 
ATOM     16  C   UNL     1      -0.092   3.870   0.024  0.00  0.00    +0.008 A 
ATOM     17  C   UNL     1       1.152   3.215   0.009  0.00  0.00    -0.017 A 
ATOM     18  C   UNL     1       2.354   3.941  -0.000  0.00  0.00    +0.018 A 
ATOM     19  C   UNL     1       3.558   3.262  -0.016  0.00  0.00    +0.002 A 
ATOM     20  C   UNL     1       3.586   1.857  -0.023  0.00  0.00    +0.011 A 
ATOM     21  C   UNL     1       2.435   1.138  -0.016  0.00  0.00    +0.009 A 
ATOM     22  C   UNL     1       1.193   1.798   0.000  0.00  0.00    -0.018 A 
ATOM     23  C   UNL     1      -0.013   1.076   0.008  0.00  0.00    +0.008 A 
ENDBRANCH   1  19
TORSDOF 1
