REMARK  Name = ZINC64352978
REMARK  8 active torsions:
REMARK  status: ('A' for Active; 'I' for Inactive)
REMARK    1  A    between atoms: C_1  and  C_2
REMARK    2  A    between atoms: N_4  and  C_5
REMARK    3  A    between atoms: C_5  and  C_7
REMARK    4  A    between atoms: C_5  and  C_17
REMARK    5  A    between atoms: C_7  and  C_8
REMARK    6  A    between atoms: N_19  and  C_20
REMARK    7  A    between atoms: C_20  and  C_21
REMARK    8  A    between atoms: C_21  and  C_22
REMARK                            x       y       z     vdW  Elec       q    Type
REMARK                         _______ _______ _______ _____ _____    ______ ____
ROOT
ATOM      1  C   UNL     1       0.020  -2.136  -1.177  0.00  0.00    +0.163 C 
ENDROOT
BRANCH   1   5
ATOM      2  C   UNL     1      -0.018   1.503   0.010  0.00  0.00    +0.109 C 
ATOM      3  C   UNL     1       0.002  -0.004   0.002  0.00  0.00    +0.211 C 
ATOM      4  O   UNL     1       0.020  -0.616   1.049  0.00  0.00    -0.276 OA
ATOM      5  N   UNL     1       0.000  -0.672  -1.169  0.00  0.00    -0.304 N 
ATOM      6  H   UNL     1      -0.015  -0.182  -2.006  0.00  0.00    +0.149 HD
ENDBRANCH   1   5
BRANCH   1   7
ATOM      7  C   UNL     1       1.264  -2.626  -0.481  0.00  0.00    +0.234 C 
ATOM      8  O   UNL     1       1.862  -1.893   0.279  0.00  0.00    -0.274 OA
ATOM      9  N   UNL     1       1.712  -3.877  -0.703  0.00  0.00    -0.313 N 
ATOM     10  H   UNL     1       1.234  -4.463  -1.310  0.00  0.00    +0.149 HD
BRANCH   9  11
ATOM     11  C   UNL     1       2.921  -4.353  -0.026  0.00  0.00    +0.109 C 
BRANCH  11  12
ATOM     12  C   UNL     1       3.209  -5.795  -0.450  0.00  0.00    +0.054 C 
BRANCH  12  13
ATOM     13  C   UNL     1       4.453  -6.284   0.246  0.00  0.00    -0.041 A 
ATOM     14  C   UNL     1       5.690  -6.103  -0.343  0.00  0.00    +0.053 A 
ATOM     15  C   UNL     1       6.836  -6.551   0.295  0.00  0.00    +0.164 A 
ATOM     16  C   UNL     1       6.739  -7.182   1.529  0.00  0.00    +0.180 A 
ATOM     17  C   UNL     1       5.494  -7.363   2.115  0.00  0.00    +0.086 A 
ATOM     18  C   UNL     1       4.355  -6.909   1.476  0.00  0.00    +0.027 A 
ATOM     19 CL   UNL     1       5.367  -8.154   3.655  0.00  0.00    -0.080 Cl
ATOM     20  O   UNL     1       7.853  -7.623   2.176  0.00  0.00    -0.483 OA
ATOM     21  C   UNL     1       9.042  -7.758   1.391  0.00  0.00    +0.270 C 
ATOM     22  C   UNL     1       9.201  -6.492   0.538  0.00  0.00    +0.270 C 
ATOM     23  O   UNL     1       8.047  -6.369  -0.300  0.00  0.00    -0.485 OA
ENDBRANCH  12  13
ENDBRANCH  11  12
ENDBRANCH   9  11
ENDBRANCH   1   7
BRANCH   1  24
ATOM     24  C   UNL     1      -1.215  -2.667  -0.447  0.00  0.00    +0.065 C 
BRANCH  24  25
ATOM     25  C   UNL     1      -2.455  -2.281  -1.211  0.00  0.00    -0.039 C 
ATOM     26  C   UNL     1      -3.119  -3.034  -2.117  0.00  0.00    -0.001 A 
ATOM     27  C   UNL     1      -2.894  -4.386  -2.643  0.00  0.00    +0.010 A 
ATOM     28  C   UNL     1      -3.750  -4.882  -3.566  0.00  0.00    +0.001 A 
ATOM     29  C   UNL     1      -4.843  -4.139  -4.032  0.00  0.00    +0.002 A 
ATOM     30  C   UNL     1      -5.115  -2.891  -3.596  0.00  0.00    +0.026 A 
ATOM     31  C   UNL     1      -4.282  -2.271  -2.625  0.00  0.00    +0.043 A 
ATOM     32  N   UNL     1      -4.334  -1.091  -2.055  0.00  0.00    -0.380 N 
ATOM     33  C   UNL     1      -3.213  -0.976  -1.115  0.00  0.00    +0.144 C 
ATOM     34  H   UNL     1      -5.004  -0.410  -2.223  0.00  0.00    +0.160 HD
ENDBRANCH  24  25
ENDBRANCH   1  24
TORSDOF 7
