REMARK  Name = ZINC64788143
REMARK  10 active torsions:
REMARK  status: ('A' for Active; 'I' for Inactive)
REMARK    1  A    between atoms: C_1  and  C_2
REMARK    2  A    between atoms: C_2  and  O_3
REMARK    3  A    between atoms: O_3  and  C_4
REMARK    4  A    between atoms: C_8  and  C_11
REMARK    5  A    between atoms: C_9  and  O_10
REMARK    6  A    between atoms: C_16  and  C_23
REMARK    7  A    between atoms: C_18  and  C_21
REMARK    8  A    between atoms: C_18  and  C_22
REMARK    9  A    between atoms: N_31  and  C_36
REMARK   10  A    between atoms: N_34  and  C_35
REMARK                            x       y       z     vdW  Elec       q    Type
REMARK                         _______ _______ _______ _____ _____    ______ ____
ROOT
ATOM      1  C   UNL     1      -4.821  -4.139   0.349  0.00  0.00    +0.200 C 
ATOM      2  C   UNL     1      -4.946  -4.350  -1.143  0.00  0.00    +0.078 A 
ATOM      3  C   UNL     1      -4.514  -3.568  -2.125  0.00  0.00    +0.083 A 
ATOM      4  C   UNL     1      -4.891  -4.235  -3.396  0.00  0.00    +0.089 A 
ATOM      5  C   UNL     1      -5.538  -5.393  -3.050  0.00  0.00    +0.064 A 
ATOM      6  N   UNL     1      -5.568  -5.457  -1.690  0.00  0.00    -0.331 N 
ATOM      7  C   UNL     1      -6.163  -6.523  -0.871  0.00  0.00    +0.064 C 
ATOM      8  C   UNL     1      -6.337  -5.991   0.557  0.00  0.00    +0.189 C 
ATOM      9  O   UNL     1      -5.118  -5.383   0.997  0.00  0.00    -0.363 OA
ATOM     10  C   UNL     1      -7.526  -6.915  -1.444  0.00  0.00    +0.036 C 
ATOM     11  C   UNL     1      -5.237  -7.741  -0.858  0.00  0.00    +0.036 C 
ATOM     12  C   UNL     1      -4.539  -3.598  -4.670  0.00  0.00    +0.266 A 
ATOM     13  O   UNL     1      -4.822  -4.094  -5.744  0.00  0.00    -0.267 OA
ATOM     14  N   UNL     1      -3.877  -2.417  -4.567  0.00  0.00    -0.263 N 
ATOM     15  C   UNL     1      -3.553  -1.845  -3.404  0.00  0.00    +0.332 A 
ATOM     16  O   UNL     1      -2.959  -0.784  -3.451  0.00  0.00    -0.246 OA
ATOM     17  N   UNL     1      -3.829  -2.345  -2.179  0.00  0.00    -0.294 N 
ATOM     18  C   UNL     1      -3.431  -1.639  -0.959  0.00  0.00    +0.154 C 
ATOM     19  C   UNL     1      -3.496  -1.730  -5.804  0.00  0.00    +0.157 C 
ENDROOT
BRANCH   1  24
ATOM     20  C   UNL     1      -1.895  -2.435   2.042  0.00  0.00    +0.162 A 
ATOM     21  C   UNL     1      -0.831  -2.928   1.304  0.00  0.00    +0.049 A 
ATOM     22  C   UNL     1      -1.060  -3.809   0.264  0.00  0.00    +0.004 A 
ATOM     23  C   UNL     1      -2.350  -4.200  -0.043  0.00  0.00    +0.010 A 
ATOM     24  C   UNL     1      -3.416  -3.712   0.688  0.00  0.00    +0.032 A 
ATOM     25  C   UNL     1      -3.193  -2.833   1.736  0.00  0.00    +0.165 A 
BRANCH  25  26
ATOM     26  O   UNL     1      -4.241  -2.356   2.460  0.00  0.00    -0.503 OA
ATOM     27  H   UNL     1      -4.668  -1.580   2.070  0.00  0.00    +0.292 HD
ENDBRANCH  25  26
BRANCH  20  28
ATOM     28  O   UNL     1      -1.672  -1.568   3.065  0.00  0.00    -0.489 OA
BRANCH  28  30
ATOM     29  C   UNL     1      -0.262  -0.229   4.500  0.00  0.00    +0.048 C 
ATOM     30  C   UNL     1      -0.314  -1.203   3.322  0.00  0.00    +0.226 C 
ENDBRANCH  28  30
ENDBRANCH  20  28
ENDBRANCH   1  24
BRANCH   5  31
ATOM     31  C   UNL     1      -6.100  -6.390  -3.982  0.00  0.00    -0.001 A 
ATOM     32  C   UNL     1      -7.194  -6.061  -4.786  0.00  0.00    +0.010 A 
ATOM     33  C   UNL     1      -7.714  -6.997  -5.655  0.00  0.00    +0.001 A 
ATOM     34  C   UNL     1      -7.155  -8.260  -5.732  0.00  0.00    +0.000 A 
ATOM     35  C   UNL     1      -6.071  -8.594  -4.939  0.00  0.00    +0.001 A 
ATOM     36  C   UNL     1      -5.537  -7.665  -4.070  0.00  0.00    +0.010 A 
ENDBRANCH   5  31
TORSDOF 5
