REMARK  Name = ZINC40155560
REMARK  9 active torsions:
REMARK  status: ('A' for Active; 'I' for Inactive)
REMARK    1  A    between atoms: C_1  and  C_2
REMARK    2  A    between atoms: N_7  and  S_9
REMARK    3  A    between atoms: S_9  and  C_12
REMARK    4  A    between atoms: C_15  and  N_21
REMARK    5  A    between atoms: C_16  and  N_18
REMARK    6  A    between atoms: N_21  and  C_22
REMARK    7  A    between atoms: C_22  and  C_23
REMARK    8  A    between atoms: C_23  and  C_24
REMARK    9  A    between atoms: C_27  and  O_30
REMARK                            x       y       z     vdW  Elec       q    Type
REMARK                         _______ _______ _______ _____ _____    ______ ____
ROOT
ATOM      1  C   UNL     1       2.717  -3.441  -0.148  0.00  0.00    +0.108 A 
ATOM      2  C   UNL     1       2.054  -4.389  -0.906  0.00  0.00    +0.030 A 
ATOM      3  C   UNL     1       2.311  -4.496  -2.259  0.00  0.00    +0.027 A 
ATOM      4  C   UNL     1       3.236  -3.650  -2.858  0.00  0.00    +0.058 A 
ATOM      5  C   UNL     1       3.900  -2.699  -2.093  0.00  0.00    +0.149 A 
ATOM      6  C   UNL     1       3.635  -2.594  -0.742  0.00  0.00    +0.063 A 
ENDROOT
BRANCH   1   7
ATOM      7  S   UNL     1       2.387  -3.308   1.578  0.00  0.00    +0.061 S 
ATOM      8  O   UNL     1       3.531  -2.704   2.165  0.00  0.00    -0.153 OA
ATOM      9  O   UNL     1       1.893  -4.573   1.996  0.00  0.00    -0.153 OA
BRANCH   7  15
ATOM     10  C   UNL     1       0.771   1.482   1.114  0.00  0.00    +0.009 C 
ATOM     11  C   UNL     1       0.611  -0.020   0.871  0.00  0.00    +0.002 C 
ATOM     12  C   UNL     1      -0.868  -0.400   0.976  0.00  0.00    +0.006 C 
ATOM     13  C   UNL     1      -1.034  -1.896   0.700  0.00  0.00    +0.017 C 
ATOM     14  C   UNL     1      -0.254  -2.694   1.750  0.00  0.00    +0.109 C 
ATOM     15  N   UNL     1       1.141  -2.232   1.756  0.00  0.00    -0.176 NA
ATOM     16  C   UNL     1       1.409  -0.797   1.922  0.00  0.00    +0.112 C 
ENDBRANCH   7  15
ENDBRANCH   1   7
BRANCH   5  17
ATOM     17  N   UNL     1       4.887  -1.797  -2.727  0.00  0.00    +0.058 N 
ATOM     18  O   UNL     1       5.616  -2.213  -3.597  0.00  0.00    -0.126 OA
ATOM     19  O   UNL     1       4.963  -0.642  -2.375  0.00  0.00    -0.126 OA
ENDBRANCH   5  17
BRANCH   4  20
ATOM     20  N   UNL     1       3.498  -3.756  -4.226  0.00  0.00    -0.342 N 
ATOM     21  H   UNL     1       4.079  -3.111  -4.659  0.00  0.00    +0.146 HD
BRANCH  20  22
ATOM     22  C   UNL     1       2.896  -4.840  -5.005  0.00  0.00    +0.106 C 
BRANCH  22  23
ATOM     23  C   UNL     1       3.341  -4.727  -6.465  0.00  0.00    +0.054 C 
BRANCH  23  24
ATOM     24  C   UNL     1       2.721  -5.843  -7.266  0.00  0.00    -0.046 A 
ATOM     25  C   UNL     1       3.382  -7.051  -7.394  0.00  0.00    +0.007 A 
ATOM     26  C   UNL     1       2.816  -8.074  -8.129  0.00  0.00    +0.045 A 
ATOM     27  C   UNL     1       1.584  -7.890  -8.739  0.00  0.00    +0.117 A 
ATOM     28  C   UNL     1       0.923  -6.677  -8.609  0.00  0.00    +0.045 A 
ATOM     29  C   UNL     1       1.490  -5.658  -7.869  0.00  0.00    +0.007 A 
BRANCH  27  30
ATOM     30  O   UNL     1       1.026  -8.895  -9.463  0.00  0.00    -0.507 OA
ATOM     31  H   UNL     1       0.460  -9.485  -8.946  0.00  0.00    +0.292 HD
ENDBRANCH  27  30
ENDBRANCH  23  24
ENDBRANCH  22  23
ENDBRANCH  20  22
ENDBRANCH   4  20
TORSDOF 8
