REMARK  Name = ZINC38787492
REMARK  6 active torsions:
REMARK  status: ('A' for Active; 'I' for Inactive)
REMARK    1  A    between atoms: C_1  and  N_2
REMARK    2  A    between atoms: C_3  and  C_23
REMARK    3  A    between atoms: C_7  and  S_9
REMARK    4  A    between atoms: S_9  and  C_10
REMARK    5  A    between atoms: C_10  and  C_11
REMARK    6  A    between atoms: C_28  and  O_29
REMARK                            x       y       z     vdW  Elec       q    Type
REMARK                         _______ _______ _______ _____ _____    ______ ____
ROOT
ATOM      1  C   UNL     1      -0.120   1.352   0.120  0.00  0.00    +0.110 C 
ATOM      2  N   UNL     1      -0.005  -0.111   0.042  0.00  0.00    -0.249 NA
ATOM      3  C   UNL     1       0.855  -0.516  -1.099  0.00  0.00    +0.204 C 
ATOM      4  N   UNL     1       1.618  -1.668  -0.601  0.00  0.00    -0.289 N 
ATOM      5  N   UNL     1       1.570  -1.738   0.631  0.00  0.00    -0.184 NA
ATOM      6  C   UNL     1       0.765  -0.645   1.194  0.00  0.00    +0.256 C 
ATOM      7  H   UNL     1       2.097  -2.294  -1.167  0.00  0.00    +0.184 HD
ENDROOT
BRANCH   3   8
ATOM      8  C   UNL     1       0.007  -0.916  -2.279  0.00  0.00    +0.033 A 
ATOM      9  C   UNL     1      -1.283  -1.371  -2.081  0.00  0.00    +0.026 A 
ATOM     10  C   UNL     1      -2.062  -1.738  -3.163  0.00  0.00    +0.018 A 
ATOM     11  C   UNL     1      -1.551  -1.650  -4.446  0.00  0.00    +0.019 A 
ATOM     12  C   UNL     1      -0.263  -1.195  -4.649  0.00  0.00    +0.047 A 
ATOM     13  C   UNL     1       0.518  -0.822  -3.564  0.00  0.00    +0.123 A 
ATOM     14 BR   UNL     1      -3.826  -2.361  -2.889  0.00  0.00    -0.050 Br
BRANCH  13  15
ATOM     15  O   UNL     1       1.785  -0.369  -3.762  0.00  0.00    -0.506 OA
ATOM     16  H   UNL     1       2.446  -1.071  -3.835  0.00  0.00    +0.292 HD
ENDBRANCH  13  15
ENDBRANCH   3   8
BRANCH   6  17
ATOM     17  S   UNL     1      -0.360  -1.281   2.466  0.00  0.00    -0.109 S 
BRANCH  17  18
ATOM     18  C   UNL     1      -1.292  -2.585   1.616  0.00  0.00    +0.146 C 
BRANCH  18  19
ATOM     19  C   UNL     1      -2.276  -3.205   2.574  0.00  0.00    +0.120 A 
ATOM     20  N   UNL     1      -3.069  -4.212   2.122  0.00  0.00    -0.310 N 
ATOM     21  H   UNL     1      -2.988  -4.511   1.203  0.00  0.00    +0.170 HD
ATOM     22  C   UNL     1      -3.969  -4.801   2.943  0.00  0.00    +0.259 A 
ATOM     23  O   UNL     1      -4.684  -5.705   2.551  0.00  0.00    -0.267 OA
ATOM     24  C   UNL     1      -4.049  -4.308   4.326  0.00  0.00    +0.065 A 
ATOM     25  C   UNL     1      -4.942  -4.847   5.250  0.00  0.00    +0.015 A 
ATOM     26  C   UNL     1      -4.975  -4.346   6.533  0.00  0.00    +0.001 A 
ATOM     27  C   UNL     1      -4.127  -3.313   6.910  0.00  0.00    +0.002 A 
ATOM     28  C   UNL     1      -3.238  -2.767   6.012  0.00  0.00    +0.028 A 
ATOM     29  C   UNL     1      -3.185  -3.257   4.705  0.00  0.00    +0.078 A 
ATOM     30  N   UNL     1      -2.321  -2.752   3.790  0.00  0.00    -0.233 NA
ENDBRANCH  18  19
ENDBRANCH  17  18
ENDBRANCH   6  17
TORSDOF 5
