REMARK  Name = ZINC05551269
REMARK  8 active torsions:
REMARK  status: ('A' for Active; 'I' for Inactive)
REMARK    1  A    between atoms: C_1  and  C_2
REMARK    2  A    between atoms: C_2  and  O_3
REMARK    3  A    between atoms: O_3  and  C_4
REMARK    4  A    between atoms: C_6  and  C_11
REMARK    5  A    between atoms: C_9  and  O_10
REMARK    6  A    between atoms: N_17  and  C_18
REMARK    7  A    between atoms: C_20  and  C_25
REMARK    8  A    between atoms: C_23  and  C_24
REMARK                            x       y       z     vdW  Elec       q    Type
REMARK                         _______ _______ _______ _____ _____    ______ ____
ROOT
ATOM      1  C   UNL     1      -2.380   0.984  -1.175  0.00  0.00    +0.028 C 
ATOM      2  C   UNL     1      -2.398  -0.358  -0.969  0.00  0.00    +0.078 C 
ATOM      3  C   UNL     1      -3.550  -1.269  -0.831  0.00  0.00    +0.256 C 
ATOM      4  O   UNL     1      -4.695  -0.861  -0.895  0.00  0.00    -0.269 OA
ATOM      5  N   UNL     1      -3.283  -2.549  -0.638  0.00  0.00    -0.260 N 
ATOM      6  C   UNL     1      -1.980  -2.991  -0.561  0.00  0.00    +0.166 C 
ATOM      7  N   UNL     1      -1.542  -4.215  -0.370  0.00  0.00    -0.225 NA
ATOM      8  S   UNL     1      -1.032  -1.495  -0.784  0.00  0.00    -0.049 S 
ATOM      9  H   UNL     1      -4.011  -3.183  -0.546  0.00  0.00    +0.157 HD
ENDROOT
BRANCH   7  10
ATOM     10  C   UNL     1      -0.201  -4.449  -0.233  0.00  0.00    +0.070 A 
ATOM     11  C   UNL     1       0.559  -3.677   0.648  0.00  0.00    +0.031 A 
ATOM     12  C   UNL     1       1.910  -3.922   0.785  0.00  0.00    -0.048 A 
ATOM     13  C   UNL     1       2.514  -4.921   0.043  0.00  0.00    +0.004 A 
ATOM     14  C   UNL     1       1.768  -5.686  -0.837  0.00  0.00    +0.006 A 
ATOM     15  C   UNL     1       0.415  -5.456  -0.980  0.00  0.00    -0.025 A 
ATOM     16  C   UNL     1      -0.396  -6.289  -1.938  0.00  0.00    +0.046 C 
ATOM     17  C   UNL     1       2.731  -3.095   1.741  0.00  0.00    +0.044 C 
ENDBRANCH   7  10
BRANCH   1  20
ATOM     18  C   UNL     1       0.181   3.698  -1.546  0.00  0.00    +0.162 A 
ATOM     19  C   UNL     1      -1.016   3.058  -1.291  0.00  0.00    +0.057 A 
ATOM     20  C   UNL     1      -1.109   1.669  -1.438  0.00  0.00    -0.020 A 
ATOM     21  C   UNL     1       0.017   0.935  -1.833  0.00  0.00    +0.012 A 
ATOM     22  C   UNL     1       1.206   1.582  -2.085  0.00  0.00    +0.050 A 
ATOM     23  C   UNL     1       1.295   2.960  -1.944  0.00  0.00    +0.158 A 
BRANCH  23  24
ATOM     24  O   UNL     1       2.471   3.592  -2.195  0.00  0.00    -0.503 OA
ATOM     25  H   UNL     1       2.577   3.877  -3.113  0.00  0.00    +0.292 HD
ENDBRANCH  23  24
BRANCH  18  26
ATOM     26  O   UNL     1       0.273   5.048  -1.409  0.00  0.00    -0.489 OA
BRANCH  26  28
ATOM     27  C   UNL     1      -0.612   7.238  -0.901  0.00  0.00    +0.048 C 
ATOM     28  C   UNL     1      -0.907   5.740  -0.999  0.00  0.00    +0.226 C 
ENDBRANCH  26  28
ENDBRANCH  18  26
ENDBRANCH   1  20
TORSDOF 5
