REMARK  Name = ZINC38555896
REMARK  11 active torsions:
REMARK  status: ('A' for Active; 'I' for Inactive)
REMARK    1  A    between atoms: C_1  and  C_2
REMARK    2  A    between atoms: C_2  and  C_3
REMARK    3  A    between atoms: C_2  and  C_4
REMARK    4  A    between atoms: C_2  and  O_5
REMARK    5  A    between atoms: O_5  and  C_6
REMARK    6  A    between atoms: N_8  and  C_9
REMARK    7  A    between atoms: C_9  and  C_11
REMARK    8  A    between atoms: C_9  and  C_21
REMARK    9  A    between atoms: C_11  and  C_12
REMARK   10  A    between atoms: C_21  and  O_23
REMARK   11  A    between atoms: O_23  and  C_24
REMARK                            x       y       z     vdW  Elec       q    Type
REMARK                         _______ _______ _______ _____ _____    ______ ____
ROOT
ATOM      1  C   UNL     1       4.043  -0.033  -2.594  0.00  0.00    +0.189 C 
ENDROOT
BRANCH   1   4
ATOM      2  C   UNL     1       1.972   0.034  -1.311  0.00  0.00    +0.401 C 
ATOM      3  O   UNL     1       2.534   0.739  -0.496  0.00  0.00    -0.226 OA
ATOM      4  N   UNL     1       2.639  -0.405  -2.397  0.00  0.00    -0.268 N 
ATOM      5  H   UNL     1       2.191  -0.967  -3.047  0.00  0.00    +0.153 HD
BRANCH   2   6
ATOM      6  O   UNL     1       0.682  -0.308  -1.130  0.00  0.00    -0.445 OA
BRANCH   6   8
ATOM      7  C   UNL     1       0.058   1.722   0.022  0.00  0.00    +0.055 C 
ATOM      8  C   UNL     1       0.037   0.193   0.043  0.00  0.00    +0.107 C 
ATOM      9  C   UNL     1       0.775  -0.311   1.285  0.00  0.00    +0.055 C 
ATOM     10  C   UNL     1      -1.412  -0.297   0.076  0.00  0.00    +0.055 C 
ENDBRANCH   6   8
ENDBRANCH   2   6
ENDBRANCH   1   4
BRANCH   1  11
ATOM     11  C   UNL     1       4.863  -0.535  -1.434  0.00  0.00    +0.333 C 
ATOM     12  O   UNL     1       4.326  -0.810  -0.388  0.00  0.00    -0.248 OA
BRANCH  11  13
ATOM     13  O   UNL     1       6.192  -0.677  -1.564  0.00  0.00    -0.424 OA
BRANCH  13  14
ATOM     14  C   UNL     1       6.906  -1.035  -0.464  0.00  0.00    +0.135 A 
ATOM     15  C   UNL     1       6.899  -2.353  -0.029  0.00  0.00    +0.047 A 
ATOM     16  C   UNL     1       7.630  -2.713   1.085  0.00  0.00    +0.011 A 
ATOM     17  C   UNL     1       8.368  -1.768   1.775  0.00  0.00    -0.001 A 
ATOM     18  C   UNL     1       8.372  -0.446   1.351  0.00  0.00    +0.139 A 
ATOM     19  C   UNL     1       7.645  -0.086   0.222  0.00  0.00    +0.093 A 
ATOM     20  O   UNL     1       9.058   0.526   2.014  0.00  0.00    -0.425 OA
ATOM     21  C   UNL     1       9.857   0.165   3.043  0.00  0.00    +0.316 C 
ATOM     22  O   UNL     1      10.906   0.722   3.265  0.00  0.00    -0.250 OA
ATOM     23  C   UNL     1       9.361  -0.975   3.897  0.00  0.00    +0.106 C 
ATOM     24  C   UNL     1       9.168  -2.183   2.974  0.00  0.00    +0.036 C 
ATOM     25  C   UNL     1       8.515  -3.308   3.768  0.00  0.00    +0.009 C 
ATOM     26  C   UNL     1       9.461  -3.706   4.908  0.00  0.00    +0.001 C 
ATOM     27  C   UNL     1       9.746  -2.505   5.809  0.00  0.00    +0.001 C 
ATOM     28  C   UNL     1      10.348  -1.353   4.995  0.00  0.00    +0.015 C 
ENDBRANCH  13  14
ENDBRANCH  11  13
ENDBRANCH   1  11
BRANCH   1  29
ATOM     29  C   UNL     1       4.159   1.491  -2.679  0.00  0.00    +0.071 C 
BRANCH  29  30
ATOM     30  C   UNL     1       3.440   1.981  -3.909  0.00  0.00    -0.020 A 
ATOM     31  C   UNL     1       2.010   2.279  -4.022  0.00  0.00    +0.003 A 
ATOM     32  C   UNL     1       0.934   2.221  -3.135  0.00  0.00    +0.010 A 
ATOM     33  C   UNL     1      -0.316   2.576  -3.559  0.00  0.00    +0.001 A 
ATOM     34  C   UNL     1      -0.524   2.994  -4.866  0.00  0.00    +0.002 A 
ATOM     35  C   UNL     1       0.524   3.059  -5.758  0.00  0.00    +0.026 A 
ATOM     36  C   UNL     1       1.804   2.702  -5.348  0.00  0.00    +0.047 A 
ATOM     37  N   UNL     1       3.026   2.660  -5.981  0.00  0.00    -0.360 N 
ATOM     38  C   UNL     1       3.989   2.234  -5.108  0.00  0.00    +0.087 A 
ATOM     39  H   UNL     1       3.182   2.901  -6.908  0.00  0.00    +0.165 HD
ENDBRANCH  29  30
ENDBRANCH   1  29
TORSDOF 8
