REMARK  Name = ZINC52473020
REMARK  10 active torsions:
REMARK  status: ('A' for Active; 'I' for Inactive)
REMARK    1  A    between atoms: C_1  and  C_2
REMARK    2  A    between atoms: C_2  and  C_3
REMARK    3  A    between atoms: C_3  and  C_4
REMARK    4  A    between atoms: C_3  and  C_6
REMARK    5  A    between atoms: C_4  and  C_5
REMARK    6  A    between atoms: C_11  and  N_14
REMARK    7  A    between atoms: C_19  and  C_23
REMARK    8  A    between atoms: C_23  and  C_24
REMARK    9  A    between atoms: C_23  and  C_25
REMARK   10  A    between atoms: C_23  and  C_26
REMARK                            x       y       z     vdW  Elec       q    Type
REMARK                         _______ _______ _______ _____ _____    ______ ____
ROOT
ATOM      1  N   UNL     1       1.956  -4.521   3.086  0.00  0.00    -0.319 N 
ATOM      2  C   UNL     1       2.056  -5.673   3.850  0.00  0.00    +0.182 A 
ATOM      3  N   UNL     1       3.125  -6.339   4.196  0.00  0.00    -0.142 NA
ATOM      4  N   UNL     1       3.039  -7.487   4.976  0.00  0.00    -0.212 N 
ATOM      5  C   UNL     1       3.889  -8.435   5.531  0.00  0.00    +0.139 A 
ATOM      6  C   UNL     1       3.131  -9.323   6.200  0.00  0.00    +0.068 A 
ATOM      7  N   UNL     1       1.847  -8.958   6.077  0.00  0.00    -0.224 NA
ATOM      8  C   UNL     1       1.784  -7.875   5.356  0.00  0.00    +0.197 A 
ATOM      9  S   UNL     1       0.757  -6.624   4.622  0.00  0.00    -0.013 S 
ATOM     10  H   UNL     1       2.756  -4.107   2.727  0.00  0.00    +0.148 HD
ENDROOT
BRANCH   1  16
ATOM     11  C   UNL     1      -1.740  -1.920   0.146  0.00  0.00    +0.219 C 
ATOM     12  O   UNL     1      -2.355  -2.538  -0.697  0.00  0.00    -0.275 OA
ATOM     13  N   UNL     1      -1.249  -2.559   1.226  0.00  0.00    -0.301 N 
ATOM     14  C   UNL     1      -0.574  -1.812   2.295  0.00  0.00    +0.109 C 
ATOM     15  C   UNL     1       0.805  -2.434   2.538  0.00  0.00    +0.041 C 
ATOM     16  C   UNL     1       0.643  -3.929   2.821  0.00  0.00    +0.075 C 
ATOM     17  C   UNL     1       0.010  -4.615   1.608  0.00  0.00    +0.041 C 
ATOM     18  C   UNL     1      -1.383  -4.016   1.358  0.00  0.00    +0.109 C 
BRANCH  11  19
ATOM     19  C   UNL     1      -1.525  -0.437  -0.014  0.00  0.00    +0.075 C 
BRANCH  19  21
ATOM     20  C   UNL     1       0.463  -0.946  -1.440  0.00  0.00    +0.004 C 
ATOM     21  C   UNL     1      -0.036  -0.158  -0.227  0.00  0.00    +0.009 C 
ENDBRANCH  19  21
BRANCH  19  22
ATOM     22  C   UNL     1      -2.316   0.065  -1.224  0.00  0.00    +0.009 C 
ATOM     23  C   UNL     1      -2.204   1.589  -1.310  0.00  0.00    +0.004 C 
ENDBRANCH  19  22
ENDBRANCH  11  19
ENDBRANCH   1  16
BRANCH   6  24
ATOM     24  C   UNL     1       3.639 -10.523   6.956  0.00  0.00    +0.006 C 
ATOM     25  C   UNL     1       4.271 -10.066   8.272  0.00  0.00    +0.017 C 
ATOM     26  C   UNL     1       2.474 -11.470   7.252  0.00  0.00    +0.017 C 
ATOM     27  C   UNL     1       4.687 -11.252   6.113  0.00  0.00    +0.017 C 
ENDBRANCH   6  24
TORSDOF 5
