REMARK  Name = ZINC35671398
REMARK  17 active torsions:
REMARK  status: ('A' for Active; 'I' for Inactive)
REMARK    1  A    between atoms: C_1  and  C_2
REMARK    2  A    between atoms: C_2  and  C_3
REMARK    3  A    between atoms: C_2  and  C_4
REMARK    4  A    between atoms: C_4  and  C_5
REMARK    5  A    between atoms: C_5  and  N_6
REMARK    6  A    between atoms: C_7  and  C_9
REMARK    7  A    between atoms: C_14  and  C_16
REMARK    8  A    between atoms: C_18  and  O_26
REMARK    9  A    between atoms: C_19  and  O_24
REMARK   10  A    between atoms: C_20  and  O_22
REMARK   11  A    between atoms: O_22  and  C_23
REMARK   12  A    between atoms: O_24  and  C_25
REMARK   13  A    between atoms: O_26  and  C_27
REMARK   14  A    between atoms: N_30  and  C_31
REMARK   15  A    between atoms: C_31  and  C_32
REMARK   16  A    between atoms: C_31  and  C_33
REMARK   17  A    between atoms: C_31  and  C_34
REMARK                            x       y       z     vdW  Elec       q    Type
REMARK                         _______ _______ _______ _____ _____    ______ ____
ROOT
ATOM      1  C   UNL     1      -5.982  -1.440  -2.545  0.00  0.00    +0.101 C 
ATOM      2  C   UNL     1      -6.543  -0.954  -1.185  0.00  0.00    +0.122 C 
ATOM      3  N   UNL     1      -6.481   0.517  -1.255  0.00  0.00    -0.284 N 
ATOM      4  C   UNL     1      -6.497   0.923  -2.668  0.00  0.00    +0.118 C 
ATOM      5  C   UNL     1      -6.544  -0.367  -3.515  0.00  0.00    +0.050 C 
ATOM      6  C   UNL     1      -6.422   1.352  -0.198  0.00  0.00    +0.303 C 
ATOM      7  O   UNL     1      -6.375   2.554  -0.375  0.00  0.00    -0.253 OA
ATOM      8  N   UNL     1      -6.415   0.854   1.054  0.00  0.00    -0.294 N 
ATOM      9  H   UNL     1      -6.452  -0.105   1.195  0.00  0.00    +0.151 HD
ENDROOT
BRANCH   5  10
ATOM     10  C   UNL     1      -5.667  -0.238  -4.734  0.00  0.00    -0.035 A 
ATOM     11  C   UNL     1      -5.137  -1.371  -5.324  0.00  0.00    +0.053 A 
ATOM     12  C   UNL     1      -4.329  -1.257  -6.445  0.00  0.00    +0.165 A 
ATOM     13  C   UNL     1      -4.052  -0.002  -6.975  0.00  0.00    +0.204 A 
ATOM     14  C   UNL     1      -4.587   1.134  -6.379  0.00  0.00    +0.165 A 
ATOM     15  C   UNL     1      -5.398   1.011  -5.261  0.00  0.00    +0.053 A 
BRANCH  14  16
ATOM     16  O   UNL     1      -4.318   2.364  -6.893  0.00  0.00    -0.491 OA
ATOM     17  C   UNL     1      -4.901   3.486  -6.229  0.00  0.00    +0.277 C 
ENDBRANCH  14  16
BRANCH  13  18
ATOM     18  O   UNL     1      -3.259   0.114  -8.075  0.00  0.00    -0.488 OA
ATOM     19  C   UNL     1      -3.907   0.080  -9.348  0.00  0.00    +0.277 C 
ENDBRANCH  13  18
BRANCH  12  20
ATOM     20  O   UNL     1      -3.808  -2.371  -7.025  0.00  0.00    -0.491 OA
ATOM     21  C   UNL     1      -4.135  -3.627  -6.427  0.00  0.00    +0.277 C 
ENDBRANCH  12  20
ENDBRANCH   5  10
BRANCH   1  23
ATOM     22  N   UNL     1      -3.794  -2.590  -2.471  0.00  0.00    -0.315 N 
ATOM     23  C   UNL     1      -4.475  -1.429  -2.542  0.00  0.00    +0.218 C 
ATOM     24  O   UNL     1      -3.876  -0.377  -2.605  0.00  0.00    -0.275 OA
ATOM     25  H   UNL     1      -4.273  -3.432  -2.421  0.00  0.00    +0.149 HD
BRANCH  22  26
ATOM     26  C   UNL     1      -2.329  -2.580  -2.469  0.00  0.00    +0.104 C 
BRANCH  26  27
ATOM     27  C   UNL     1      -1.810  -4.017  -2.381  0.00  0.00    +0.022 C 
BRANCH  27  29
ATOM     28  C   UNL     1       0.224  -3.316  -1.109  0.00  0.00    +0.007 C 
ATOM     29  C   UNL     1      -0.280  -4.006  -2.378  0.00  0.00    -0.016 C 
ATOM     30  C   UNL     1       0.240  -5.445  -2.416  0.00  0.00    +0.007 C 
ENDBRANCH  27  29
ENDBRANCH  26  27
ENDBRANCH  22  26
ENDBRANCH   1  23
BRANCH   8  31
ATOM     31  C   UNL     1      -6.350   1.762   2.203  0.00  0.00    +0.028 C 
ATOM     32  C   UNL     1      -7.561   2.696   2.183  0.00  0.00    +0.031 C 
ATOM     33  C   UNL     1      -6.355   0.947   3.498  0.00  0.00    +0.031 C 
ATOM     34  C   UNL     1      -5.066   2.590   2.127  0.00  0.00    +0.031 C 
ENDBRANCH   8  31
TORSDOF 9
