REMARK  Name = ZINC28955929
REMARK  6 active torsions:
REMARK  status: ('A' for Active; 'I' for Inactive)
REMARK    1  A    between atoms: C_8  and  S_10
REMARK    2  A    between atoms: S_10  and  N_13
REMARK    3  A    between atoms: N_13  and  C_14
REMARK    4  A    between atoms: C_14  and  C_15
REMARK    5  A    between atoms: C_21  and  C_23
REMARK    6  A    between atoms: N_26  and  C_29
REMARK                            x       y       z     vdW  Elec       q    Type
REMARK                         _______ _______ _______ _____ _____    ______ ____
ROOT
ATOM      1  C   UNL     1      -3.290   5.290   4.164  0.00  0.00    +0.023 C 
ATOM      2  C   UNL     1      -3.366   3.807   4.616  0.00  0.00    +0.025 C 
ATOM      3  C   UNL     1      -2.648   3.825   5.982  0.00  0.00    +0.108 C 
ATOM      4  N   UNL     1      -1.780   5.012   6.003  0.00  0.00    -0.301 N 
ATOM      5  C   UNL     1      -1.905   5.712   4.712  0.00  0.00    +0.112 C 
ATOM      6  C   UNL     1      -0.999   5.395   7.033  0.00  0.00    +0.219 C 
ATOM      7  O   UNL     1      -1.043   4.793   8.084  0.00  0.00    -0.275 OA
ENDROOT
BRANCH   6   8
ATOM      8  C   UNL     1      -0.071   6.572   6.877  0.00  0.00    +0.078 C 
ATOM      9  C   UNL     1       1.310   6.080   6.434  0.00  0.00    +0.031 C 
ATOM     10  C   UNL     1       2.265   7.273   6.338  0.00  0.00    +0.106 C 
ATOM     11  N   UNL     1       2.356   7.937   7.645  0.00  0.00    -0.330 N 
ATOM     12  C   UNL     1       1.050   8.460   8.067  0.00  0.00    +0.106 C 
ATOM     13  C   UNL     1       0.060   7.302   8.216  0.00  0.00    +0.031 C 
BRANCH  11  14
ATOM     14  C   UNL     1       3.314   8.945   7.626  0.00  0.00    +0.032 A 
ATOM     15  C   UNL     1       2.982  10.255   7.973  0.00  0.00    +0.040 A 
ATOM     16  C   UNL     1       3.963  11.224   7.947  0.00  0.00    +0.084 A 
ATOM     17  N   UNL     1       5.198  10.927   7.589  0.00  0.00    -0.367 N 
ATOM     18  C   UNL     1       5.551   9.702   7.249  0.00  0.00    +0.084 A 
ATOM     19  C   UNL     1       4.631   8.674   7.254  0.00  0.00    +0.040 A 
ATOM     20  H   UNL     1       5.968  11.712   7.569  0.00  0.00    +0.165 HD
ENDBRANCH  11  14
ENDBRANCH   6   8
BRANCH   1  21
ATOM     21  C   UNL     1      -3.334   5.401   2.639  0.00  0.00    +0.111 C 
BRANCH  21  22
ATOM     22  N   UNL     1      -4.670   5.036   2.160  0.00  0.00    -0.189 NA
ATOM     23  H   UNL     1      -5.307   4.372   2.763  0.00  0.00    +0.148 HD
BRANCH  22  24
ATOM     24  S   UNL     1      -5.127   5.413   0.614  0.00  0.00    +0.065 S 
ATOM     25  O   UNL     1      -4.803   6.782   0.417  0.00  0.00    -0.153 OA
ATOM     26  O   UNL     1      -6.446   4.910   0.447  0.00  0.00    -0.153 OA
BRANCH  24  34
ATOM     27  C   UNL     1      -3.332   1.416  -2.506  0.00  0.00    +0.010 A 
ATOM     28  C   UNL     1      -2.312   1.033  -3.319  0.00  0.00    +0.020 A 
ATOM     29  C   UNL     1      -1.222   1.862  -3.556  0.00  0.00    +0.042 A 
ATOM     30  C   UNL     1      -1.168   3.104  -2.954  0.00  0.00    +0.035 A 
ATOM     31  C   UNL     1      -2.197   3.503  -2.127  0.00  0.00    +0.023 A 
ATOM     32  C   UNL     1      -3.315   2.680  -1.870  0.00  0.00    -0.009 A 
ATOM     33  C   UNL     1      -4.304   3.262  -0.974  0.00  0.00    +0.045 A 
ATOM     34  C   UNL     1      -4.095   4.489  -0.474  0.00  0.00    +0.144 A 
ATOM     35  S   UNL     1      -2.529   4.965  -1.179  0.00  0.00    -0.068 S 
ATOM     36 CL   UNL     1       0.062   1.340  -4.601  0.00  0.00    -0.084 Cl
ENDBRANCH  24  34
ENDBRANCH  22  24
ENDBRANCH  21  22
ENDBRANCH   1  21
TORSDOF 6
