REMARK  Name = ZINC67304512
REMARK  10 active torsions:
REMARK  status: ('A' for Active; 'I' for Inactive)
REMARK    1  A    between atoms: C_1  and  C_2
REMARK    2  A    between atoms: C_2  and  C_3
REMARK    3  A    between atoms: C_2  and  C_4
REMARK    4  A    between atoms: C_4  and  C_6
REMARK    5  A    between atoms: C_4  and  N_21
REMARK    6  A    between atoms: C_6  and  N_7
REMARK    7  A    between atoms: C_8  and  C_10
REMARK    8  A    between atoms: C_10  and  C_11
REMARK    9  A    between atoms: C_14  and  S_17
REMARK   10  A    between atoms: S_17  and  N_20
REMARK                            x       y       z     vdW  Elec       q    Type
REMARK                         _______ _______ _______ _____ _____    ______ ____
ROOT
ATOM      1  N   UNL     1      -2.641  -2.561   0.637  0.00  0.00    -0.317 N 
ATOM      2  C   UNL     1      -2.779  -3.880   0.875  0.00  0.00    +0.217 C 
ATOM      3  O   UNL     1      -1.820  -4.616   0.782  0.00  0.00    -0.275 OA
ATOM      4  H   UNL     1      -3.408  -1.972   0.711  0.00  0.00    +0.149 HD
ENDROOT
BRANCH   1   5
ATOM      5  C   UNL     1      -1.333  -2.016   0.265  0.00  0.00    +0.089 C 
BRANCH   5   6
ATOM      6  C   UNL     1      -1.419  -0.491   0.184  0.00  0.00    -0.049 C 
BRANCH   6   7
ATOM      7  N   UNL     1      -1.826   0.047   1.489  0.00  0.00    +0.383 N 
ATOM      8  C   UNL     1      -2.200   1.465   1.321  0.00  0.00    -0.078 C 
ATOM      9  C   UNL     1      -3.150   1.839   2.431  0.00  0.00    -0.019 C 
ATOM     10  C   UNL     1      -2.410   2.503   3.607  0.00  0.00    -0.002 C 
ATOM     11  C   UNL     1      -1.066   1.807   3.904  0.00  0.00    -0.002 C 
ATOM     12  C   UNL     1      -1.167   0.306   3.822  0.00  0.00    -0.019 C 
ATOM     13  C   UNL     1      -0.784  -0.147   2.398  0.00  0.00    -0.078 C 
ATOM     14  H   UNL     1      -2.635  -0.463   1.811  0.00  0.00    -0.081 HD
ENDBRANCH   6   7
BRANCH   6  16
ATOM     15  C   UNL     1       0.019   1.552   0.208  0.00  0.00    +0.005 C 
ATOM     16  C   UNL     1      -0.052   0.078  -0.198  0.00  0.00    -0.029 C 
ATOM     17  C   UNL     1       1.046  -0.704   0.525  0.00  0.00    +0.005 C 
ENDBRANCH   6  16
ENDBRANCH   5   6
ENDBRANCH   1   5
BRANCH   2  18
ATOM     18  C   UNL     1      -4.125  -4.440   1.257  0.00  0.00    +0.130 C 
BRANCH  18  19
ATOM     19  C   UNL     1      -4.008  -5.928   1.467  0.00  0.00    -0.039 A 
ATOM     20  C   UNL     1      -4.202  -6.793   0.406  0.00  0.00    +0.006 A 
ATOM     21  C   UNL     1      -4.095  -8.157   0.599  0.00  0.00    +0.029 A 
ATOM     22  C   UNL     1      -3.795  -8.657   1.852  0.00  0.00    +0.105 A 
ATOM     23  C   UNL     1      -3.601  -7.792   2.913  0.00  0.00    +0.029 A 
ATOM     24  C   UNL     1      -3.703  -6.427   2.719  0.00  0.00    +0.006 A 
BRANCH  22  25
ATOM     25  S   UNL     1      -3.660 -10.397   2.097  0.00  0.00    +0.056 S 
ATOM     26  O   UNL     1      -3.909 -10.633   3.476  0.00  0.00    -0.153 OA
ATOM     27  O   UNL     1      -4.424 -11.012   1.069  0.00  0.00    -0.153 OA
BRANCH  25  28
ATOM     28  N   UNL     1      -2.079 -10.809   1.824  0.00  0.00    -0.204 NA
ATOM     29  H   UNL     1      -1.686 -11.561   2.294  0.00  0.00    +0.144 HD
ATOM     30  H   UNL     1      -1.547 -10.298   1.195  0.00  0.00    +0.144 HD
ENDBRANCH  25  28
ENDBRANCH  22  25
ENDBRANCH  18  19
ENDBRANCH   2  18
TORSDOF 8
