REMARK  Name = ZINC01883427
REMARK  2 active torsions:
REMARK  status: ('A' for Active; 'I' for Inactive)
REMARK    1  A    between atoms: C_9  and  C_10
REMARK    2  A    between atoms: C_9  and  N_15
REMARK                            x       y       z     vdW  Elec       q    Type
REMARK                         _______ _______ _______ _____ _____    ______ ____
ROOT
ATOM      1  C   UNL     1      -5.641  -2.034   0.506  0.00  0.00    +0.002 A 
ATOM      2  C   UNL     1      -6.454  -0.912   0.622  0.00  0.00    +0.002 A 
ATOM      3  C   UNL     1      -5.918   0.344   0.570  0.00  0.00    +0.025 A 
ATOM      4  C   UNL     1      -4.545   0.505   0.401  0.00  0.00    +0.054 A 
ATOM      5  C   UNL     1      -3.722  -0.631   0.284  0.00  0.00    +0.054 A 
ATOM      6  C   UNL     1      -4.290  -1.901   0.340  0.00  0.00    +0.025 A 
ATOM      7  N   UNL     1      -2.437  -0.172   0.129  0.00  0.00    -0.299 N 
ATOM      8  C   UNL     1      -2.461   1.169   0.149  0.00  0.00    +0.125 C 
ATOM      9  C   UNL     1      -1.282   2.038   0.012  0.00  0.00    +0.182 C 
ATOM     10  N   UNL     1      -3.720   1.599   0.317  0.00  0.00    -0.299 N 
ATOM     11  H   UNL     1      -1.646  -0.723   0.024  0.00  0.00    +0.153 HD
ATOM     12  H   UNL     1      -4.000   2.527   0.368  0.00  0.00    +0.153 HD
ENDROOT
BRANCH   9  13
ATOM     13  C   UNL     1      -1.437   3.405  -0.053  0.00  0.00    +0.099 C 
ATOM     14  C   UNL     1      -2.061   3.982  -1.156  0.00  0.00    +0.104 C 
ATOM     15 CL   UNL     1      -2.556   2.990  -2.492  0.00  0.00    -0.074 Cl
ATOM     16 BR   UNL     1      -2.370   5.848  -1.198  0.00  0.00    -0.036 Br
ATOM     17 CL   UNL     1      -0.855   4.407   1.239  0.00  0.00    -0.079 Cl
ENDBRANCH   9  13
BRANCH   9  18
ATOM     18  N   UNL     1       0.072   1.443  -0.055  0.00  0.00    +0.061 N 
ATOM     19  O   UNL     1       0.215   0.134  -0.098  0.00  0.00    -0.126 OA
ATOM     20  O   UNL     1       1.134   2.222  -0.078  0.00  0.00    -0.126 OA
ENDBRANCH   9  18
TORSDOF 2
