REMARK  Name = ZINC37420770
REMARK  12 active torsions:
REMARK  status: ('A' for Active; 'I' for Inactive)
REMARK    1  A    between atoms: C_1  and  C_2
REMARK    2  A    between atoms: C_2  and  C_40
REMARK    3  A    between atoms: C_7  and  C_18
REMARK    4  A    between atoms: C_7  and  O_28
REMARK    5  A    between atoms: C_9  and  O_14
REMARK    6  A    between atoms: O_14  and  C_15
REMARK    7  A    between atoms: C_15  and  C_16
REMARK    8  A    between atoms: N_20  and  C_21
REMARK    9  A    between atoms: C_21  and  C_22
REMARK   10  A    between atoms: O_28  and  C_29
REMARK   11  A    between atoms: C_29  and  C_30
REMARK   12  A    between atoms: C_34  and  C_36
REMARK                            x       y       z     vdW  Elec       q    Type
REMARK                         _______ _______ _______ _____ _____    ______ ____
ROOT
ATOM      1  C   UNL     1      -0.872   0.895  -0.022  0.00  0.00    +0.074 C 
ATOM      2  C   UNL     1      -0.560  -0.603  -0.004  0.00  0.00    +0.165 C 
ATOM      3  O   UNL     1       0.219  -0.946  -1.160  0.00  0.00    -0.343 OA
ATOM      4  C   UNL     1       1.456  -1.534  -0.675  0.00  0.00    +0.156 C 
ATOM      5  C   UNL     1       1.212  -3.043  -0.599  0.00  0.00    +0.079 C 
ATOM      6  C   UNL     1       2.268  -3.722   0.270  0.00  0.00    +0.150 C 
ATOM      7  C   UNL     1       2.157  -3.165   1.694  0.00  0.00    +0.079 C 
ATOM      8  C   UNL     1       2.489  -1.674   1.651  0.00  0.00    +0.153 C 
ATOM      9  C   UNL     1       1.563  -0.911   0.728  0.00  0.00    +0.179 C 
ATOM     10  O   UNL     1       0.198  -0.926   1.179  0.00  0.00    -0.341 OA
ATOM     11  C   UNL     1      -1.866  -1.400  -0.012  0.00  0.00    +0.074 C 
ENDROOT
BRANCH   6  12
ATOM     12  C   UNL     1       3.640  -3.432  -0.282  0.00  0.00    +0.245 C 
ATOM     13  O   UNL     1       3.822  -2.449  -0.968  0.00  0.00    -0.273 OA
ATOM     14  N   UNL     1       4.664  -4.266  -0.013  0.00  0.00    -0.310 N 
ATOM     15  H   UNL     1       4.505  -5.087   0.478  0.00  0.00    +0.149 HD
BRANCH  14  16
ATOM     16  C   UNL     1       6.018  -3.932  -0.462  0.00  0.00    +0.135 C 
BRANCH  16  17
ATOM     17  C   UNL     1       6.985  -5.035  -0.030  0.00  0.00    +0.135 C 
ATOM     18  C   UNL     1       8.430  -4.685  -0.466  0.00  0.00    +0.035 C 
ATOM     19  C   UNL     1       9.256  -5.501   0.565  0.00  0.00    +0.031 C 
ATOM     20  C   UNL     1       8.370  -5.426   1.827  0.00  0.00    +0.160 C 
ATOM     21  O   UNL     1       7.034  -5.123   1.402  0.00  0.00    -0.375 OA
ENDBRANCH  16  17
ENDBRANCH  14  16
ENDBRANCH   6  12
BRANCH   8  22
ATOM     22  O   UNL     1       2.381  -1.134   2.970  0.00  0.00    -0.370 OA
BRANCH  22  23
ATOM     23  C   UNL     1       3.594  -1.188   3.722  0.00  0.00    +0.187 C 
BRANCH  23  24
ATOM     24  C   UNL     1       3.365  -0.596   5.089  0.00  0.00    -0.007 C 
ATOM     25  C   UNL     1       3.826  -1.205   6.153  0.00  0.00    +0.006 C 
ENDBRANCH  23  24
ENDBRANCH  22  23
ENDBRANCH   8  22
BRANCH   6  26
ATOM     26  O   UNL     1       2.041  -5.133   0.287  0.00  0.00    -0.359 OA
BRANCH  26  27
ATOM     27  C   UNL     1       0.739  -5.506   0.743  0.00  0.00    +0.196 C 
BRANCH  27  28
ATOM     28  C   UNL     1       0.582  -7.002   0.641  0.00  0.00    -0.021 A 
ATOM     29  C   UNL     1       0.090  -7.568  -0.520  0.00  0.00    +0.006 A 
ATOM     30  C   UNL     1      -0.054  -8.939  -0.614  0.00  0.00    +0.001 A 
ATOM     31  C   UNL     1       0.293  -9.745   0.455  0.00  0.00    +0.012 A 
ATOM     32  C   UNL     1       0.786  -9.179   1.616  0.00  0.00    +0.055 A 
ATOM     33  C   UNL     1       0.934  -7.808   1.707  0.00  0.00    +0.018 A 
BRANCH  32  34
ATOM     34  C   UNL     1       1.164 -10.058   2.780  0.00  0.00    +0.417 C 
ATOM     35  F   UNL     1       0.930 -11.397   2.450  0.00  0.00    -0.166 F 
ATOM     36  F   UNL     1       2.520  -9.881   3.077  0.00  0.00    -0.166 F 
ATOM     37  F   UNL     1       0.394  -9.711   3.896  0.00  0.00    -0.166 F 
ENDBRANCH  32  34
ENDBRANCH  27  28
ENDBRANCH  26  27
ENDBRANCH   6  26
TORSDOF 10
