REMARK  Name = ZINC50984242
REMARK  10 active torsions:
REMARK  status: ('A' for Active; 'I' for Inactive)
REMARK    1  A    between atoms: C_1  and  C_2
REMARK    2  A    between atoms: C_2  and  N_3
REMARK    3  A    between atoms: N_3  and  C_4
REMARK    4  A    between atoms: C_4  and  C_5
REMARK    5  A    between atoms: C_6  and  C_8
REMARK    6  A    between atoms: C_8  and  C_10
REMARK    7  A    between atoms: C_14  and  O_16
REMARK    8  A    between atoms: O_16  and  C_17
REMARK    9  A    between atoms: C_17  and  C_18
REMARK   10  A    between atoms: C_17  and  C_19
REMARK                            x       y       z     vdW  Elec       q    Type
REMARK                         _______ _______ _______ _____ _____    ______ ____
ROOT
ATOM      1  C   UNL     1      -2.620  -1.067  -3.641  0.00  0.00    -0.018 A 
ATOM      2  C   UNL     1      -2.096  -1.203  -4.913  0.00  0.00    +0.006 A 
ATOM      3  C   UNL     1      -2.271  -2.383  -5.613  0.00  0.00    +0.004 A 
ATOM      4  C   UNL     1      -2.971  -3.429  -5.043  0.00  0.00    +0.045 A 
ATOM      5  C   UNL     1      -3.498  -3.295  -3.766  0.00  0.00    +0.121 A 
ATOM      6  C   UNL     1      -3.316  -2.112  -3.064  0.00  0.00    +0.051 A 
ENDROOT
BRANCH   1   7
ATOM      7  C   UNL     1      -2.428   0.220  -2.881  0.00  0.00    +0.196 C 
ATOM      8 CL   UNL     1      -3.043   1.598  -3.867  0.00  0.00    -0.107 Cl
BRANCH   7  10
ATOM      9  N   UNL     1      -0.501   0.325  -1.334  0.00  0.00    -0.301 N 
ATOM     10  C   UNL     1      -0.962   0.421  -2.597  0.00  0.00    +0.238 C 
ATOM     11  O   UNL     1      -0.197   0.669  -3.504  0.00  0.00    -0.274 OA
BRANCH   9  13
ATOM     12  C   UNL     1       1.720  -0.667  -1.075  0.00  0.00    +0.024 C 
ATOM     13  C   UNL     1       0.903   0.626  -1.041  0.00  0.00    +0.104 C 
ENDBRANCH   9  13
BRANCH   9  14
ATOM     14  C   UNL     1      -1.403  -0.082  -0.254  0.00  0.00    +0.104 C 
ATOM     15  C   UNL     1      -2.047   1.160   0.367  0.00  0.00    +0.024 C 
ENDBRANCH   9  14
ENDBRANCH   7  10
ENDBRANCH   1   7
BRANCH   5  16
ATOM     16  O   UNL     1      -4.186  -4.322  -3.203  0.00  0.00    -0.489 OA
BRANCH  16  17
ATOM     17  C   UNL     1      -4.597  -4.160  -1.844  0.00  0.00    +0.167 C 
ATOM     18  C   UNL     1      -5.935  -3.420  -1.800  0.00  0.00    +0.051 C 
ATOM     19  C   UNL     1      -4.752  -5.534  -1.190  0.00  0.00    +0.051 C 
ENDBRANCH  16  17
ENDBRANCH   5  16
TORSDOF 6
