REMARK  Name = ZINC27834457
REMARK  7 active torsions:
REMARK  status: ('A' for Active; 'I' for Inactive)
REMARK    1  A    between atoms: C_3  and  N_27
REMARK    2  A    between atoms: C_6  and  C_7
REMARK    3  A    between atoms: N_9  and  C_24
REMARK    4  A    between atoms: N_13  and  N_14
REMARK    5  A    between atoms: N_14  and  C_15
REMARK    6  A    between atoms: C_18  and  C_21
REMARK    7  A    between atoms: C_24  and  N_26
REMARK                            x       y       z     vdW  Elec       q    Type
REMARK                         _______ _______ _______ _____ _____    ______ ____
ROOT
ATOM      1  C   UNL     1      -1.269  -0.765   0.011  0.00  0.00    +0.122 C 
ATOM      2  N   UNL     1      -2.473  -0.260   0.019  0.00  0.00    -0.168 NA
ATOM      3  N   UNL     1      -3.443  -1.262   0.026  0.00  0.00    -0.134 N 
ATOM      4  C   UNL     1      -2.861  -2.478   0.021  0.00  0.00    +0.294 C 
ATOM      5  O   UNL     1      -3.424  -3.558   0.024  0.00  0.00    -0.266 OA
ATOM      6  C   UNL     1      -1.409  -2.237   0.004  0.00  0.00    +0.173 C 
ATOM      7  N   UNL     1      -0.445  -3.136  -0.011  0.00  0.00    -0.175 NA
ENDROOT
BRANCH   1  13
ATOM      8  C   UNL     1      -0.017   1.390   0.010  0.00  0.00    +0.012 A 
ATOM      9  C   UNL     1       1.170   2.094   0.002  0.00  0.00    +0.033 A 
ATOM     10  C   UNL     1       2.378   1.418  -0.013  0.00  0.00    +0.126 A 
ATOM     11  C   UNL     1       2.403   0.035  -0.022  0.00  0.00    +0.033 A 
ATOM     12  C   UNL     1       1.222  -0.679  -0.014  0.00  0.00    +0.012 A 
ATOM     13  C   UNL     1       0.002  -0.004   0.002  0.00  0.00    +0.004 A 
BRANCH  10  14
ATOM     14  N   UNL     1       3.648   2.179  -0.022  0.00  0.00    +0.056 N 
ATOM     15  O   UNL     1       3.628   3.388  -0.015  0.00  0.00    -0.126 OA
ATOM     16  O   UNL     1       4.704   1.591  -0.036  0.00  0.00    -0.126 OA
ENDBRANCH  10  14
ENDBRANCH   1  13
BRANCH   7  17
ATOM     17  N   UNL     1      -0.735  -4.393  -0.015  0.00  0.00    -0.237 N 
ATOM     18  H   UNL     1      -1.663  -4.677  -0.006  0.00  0.00    +0.174 HD
BRANCH  17  19
ATOM     19  C   UNL     1       0.282  -5.342  -0.031  0.00  0.00    +0.048 A 
ATOM     20  C   UNL     1       1.613  -4.934  -0.037  0.00  0.00    +0.025 A 
ATOM     21  C   UNL     1       2.622  -5.871  -0.052  0.00  0.00    +0.015 A 
ATOM     22  C   UNL     1       2.308  -7.233  -0.062  0.00  0.00    +0.037 A 
ATOM     23  C   UNL     1       0.971  -7.639  -0.055  0.00  0.00    +0.015 A 
ATOM     24  C   UNL     1      -0.033  -6.698  -0.035  0.00  0.00    +0.025 A 
BRANCH  22  25
ATOM     25  C   UNL     1       3.388  -8.240  -0.079  0.00  0.00    +0.242 C 
ATOM     26  O   UNL     1       4.551  -7.884  -0.086  0.00  0.00    -0.270 OA
ATOM     27  N   UNL     1       3.084  -9.553  -0.088  0.00  0.00    -0.325 N 
ATOM     28  H   UNL     1       2.157  -9.836  -0.084  0.00  0.00    +0.145 HD
ATOM     29  H   UNL     1       3.793 -10.214  -0.100  0.00  0.00    +0.145 HD
ENDBRANCH  22  25
ENDBRANCH  17  19
ENDBRANCH   7  17
BRANCH   3  30
ATOM     30  C   UNL     1      -4.773  -1.045   0.036  0.00  0.00    +0.158 C 
ATOM     31  S   UNL     1      -5.857  -2.370   0.043  0.00  0.00    -0.017 S 
BRANCH  30  32
ATOM     32  N   UNL     1      -5.250   0.216   0.041  0.00  0.00    -0.339 N 
ATOM     33  H   UNL     1      -4.637   0.967   0.036  0.00  0.00    +0.144 HD
ATOM     34  H   UNL     1      -6.208   0.372   0.048  0.00  0.00    +0.144 HD
ENDBRANCH  30  32
ENDBRANCH   3  30
TORSDOF 7
