REMARK  Name = ZINC62851505
REMARK  3 active torsions:
REMARK  status: ('A' for Active; 'I' for Inactive)
REMARK    1  A    between atoms: C_1  and  C_2
REMARK    2  A    between atoms: C_2  and  C_3
REMARK    3  A    between atoms: C_3  and  C_9
REMARK                            x       y       z     vdW  Elec       q    Type
REMARK                         _______ _______ _______ _____ _____    ______ ____
ROOT
ATOM      1  C   UNL     1      -1.433  -0.534   0.013  0.00  0.00    +0.057 C 
ATOM      2  C   UNL     1      -2.149  -0.045   1.275  0.00  0.00    +0.014 C 
ATOM      3  C   UNL     1      -1.445  -0.623   2.506  0.00  0.00    -0.018 C 
ATOM      4  C   UNL     1      -1.425  -2.150   2.405  0.00  0.00    -0.083 C 
ATOM      5  N   UNL     1      -0.704  -2.554   1.192  0.00  0.00    +0.380 N 
ATOM      6  C   UNL     1      -1.413  -2.064   0.004  0.00  0.00    -0.064 C 
ATOM      7  H   UNL     1       0.227  -2.166   1.210  0.00  0.00    -0.086 HD
ATOM      8  H   UNL     1      -0.646  -3.561   1.156  0.00  0.00    -0.086 HD
ENDROOT
BRANCH   1   9
ATOM      9  C   UNL     1      -2.164  -0.033  -1.207  0.00  0.00    +0.360 C 
ATOM     10  O   UNL     1      -1.589   0.681  -2.011  0.00  0.00    -0.246 OA
ATOM     11  O   UNL     1      -3.329  -0.343  -1.389  0.00  0.00    -0.246 OA
ENDBRANCH   1   9
BRANCH   1  13
ATOM     12  C   UNL     1      -0.019   1.526   0.010  0.00  0.00    +0.005 C 
ATOM     13  C   UNL     1       0.002  -0.004   0.002  0.00  0.00    +0.013 C 
ENDBRANCH   1  13
TORSDOF 2
