REMARK  Name = ZINC10066897
REMARK  10 active torsions:
REMARK  status: ('A' for Active; 'I' for Inactive)
REMARK    1  A    between atoms: C_1  and  C_2
REMARK    2  A    between atoms: C_2  and  N_54
REMARK    3  A    between atoms: C_3  and  C_4
REMARK    4  A    between atoms: C_3  and  N_54
REMARK    5  A    between atoms: C_5  and  C_6
REMARK    6  A    between atoms: C_5  and  N_54
REMARK    7  A    between atoms: C_6  and  N_7
REMARK    8  A    between atoms: C_20  and  C_22
REMARK    9  A    between atoms: C_23  and  C_24
REMARK   10  A    between atoms: C_27  and  N_29
REMARK                            x       y       z     vdW  Elec       q    Type
REMARK                         _______ _______ _______ _____ _____    ______ ____
ROOT
ATOM      1  N   UNL     1       0.049   1.192  -2.411  0.00  0.00    -0.249 N 
ATOM      2  C   UNL     1      -0.205  -0.023  -3.025  0.00  0.00    +0.168 A 
ATOM      3  N   UNL     1      -1.092  -0.937  -2.706  0.00  0.00    -0.224 NA
ATOM      4  C   UNL     1      -1.235  -2.085  -3.405  0.00  0.00    +0.084 A 
ATOM      5  C   UNL     1      -2.147  -3.140  -3.170  0.00  0.00    +0.078 A 
ATOM      6  C   UNL     1      -2.163  -4.255  -3.975  0.00  0.00    +0.168 A 
ATOM      7  C   UNL     1      -1.276  -4.377  -5.049  0.00  0.00    +0.167 A 
ATOM      8  C   UNL     1      -0.372  -3.361  -5.304  0.00  0.00    +0.066 A 
ATOM      9  C   UNL     1      -0.357  -2.248  -4.500  0.00  0.00    +0.044 A 
ATOM     10  S   UNL     1       0.595  -0.748  -4.449  0.00  0.00    -0.052 S 
ATOM     11  O   UNL     1      -1.503  -5.568  -5.674  0.00  0.00    -0.453 OA
ATOM     12  C   UNL     1      -2.255  -6.357  -4.733  0.00  0.00    +0.466 C 
ATOM     13  O   UNL     1      -2.945  -5.377  -3.936  0.00  0.00    -0.453 OA
ATOM     14  C   UNL     1       1.016   1.999  -2.889  0.00  0.00    +0.245 C 
ATOM     15  O   UNL     1       1.667   1.660  -3.861  0.00  0.00    -0.270 OA
ENDROOT
BRANCH  14  16
ATOM     16  C   UNL     1       1.276   3.239  -2.262  0.00  0.00    +0.069 C 
ATOM     17  C   UNL     1       2.250   4.052  -2.743  0.00  0.00    +0.020 C 
BRANCH  17  18
ATOM     18  C   UNL     1       2.510   5.294  -2.115  0.00  0.00    +0.015 A 
ATOM     19  C   UNL     1       3.455   6.260  -2.442  0.00  0.00    +0.018 A 
ATOM     20  C   UNL     1       3.490   7.386  -1.659  0.00  0.00    +0.041 A 
ATOM     21  C   UNL     1       2.625   7.497  -0.615  0.00  0.00    +0.164 A 
ATOM     22  S   UNL     1       1.716   6.023  -0.694  0.00  0.00    -0.065 S 
BRANCH  21  23
ATOM     23  N   UNL     1       2.493   8.608   0.354  0.00  0.00    +0.063 N 
ATOM     24  O   UNL     1       3.219   9.583   0.267  0.00  0.00    -0.126 OA
ATOM     25  O   UNL     1       1.657   8.549   1.238  0.00  0.00    -0.126 OA
ENDBRANCH  21  23
ENDBRANCH  17  18
ENDBRANCH  14  16
BRANCH   1  26
ATOM     26  C   UNL     1      -0.733   1.599  -1.241  0.00  0.00    +0.097 C 
BRANCH  26  27
ATOM     27  C   UNL     1      -0.045   1.102   0.031  0.00  0.00    -0.059 C 
BRANCH  27  28
ATOM     28  N   UNL     1      -0.767   1.641   1.203  0.00  0.00    +0.380 N 
ATOM     29  H   UNL     1      -1.007   2.623   1.023  0.00  0.00    -0.082 HD
BRANCH  28  31
ATOM     30  C   UNL     1      -2.845   1.588   2.493  0.00  0.00    -0.017 C 
ATOM     31  C   UNL     1      -2.012   0.876   1.425  0.00  0.00    -0.082 C 
ENDBRANCH  28  31
BRANCH  28  32
ATOM     32  C   UNL     1       0.092   1.568   2.403  0.00  0.00    -0.082 C 
ATOM     33  C   UNL     1       1.116   2.704   2.343  0.00  0.00    -0.017 C 
ENDBRANCH  28  32
ENDBRANCH  27  28
ENDBRANCH  26  27
ENDBRANCH   1  26
TORSDOF 8
