REMARK  Name = ZINC03150011
REMARK  7 active torsions:
REMARK  status: ('A' for Active; 'I' for Inactive)
REMARK    1  A    between atoms: C_1  and  C_2
REMARK    2  A    between atoms: C_2  and  C_3
REMARK    3  A    between atoms: C_2  and  O_4
REMARK    4  A    between atoms: O_4  and  C_5
REMARK    5  A    between atoms: C_8  and  C_11
REMARK    6  A    between atoms: C_21  and  C_23
REMARK    7  A    between atoms: C_21  and  C_24
REMARK                            x       y       z     vdW  Elec       q    Type
REMARK                         _______ _______ _______ _____ _____    ______ ____
ROOT
ATOM      1  C   UNL     1      -2.773   0.627  -2.813  0.00  0.00    +0.282 C 
ATOM      2  O   UNL     1      -2.107   0.140  -3.980  0.00  0.00    -0.347 OA
ATOM      3  C   UNL     1      -0.824   0.735  -4.203  0.00  0.00    +0.166 C 
ATOM      4  C   UNL     1       0.061   0.483  -2.977  0.00  0.00    +0.063 C 
ATOM      5  C   UNL     1      -0.669   0.987  -1.729  0.00  0.00    +0.080 C 
ATOM      6  O   UNL     1      -1.961   0.380  -1.663  0.00  0.00    -0.340 OA
ATOM      7  C   UNL     1      -0.819   2.508  -1.802  0.00  0.00    +0.063 C 
ATOM      8  C   UNL     1      -1.478   3.010  -0.515  0.00  0.00    +0.163 C 
ATOM      9  O   UNL     1      -0.691   2.610   0.609  0.00  0.00    -0.374 OA
ATOM     10  C   UNL     1      -0.558   1.195   0.756  0.00  0.00    +0.067 C 
ATOM     11  C   UNL     1       0.137   0.618  -0.481  0.00  0.00    +0.069 C 
ATOM     12  C   UNL     1      -1.945   0.565   0.902  0.00  0.00    +0.041 C 
ATOM     13  C   UNL     1       0.276   0.885   2.000  0.00  0.00    +0.041 C 
ENDROOT
BRANCH   1  17
ATOM     14  C   UNL     1      -6.519  -1.381  -2.371  0.00  0.00    +0.121 A 
ATOM     15  C   UNL     1      -6.261  -0.635  -3.512  0.00  0.00    +0.046 A 
ATOM     16  C   UNL     1      -5.050   0.013  -3.652  0.00  0.00    +0.012 A 
ATOM     17  C   UNL     1      -4.094  -0.081  -2.657  0.00  0.00    +0.008 A 
ATOM     18  C   UNL     1      -4.347  -0.829  -1.522  0.00  0.00    +0.012 A 
ATOM     19  C   UNL     1      -5.559  -1.474  -1.374  0.00  0.00    +0.046 A 
BRANCH  14  20
ATOM     20  O   UNL     1      -7.711  -2.019  -2.230  0.00  0.00    -0.489 OA
BRANCH  20  22
ATOM     21  C   UNL     1      -9.552  -3.179  -3.282  0.00  0.00    +0.051 C 
ATOM     22  C   UNL     1      -8.604  -1.980  -3.345  0.00  0.00    +0.167 C 
ATOM     23  C   UNL     1      -9.418  -0.684  -3.300  0.00  0.00    +0.051 C 
ENDBRANCH  20  22
ENDBRANCH  14  20
ENDBRANCH   1  17
TORSDOF 3
