REMARK  Name = ZINC05516980
REMARK  4 active torsions:
REMARK  status: ('A' for Active; 'I' for Inactive)
REMARK    1  A    between atoms: C_1  and  C_2
REMARK    2  A    between atoms: C_2  and  C_13
REMARK    3  A    between atoms: N_3  and  N_4
REMARK    4  A    between atoms: C_5  and  C_7
REMARK                            x       y       z     vdW  Elec       q    Type
REMARK                         _______ _______ _______ _____ _____    ______ ____
ROOT
ATOM      1  C   UNL     1      -2.585   1.520   0.024  0.00  0.00    +0.071 C 
ATOM      2  C   UNL     1      -1.227   2.172   0.020  0.00  0.00    +0.098 C 
ATOM      3  N   UNL     1      -1.128   3.469   0.026  0.00  0.00    -0.181 NA
ENDROOT
BRANCH   2   4
ATOM      4  C   UNL     1      -0.016   1.345   0.009  0.00  0.00    +0.151 A 
ATOM      5  C   UNL     1       1.257   1.821  -0.000  0.00  0.00    +0.059 A 
ATOM      6  C   UNL     1       2.129   0.646  -0.015  0.00  0.00    +0.021 A 
ATOM      7  C   UNL     1       3.513   0.461  -0.029  0.00  0.00    +0.011 A 
ATOM      8  C   UNL     1       4.027  -0.806  -0.040  0.00  0.00    +0.001 A 
ATOM      9  C   UNL     1       3.183  -1.907  -0.038  0.00  0.00    +0.004 A 
ATOM     10  C   UNL     1       1.814  -1.745  -0.025  0.00  0.00    +0.047 A 
ATOM     11  C   UNL     1       1.268  -0.468  -0.013  0.00  0.00    +0.136 A 
ATOM     12  O   UNL     1       0.002  -0.004   0.002  0.00  0.00    -0.454 OA
ENDBRANCH   2   4
BRANCH   3  13
ATOM     13  N   UNL     1      -2.284   4.260   0.036  0.00  0.00    -0.200 N 
ATOM     14  C   UNL     1      -2.182   5.604   0.042  0.00  0.00    +0.299 C 
ATOM     15  O   UNL     1      -1.084   6.130   0.039  0.00  0.00    -0.265 OA
ATOM     16  H   UNL     1      -3.159   3.840   0.038  0.00  0.00    +0.178 HD
BRANCH  14  17
ATOM     17  C   UNL     1      -3.391   6.430   0.053  0.00  0.00    +0.192 A 
ATOM     18  C   UNL     1      -3.430   7.796   0.065  0.00  0.00    +0.056 A 
ATOM     19  C   UNL     1      -4.784   8.162   0.070  0.00  0.00    +0.058 A 
ATOM     20  C   UNL     1      -5.506   7.017   0.068  0.00  0.00    +0.171 A 
ATOM     21  O   UNL     1      -4.662   5.976   0.057  0.00  0.00    -0.444 OA
ATOM     22 BR   UNL     1      -7.393   6.905   0.077  0.00  0.00    -0.008 Br
ENDBRANCH  14  17
ENDBRANCH   3  13
TORSDOF 3
