REMARK  Name = ZINC12660065
REMARK  6 active torsions:
REMARK  status: ('A' for Active; 'I' for Inactive)
REMARK    1  A    between atoms: C_1  and  C_2
REMARK    2  A    between atoms: N_6  and  N_7
REMARK    3  A    between atoms: C_8  and  C_10
REMARK    4  A    between atoms: C_26  and  C_42
REMARK    5  A    between atoms: N_32  and  N_33
REMARK    6  A    between atoms: C_34  and  C_36
REMARK                            x       y       z     vdW  Elec       q    Type
REMARK                         _______ _______ _______ _____ _____    ______ ____
ROOT
ATOM      1  C   UNL     1      -2.508   0.510   3.714  0.00  0.00    +0.016 C 
ATOM      2  C   UNL     1      -2.795   1.516   2.598  0.00  0.00    -0.007 C 
ATOM      3  C   UNL     1      -2.209   2.879   2.975  0.00  0.00    +0.017 C 
ATOM      4  C   UNL     1      -2.872   3.362   4.270  0.00  0.00    +0.058 C 
ATOM      5  C   UNL     1      -4.366   3.410   4.065  0.00  0.00    +0.059 C 
ATOM      6  N   UNL     1      -5.090   4.244   4.750  0.00  0.00    -0.185 NA
ATOM      7  C   UNL     1      -4.999   2.516   3.091  0.00  0.00    +0.024 C 
ATOM      8  C   UNL     1      -4.282   1.639   2.402  0.00  0.00    -0.062 C 
ATOM      9  C   UNL     1      -4.940   0.738   1.387  0.00  0.00    +0.031 C 
ATOM     10  C   UNL     1      -4.339   1.000   0.014  0.00  0.00    +0.008 C 
ATOM     11  C   UNL     1      -2.916   1.547   0.087  0.00  0.00    -0.003 C 
ATOM     12  C   UNL     1      -2.152   1.029   1.292  0.00  0.00    +0.002 C 
ATOM     13  C   UNL     1      -0.720   1.574   1.269  0.00  0.00    +0.005 C 
ATOM     14  C   UNL     1      -0.013   1.086   0.008  0.00  0.00    +0.013 C 
ATOM     15  C   UNL     1      -0.737   1.583  -1.223  0.00  0.00    +0.011 C 
ATOM     16  C   UNL     1      -2.221   1.186  -1.232  0.00  0.00    +0.004 C 
ATOM     17  C   UNL     1      -2.789   2.163  -2.305  0.00  0.00    +0.010 C 
ATOM     18  C   UNL     1      -2.020   3.476  -2.036  0.00  0.00    +0.053 C 
ATOM     19  C   UNL     1      -0.728   3.089  -1.338  0.00  0.00    +0.043 C 
ATOM     20  N   UNL     1       0.188   3.883  -0.928  0.00  0.00    -0.188 NA
ATOM     21  C   UNL     1      -0.076   0.986  -2.467  0.00  0.00    +0.018 C 
ENDROOT
BRANCH   6  22
ATOM     22  N   UNL     1      -6.477   4.288   4.559  0.00  0.00    -0.203 N 
ATOM     23  C   UNL     1      -7.228   5.153   5.269  0.00  0.00    +0.263 C 
ATOM     24  O   UNL     1      -6.702   5.895   6.076  0.00  0.00    -0.268 OA
ATOM     25  H   UNL     1      -6.897   3.697   3.915  0.00  0.00    +0.178 HD
BRANCH  23  26
ATOM     26  C   UNL     1      -8.694   5.200   5.067  0.00  0.00    +0.041 A 
ATOM     27  C   UNL     1      -9.319   4.359   4.140  0.00  0.00    +0.033 A 
ATOM     28  C   UNL     1     -10.690   4.432   3.988  0.00  0.00    +0.111 A 
ATOM     29  N   UNL     1     -11.405   5.286   4.694  0.00  0.00    -0.263 NA
ATOM     30  C   UNL     1     -10.856   6.099   5.574  0.00  0.00    +0.111 A 
ATOM     31  C   UNL     1      -9.492   6.089   5.794  0.00  0.00    +0.033 A 
ENDBRANCH  23  26
ENDBRANCH   6  22
BRANCH  20  32
ATOM     32  N   UNL     1       0.050   5.266  -1.109  0.00  0.00    -0.203 N 
ATOM     33  C   UNL     1       1.015   6.101  -0.677  0.00  0.00    +0.263 C 
ATOM     34  O   UNL     1       2.005   5.656  -0.130  0.00  0.00    -0.268 OA
ATOM     35  H   UNL     1      -0.740   5.621  -1.546  0.00  0.00    +0.178 HD
BRANCH  33  36
ATOM     36  C   UNL     1       0.869   7.563  -0.869  0.00  0.00    +0.041 A 
ATOM     37  C   UNL     1      -0.259   8.095  -1.501  0.00  0.00    +0.033 A 
ATOM     38  C   UNL     1      -0.356   9.465  -1.655  0.00  0.00    +0.111 A 
ATOM     39  N   UNL     1       0.599  10.264  -1.224  0.00  0.00    -0.263 NA
ATOM     40  C   UNL     1       1.681   9.803  -0.628  0.00  0.00    +0.111 A 
ATOM     41  C   UNL     1       1.858   8.448  -0.428  0.00  0.00    +0.033 A 
ENDBRANCH  33  36
ENDBRANCH  20  32
TORSDOF 4
