REMARK  Name = ZINC47152282
REMARK  11 active torsions:
REMARK  status: ('A' for Active; 'I' for Inactive)
REMARK    1  A    between atoms: C_3  and  N_31
REMARK    2  A    between atoms: C_6  and  N_7
REMARK    3  A    between atoms: C_8  and  C_10
REMARK    4  A    between atoms: C_10  and  C_11
REMARK    5  A    between atoms: C_11  and  C_12
REMARK    6  A    between atoms: C_12  and  C_13
REMARK    7  A    between atoms: C_13  and  C_14
REMARK    8  A    between atoms: C_14  and  N_15
REMARK    9  A    between atoms: C_19  and  C_20
REMARK   10  A    between atoms: C_23  and  O_27
REMARK   11  A    between atoms: C_25  and  O_26
REMARK                            x       y       z     vdW  Elec       q    Type
REMARK                         _______ _______ _______ _____ _____    ______ ____
ROOT
ATOM      1  C   UNL     1      -3.579  -7.276  -0.624  0.00  0.00    +0.115 C 
ENDROOT
BRANCH   1   2
ATOM      2  N   UNL     1      -3.584  -8.736  -0.736  0.00  0.00    -0.255 N 
ATOM      3  C   UNL     1      -3.566  -9.292  -1.936  0.00  0.00    +0.258 C 
ATOM      4  O   UNL     1      -3.546  -8.620  -2.951  0.00  0.00    -0.269 OA
ATOM      5  C   UNL     1      -3.572 -10.766  -1.983  0.00  0.00    +0.077 C 
ATOM      6  C   UNL     1      -3.557 -11.598  -3.057  0.00  0.00    +0.031 C 
ATOM      7  S   UNL     1      -3.603 -11.157  -0.239  0.00  0.00    -0.061 S 
ATOM      8  C   UNL     1      -3.601  -9.484   0.386  0.00  0.00    +0.121 C 
ATOM      9  S   UNL     1      -3.619  -8.957   2.015  0.00  0.00    -0.027 S 
BRANCH   6  10
ATOM     10  C   UNL     1      -3.398 -13.043  -2.863  0.00  0.00    +0.018 A 
ATOM     11  C   UNL     1      -2.755 -13.533  -1.719  0.00  0.00    +0.015 A 
ATOM     12  C   UNL     1      -2.609 -14.889  -1.542  0.00  0.00    +0.046 A 
ATOM     13  C   UNL     1      -3.096 -15.777  -2.495  0.00  0.00    +0.120 A 
ATOM     14  C   UNL     1      -3.735 -15.304  -3.633  0.00  0.00    +0.091 A 
ATOM     15  C   UNL     1      -3.895 -13.943  -3.822  0.00  0.00    +0.127 A 
BRANCH  15  16
ATOM     16  O   UNL     1      -4.524 -13.479  -4.931  0.00  0.00    -0.506 OA
ATOM     17  H   UNL     1      -3.933 -13.316  -5.679  0.00  0.00    +0.292 HD
ENDBRANCH  15  16
BRANCH  13  18
ATOM     18  O   UNL     1      -2.946 -17.114  -2.312  0.00  0.00    -0.507 OA
ATOM     19  H   UNL     1      -3.678 -17.530  -1.835  0.00  0.00    +0.292 HD
ENDBRANCH  13  18
ENDBRANCH   6  10
ENDBRANCH   1   2
BRANCH   1  20
ATOM     20  C   UNL     1      -2.135  -6.773  -0.566  0.00  0.00    +0.019 C 
BRANCH  20  21
ATOM     21  C   UNL     1      -2.130  -5.248  -0.448  0.00  0.00    +0.002 C 
BRANCH  21  22
ATOM     22  C   UNL     1      -0.685  -4.746  -0.391  0.00  0.00    +0.009 C 
BRANCH  22  23
ATOM     23  C   UNL     1      -0.680  -3.220  -0.273  0.00  0.00    +0.096 C 
BRANCH  23  25
ATOM     24  N   UNL     1       0.993  -1.406  -0.112  0.00  0.00    -0.285 N 
ATOM     25  C   UNL     1       0.742  -2.726  -0.217  0.00  0.00    +0.217 C 
ATOM     26  O   UNL     1       1.661  -3.515  -0.266  0.00  0.00    -0.275 OA
ATOM     27  H   UNL     1       0.260  -0.780   0.001  0.00  0.00    +0.155 HD
BRANCH  24  33
ATOM     28  C   UNL     1       3.239  -1.564  -0.985  0.00  0.00    +0.025 A 
ATOM     29  C   UNL     1       4.539  -1.099  -1.036  0.00  0.00    +0.034 A 
ATOM     30  C   UNL     1       4.915  -0.011  -0.271  0.00  0.00    +0.126 A 
ATOM     31  C   UNL     1       3.993   0.616   0.547  0.00  0.00    +0.034 A 
ATOM     32  C   UNL     1       2.692   0.155   0.603  0.00  0.00    +0.025 A 
ATOM     33  C   UNL     1       2.310  -0.937  -0.165  0.00  0.00    +0.034 A 
BRANCH  30  34
ATOM     34  N   UNL     1       6.309   0.485  -0.328  0.00  0.00    +0.056 N 
ATOM     35  O   UNL     1       7.117  -0.062  -1.042  0.00  0.00    -0.126 OA
ATOM     36  O   UNL     1       6.640   1.437   0.341  0.00  0.00    -0.126 OA
ENDBRANCH  30  34
ENDBRANCH  24  33
ENDBRANCH  23  25
ENDBRANCH  22  23
ENDBRANCH  21  22
ENDBRANCH  20  21
ENDBRANCH   1  20
TORSDOF 11
