REMARK  Name = ZINC09578247
REMARK  6 active torsions:
REMARK  status: ('A' for Active; 'I' for Inactive)
REMARK    1  A    between atoms: C_4  and  C_7
REMARK    2  A    between atoms: C_18  and  C_20
REMARK    3  A    between atoms: C_20  and  S_21
REMARK    4  A    between atoms: S_21  and  C_22
REMARK    5  A    between atoms: C_25  and  C_28
REMARK    6  A    between atoms: N_26  and  N_27
REMARK                            x       y       z     vdW  Elec       q    Type
REMARK                         _______ _______ _______ _____ _____    ______ ____
ROOT
ATOM      1  C   UNL     1      -1.034   6.282   0.454  0.00  0.00    +0.122 C 
ATOM      2  C   UNL     1      -1.121   5.821   1.917  0.00  0.00    +0.102 C 
ATOM      3  S   UNL     1      -1.806   4.137   1.925  0.00  0.00    -0.121 S 
ATOM      4  C   UNL     1      -0.885   3.320   0.661  0.00  0.00    +0.029 A 
ATOM      5  C   UNL     1      -0.915   1.932   0.594  0.00  0.00    +0.016 A 
ATOM      6  C   UNL     1      -0.207   1.268  -0.388  0.00  0.00    +0.001 A 
ATOM      7  C   UNL     1       0.528   1.987  -1.313  0.00  0.00    +0.002 A 
ATOM      8  C   UNL     1       0.562   3.365  -1.254  0.00  0.00    +0.024 A 
ATOM      9  C   UNL     1      -0.144   4.047  -0.265  0.00  0.00    +0.050 A 
ATOM     10  N   UNL     1      -0.066   5.441  -0.245  0.00  0.00    -0.261 N 
ATOM     11  C   UNL     1       0.949   6.038  -0.900  0.00  0.00    +0.231 C 
ATOM     12  O   UNL     1       0.876   7.214  -1.188  0.00  0.00    -0.274 OA
ENDROOT
BRANCH   1  16
ATOM     13  C   UNL     1       0.238  10.357   0.309  0.00  0.00    +0.000 A 
ATOM     14  C   UNL     1      -0.863   9.950  -0.421  0.00  0.00    +0.000 A 
ATOM     15  C   UNL     1      -1.274   8.631  -0.374  0.00  0.00    +0.005 A 
ATOM     16  C   UNL     1      -0.585   7.719   0.403  0.00  0.00    -0.026 A 
ATOM     17  C   UNL     1       0.513   8.127   1.137  0.00  0.00    +0.005 A 
ATOM     18  C   UNL     1       0.928   9.445   1.086  0.00  0.00    +0.000 A 
ENDBRANCH   1  16
BRANCH  11  19
ATOM     19  C   UNL     1       2.175   5.245  -1.274  0.00  0.00    +0.173 C 
BRANCH  19  20
ATOM     20  S   UNL     1       3.621   6.333  -1.274  0.00  0.00    -0.075 S 
BRANCH  20  21
ATOM     21  C   UNL     1       4.872   5.180  -1.731  0.00  0.00    +0.209 A 
ATOM     22  N   UNL     1       4.699   3.901  -1.982  0.00  0.00    -0.120 NA
ATOM     23  N   UNL     1       5.821   3.354  -2.286  0.00  0.00    -0.123 NA
ATOM     24  C   UNL     1       6.782   4.250  -2.248  0.00  0.00    +0.217 A 
ATOM     25  N   UNL     1       6.202   5.449  -1.897  0.00  0.00    -0.221 N 
BRANCH  24  26
ATOM     26  C   UNL     1       8.207   4.018  -2.532  0.00  0.00    +0.173 A 
ATOM     27  C   UNL     1       8.731   2.924  -3.152  0.00  0.00    +0.053 A 
ATOM     28  C   UNL     1      10.124   3.122  -3.214  0.00  0.00    +0.042 A 
ATOM     29  C   UNL     1      10.381   4.312  -2.636  0.00  0.00    +0.196 A 
ATOM     30  O   UNL     1       9.221   4.853  -2.229  0.00  0.00    -0.460 OA
ENDBRANCH  24  26
BRANCH  25  31
ATOM     31  N   UNL     1       6.825   6.655  -1.743  0.00  0.00    -0.294 N 
ATOM     32  H   UNL     1       7.143   6.779  -0.793  0.00  0.00    +0.163 HD
ATOM     33  H   UNL     1       7.588   6.753  -2.395  0.00  0.00    +0.163 HD
ENDBRANCH  25  31
ENDBRANCH  20  21
ENDBRANCH  19  20
ENDBRANCH  11  19
TORSDOF 6
