REMARK  Name = ZINC19961788
REMARK  8 active torsions:
REMARK  status: ('A' for Active; 'I' for Inactive)
REMARK    1  A    between atoms: C_1  and  C_2
REMARK    2  A    between atoms: C_2  and  C_3
REMARK    3  A    between atoms: C_8  and  N_9
REMARK    4  A    between atoms: C_10  and  C_12
REMARK    5  A    between atoms: C_12  and  C_13
REMARK    6  A    between atoms: C_21  and  C_23
REMARK    7  A    between atoms: C_23  and  N_24
REMARK    8  A    between atoms: N_27  and  C_30
REMARK                            x       y       z     vdW  Elec       q    Type
REMARK                         _______ _______ _______ _____ _____    ______ ____
ROOT
ATOM      1  C   UNL     1       9.459   4.798   3.797  0.00  0.00    +0.170 C 
ATOM      2  C   UNL     1      10.019   6.110   4.276  0.00  0.00    +0.234 C 
ATOM      3  O   UNL     1      10.458   6.174   5.404  0.00  0.00    -0.274 OA
ATOM      4  N   UNL     1      10.054   7.205   3.516  0.00  0.00    -0.312 N 
ATOM      5  C   UNL     1       9.485   7.303   2.179  0.00  0.00    +0.123 C 
ATOM      6  C   UNL     1       9.339   5.912   1.547  0.00  0.00    +0.127 C 
ATOM      7  N   UNL     1       8.721   5.024   2.546  0.00  0.00    -0.289 N 
ATOM      8  C   UNL     1       7.529   4.436   2.319  0.00  0.00    +0.200 C 
ATOM      9  O   UNL     1       7.044   3.705   3.157  0.00  0.00    -0.278 OA
ATOM     10  H   UNL     1      10.557   8.075   3.964  0.00  0.00    +0.149 HD
ENDROOT
BRANCH   1  11
ATOM     11  C   UNL     1      10.604   3.814   3.546  0.00  0.00    +0.128 C 
BRANCH  11  13
ATOM     12  N   UNL     1      10.864   1.439   2.903  0.00  0.00    -0.285 N 
ATOM     13  C   UNL     1      10.037   2.469   3.171  0.00  0.00    +0.219 C 
ATOM     14  O   UNL     1       8.835   2.313   3.111  0.00  0.00    -0.275 OA
ATOM     15  H   UNL     1      11.951   1.602   2.869  0.00  0.00    +0.155 HD
BRANCH  12  21
ATOM     16  C   UNL     1      11.055  -0.754   1.909  0.00  0.00    -0.026 A 
ATOM     17  C   UNL     1      10.538  -2.015   1.685  0.00  0.00    +0.005 A 
ATOM     18  C   UNL     1       9.304  -2.360   2.205  0.00  0.00    +0.000 A 
ATOM     19  C   UNL     1       8.587  -1.447   2.957  0.00  0.00    +0.002 A 
ATOM     20  C   UNL     1       9.101  -0.187   3.190  0.00  0.00    +0.023 A 
ATOM     21  C   UNL     1      10.340   0.163   2.668  0.00  0.00    +0.037 A 
BRANCH  16  23
ATOM     22  C   UNL     1      13.485  -0.616   2.384  0.00  0.00    +0.009 C 
ATOM     23  C   UNL     1      12.396  -0.375   1.336  0.00  0.00    +0.033 C 
ENDBRANCH  16  23
ENDBRANCH  12  21
ENDBRANCH  11  13
ENDBRANCH   1  11
BRANCH   8  24
ATOM     24  C   UNL     1       6.798   4.689   1.026  0.00  0.00    +0.019 C 
BRANCH  24  25
ATOM     25  N   UNL     1       5.534   3.941   1.024  0.00  0.00    +0.387 N 
ATOM     26  C   UNL     1       4.686   4.343  -0.108  0.00  0.00    -0.059 C 
ATOM     27  C   UNL     1       3.350   3.600  -0.029  0.00  0.00    +0.086 C 
ATOM     28  N   UNL     1       3.596   2.151  -0.048  0.00  0.00    -0.333 N 
ATOM     29  C   UNL     1       4.443   1.750   1.084  0.00  0.00    +0.086 C 
ATOM     30  C   UNL     1       5.779   2.492   1.005  0.00  0.00    -0.059 C 
ATOM     31  H   UNL     1       4.997   4.183   1.953  0.00  0.00    -0.081 HD
BRANCH  28  32
ATOM     32  C   UNL     1       2.394   1.440  -0.050  0.00  0.00    +0.030 A 
ATOM     33  C   UNL     1       1.182   2.119  -0.035  0.00  0.00    +0.023 A 
ATOM     34  C   UNL     1      -0.004   1.413  -0.038  0.00  0.00    +0.002 A 
ATOM     35  C   UNL     1       0.013   0.030  -0.054  0.00  0.00    +0.000 A 
ATOM     36  C   UNL     1       1.217  -0.650  -0.069  0.00  0.00    +0.002 A 
ATOM     37  C   UNL     1       2.407   0.051  -0.066  0.00  0.00    +0.023 A 
ENDBRANCH  28  32
ENDBRANCH  24  25
ENDBRANCH   8  24
TORSDOF 7
