REMARK  Name = ZINC40285029
REMARK  7 active torsions:
REMARK  status: ('A' for Active; 'I' for Inactive)
REMARK    1  A    between atoms: C_1  and  C_2
REMARK    2  A    between atoms: C_2  and  C_3
REMARK    3  A    between atoms: C_4  and  C_22
REMARK    4  A    between atoms: C_5  and  N_21
REMARK    5  A    between atoms: C_7  and  C_20
REMARK    6  A    between atoms: C_8  and  C_19
REMARK    7  A    between atoms: C_13  and  C_18
REMARK                            x       y       z     vdW  Elec       q    Type
REMARK                         _______ _______ _______ _____ _____    ______ ____
ROOT
ATOM      1  C   UNL     1      -0.906  -0.766  -0.200  0.00  0.00    +0.048 A 
ATOM      2  C   UNL     1      -1.409  -1.034   1.061  0.00  0.00    -0.008 A 
ATOM      3  C   UNL     1      -2.719  -1.486   1.189  0.00  0.00    +0.040 A 
ATOM      4  C   UNL     1      -3.474  -1.651   0.017  0.00  0.00    +0.043 A 
ATOM      5  C   UNL     1      -4.842  -2.091  -0.263  0.00  0.00    -0.019 A 
ATOM      6  C   UNL     1      -5.004  -2.042  -1.594  0.00  0.00    +0.028 A 
ATOM      7  N   UNL     1      -3.845  -1.605  -2.188  0.00  0.00    -0.282 N 
ATOM      8  C   UNL     1      -2.891  -1.357  -1.227  0.00  0.00    +0.149 A 
ATOM      9  N   UNL     1      -1.637  -0.923  -1.284  0.00  0.00    -0.233 NA
ATOM     10  C   UNL     1      -3.662  -1.437  -3.561  0.00  0.00    +0.142 A 
ATOM     11  C   UNL     1      -3.248  -0.206  -4.055  0.00  0.00    -0.008 A 
ATOM     12  C   UNL     1      -3.070  -0.053  -5.419  0.00  0.00    +0.008 A 
ATOM     13  C   UNL     1      -3.314  -1.142  -6.245  0.00  0.00    +0.020 A 
ATOM     14  C   UNL     1      -3.724  -2.336  -5.685  0.00  0.00    +0.113 A 
ATOM     15  N   UNL     1      -3.880  -2.453  -4.381  0.00  0.00    -0.237 NA
ATOM     16  C   UNL     1      -2.996   0.948  -3.119  0.00  0.00    +0.047 C 
ATOM     17  C   UNL     1      -6.267  -2.413  -2.328  0.00  0.00    +0.064 C 
ATOM     18  C   UNL     1      -5.872  -2.518   0.751  0.00  0.00    +0.046 C 
ATOM     19  C   UNL     1      -0.548  -0.838   2.282  0.00  0.00    +0.047 C 
ENDROOT
BRANCH   3  20
ATOM     20  N   UNL     1      -3.261  -1.767   2.437  0.00  0.00    -0.357 N 
ATOM     21  H   UNL     1      -2.725  -1.648   3.237  0.00  0.00    +0.142 HD
ATOM     22  H   UNL     1      -4.176  -2.081   2.509  0.00  0.00    +0.142 HD
ENDBRANCH   3  20
BRANCH   1  24
ATOM     23  C   UNL     1       0.533   1.253  -0.268  0.00  0.00    +0.010 C 
ATOM     24  C   UNL     1       0.513  -0.276  -0.335  0.00  0.00    +0.052 C 
ENDBRANCH   1  24
TORSDOF 2
