REMARK  Name = ZINC54503588
REMARK  3 active torsions:
REMARK  status: ('A' for Active; 'I' for Inactive)
REMARK    1  A    between atoms: C_1  and  C_2
REMARK    2  A    between atoms: C_5  and  N_8
REMARK    3  A    between atoms: C_11  and  C_16
REMARK                            x       y       z     vdW  Elec       q    Type
REMARK                         _______ _______ _______ _____ _____    ______ ____
ROOT
ATOM      1  N   UNL     1       0.057  -4.172  -0.021  0.00  0.00    -0.193 N 
ATOM      2  C   UNL     1       0.165  -4.934   1.086  0.00  0.00    +0.248 C 
ATOM      3  O   UNL     1       0.260  -4.551   2.232  0.00  0.00    -0.273 OA
ATOM      4  C   UNL     1       0.140  -6.370   0.599  0.00  0.00    +0.164 C 
ATOM      5  N   UNL     1       0.010  -6.237  -0.863  0.00  0.00    -0.287 N 
ATOM      6  C   UNL     1      -0.036  -4.919  -1.127  0.00  0.00    +0.314 C 
ATOM      7  O   UNL     1      -0.145  -4.458  -2.246  0.00  0.00    -0.252 OA
ATOM      8  H   UNL     1      -0.038  -6.960  -1.508  0.00  0.00    +0.151 HD
ENDROOT
BRANCH   1  13
ATOM      9  C   UNL     1      -0.018   1.503   0.010  0.00  0.00    +0.044 C 
ATOM     10  C   UNL     1       0.002  -0.004   0.002  0.00  0.00    -0.050 A 
ATOM     11  C   UNL     1       0.028  -0.687  -1.200  0.00  0.00    +0.005 A 
ATOM     12  C   UNL     1       0.046  -2.068  -1.211  0.00  0.00    +0.024 A 
ATOM     13  C   UNL     1       0.039  -2.771  -0.013  0.00  0.00    +0.045 A 
ATOM     14  C   UNL     1       0.014  -2.082   1.192  0.00  0.00    +0.024 A 
ATOM     15  C   UNL     1       0.001  -0.701   1.196  0.00  0.00    +0.005 A 
ENDBRANCH   1  13
BRANCH   4  16
ATOM     16  C   UNL     1      -1.060  -7.116   1.184  0.00  0.00    +0.018 C 
ATOM     17  C   UNL     1      -0.776  -8.219   2.206  0.00  0.00    +0.006 C 
ATOM     18  C   UNL     1      -1.238  -8.585   0.794  0.00  0.00    +0.006 C 
ENDBRANCH   4  16
TORSDOF 2
