REMARK  Name = ZINC10507533
REMARK  16 active torsions:
REMARK  status: ('A' for Active; 'I' for Inactive)
REMARK    1  A    between atoms: C_1  and  C_2
REMARK    2  A    between atoms: C_2  and  O_3
REMARK    3  A    between atoms: O_3  and  C_4
REMARK    4  A    between atoms: C_4  and  C_5
REMARK    5  A    between atoms: C_5  and  O_6
REMARK    6  A    between atoms: O_6  and  C_7
REMARK    7  A    between atoms: C_12  and  N_13
REMARK    8  A    between atoms: N_13  and  C_14
REMARK    9  A    between atoms: C_14  and  N_16
REMARK   10  A    between atoms: C_17  and  C_19
REMARK   11  A    between atoms: C_24  and  O_25
REMARK   12  A    between atoms: O_25  and  C_26
REMARK   13  A    between atoms: C_26  and  C_27
REMARK   14  A    between atoms: C_27  and  C_28
REMARK   15  A    between atoms: C_28  and  C_29
REMARK   16  A    between atoms: C_28  and  C_30
REMARK                            x       y       z     vdW  Elec       q    Type
REMARK                         _______ _______ _______ _____ _____    ______ ____
ROOT
ATOM      1  N   UNL     1      -0.053  -0.025   0.234  0.00  0.00    -0.263 N 
ATOM      2  C   UNL     1       1.088  -0.703   0.467  0.00  0.00    +0.253 C 
ATOM      3  O   UNL     1       2.117  -0.100   0.699  0.00  0.00    -0.270 OA
ATOM      4  H   UNL     1      -0.875  -0.506   0.049  0.00  0.00    +0.157 HD
ENDROOT
BRANCH   2   5
ATOM      5  C   UNL     1       1.087  -2.178   0.441  0.00  0.00    +0.080 A 
ATOM      6  C   UNL     1      -0.095  -2.875   0.181  0.00  0.00    +0.032 A 
ATOM      7  C   UNL     1      -0.088  -4.254   0.153  0.00  0.00    +0.019 A 
ATOM      8  C   UNL     1       1.086  -4.951   0.393  0.00  0.00    +0.019 A 
ATOM      9  C   UNL     1       2.260  -4.274   0.656  0.00  0.00    +0.047 A 
ATOM     10  C   UNL     1       2.271  -2.887   0.683  0.00  0.00    +0.133 A 
ATOM     11 BR   UNL     1      -1.687  -5.197  -0.207  0.00  0.00    -0.050 Br
BRANCH  10  12
ATOM     12  O   UNL     1       3.424  -2.221   0.942  0.00  0.00    -0.491 OA
BRANCH  12  13
ATOM     13  C   UNL     1       4.591  -3.011   1.179  0.00  0.00    +0.229 C 
BRANCH  13  14
ATOM     14  C   UNL     1       5.783  -2.091   1.451  0.00  0.00    +0.044 C 
BRANCH  14  15
ATOM     15  C   UNL     1       7.032  -2.937   1.705  0.00  0.00    -0.014 C 
ATOM     16  C   UNL     1       7.396  -3.705   0.432  0.00  0.00    +0.007 C 
ATOM     17  C   UNL     1       8.195  -2.024   2.099  0.00  0.00    +0.007 C 
ENDBRANCH  14  15
ENDBRANCH  13  14
ENDBRANCH  12  13
ENDBRANCH  10  12
ENDBRANCH   2   5
BRANCH   1  18
ATOM     18  C   UNL     1      -0.053   1.323   0.257  0.00  0.00    +0.141 C 
ATOM     19  S   UNL     1       1.397   2.173   0.584  0.00  0.00    -0.018 S 
BRANCH  18  20
ATOM     20  N   UNL     1      -1.192   2.002   0.019  0.00  0.00    -0.294 N 
ATOM     21  H   UNL     1      -1.998   1.523  -0.232  0.00  0.00    +0.154 HD
BRANCH  20  27
ATOM     22  C   UNL     1      -2.233   4.026   0.844  0.00  0.00    +0.142 A 
ATOM     23  C   UNL     1      -2.248   5.407   0.952  0.00  0.00    +0.047 A 
ATOM     24  C   UNL     1      -1.254   6.158   0.356  0.00  0.00    +0.004 A 
ATOM     25  C   UNL     1      -0.241   5.536  -0.351  0.00  0.00    +0.002 A 
ATOM     26  C   UNL     1      -0.215   4.158  -0.459  0.00  0.00    +0.027 A 
ATOM     27  C   UNL     1      -1.213   3.398   0.132  0.00  0.00    +0.075 A 
BRANCH  22  28
ATOM     28  O   UNL     1      -3.211   3.285   1.430  0.00  0.00    -0.488 OA
BRANCH  28  29
ATOM     29  C   UNL     1      -4.224   3.996   2.143  0.00  0.00    +0.257 C 
BRANCH  29  30
ATOM     30  C   UNL     1      -5.229   3.002   2.730  0.00  0.00    +0.200 C 
BRANCH  30  31
ATOM     31  O   UNL     1      -4.578   2.188   3.708  0.00  0.00    -0.377 OA
BRANCH  31  33
ATOM     32  C   UNL     1      -4.635   0.411   5.345  0.00  0.00    +0.034 C 
ATOM     33  C   UNL     1      -5.433   1.221   4.320  0.00  0.00    +0.156 C 
ENDBRANCH  31  33
ENDBRANCH  30  31
ENDBRANCH  29  30
ENDBRANCH  28  29
ENDBRANCH  22  28
ENDBRANCH  20  27
ENDBRANCH  18  20
ENDBRANCH   1  18
TORSDOF 13
