REMARK  Name = ZINC04003252
REMARK  10 active torsions:
REMARK  status: ('A' for Active; 'I' for Inactive)
REMARK    1  A    between atoms: C_1  and  C_2
REMARK    2  A    between atoms: C_2  and  C_3
REMARK    3  A    between atoms: C_2  and  C_4
REMARK    4  A    between atoms: C_2  and  C_19
REMARK    5  A    between atoms: C_4  and  N_5
REMARK    6  A    between atoms: N_5  and  C_6
REMARK    7  A    between atoms: C_9  and  N_16
REMARK    8  A    between atoms: C_19  and  N_20
REMARK    9  A    between atoms: N_20  and  S_21
REMARK   10  A    between atoms: S_21  and  C_24
REMARK                            x       y       z     vdW  Elec       q    Type
REMARK                         _______ _______ _______ _____ _____    ______ ____
ROOT
ATOM      1  C   UNL     1      -0.597   3.043  -3.714  0.00  0.00    +0.014 C 
ATOM      2  C   UNL     1      -1.860   3.458  -2.956  0.00  0.00    -0.005 C 
ATOM      3  C   UNL     1      -3.043   2.615  -3.436  0.00  0.00    +0.014 C 
ENDROOT
BRANCH   2   4
ATOM      4  C   UNL     1      -2.149   4.938  -3.218  0.00  0.00    +0.109 C 
BRANCH   4   5
ATOM      5  N   UNL     1      -2.349   5.149  -4.654  0.00  0.00    -0.342 N 
ATOM      6  H   UNL     1      -2.288   4.401  -5.267  0.00  0.00    +0.146 HD
BRANCH   5   7
ATOM      7  C   UNL     1      -2.628   6.427  -5.138  0.00  0.00    +0.054 A 
ATOM      8  C   UNL     1      -2.716   7.494  -4.271  0.00  0.00    +0.027 A 
ATOM      9  C   UNL     1      -2.993   8.774  -4.741  0.00  0.00    +0.035 A 
ATOM     10  C   UNL     1      -3.184   9.007  -6.069  0.00  0.00    +0.135 A 
ATOM     11  C   UNL     1      -3.103   7.945  -6.985  0.00  0.00    +0.032 A 
ATOM     12  C   UNL     1      -2.816   6.638  -6.521  0.00  0.00    +0.094 A 
ATOM     13  N   UNL     1      -2.742   5.625  -7.389  0.00  0.00    -0.253 NA
ATOM     14  C   UNL     1      -2.921   5.814  -8.674  0.00  0.00    +0.111 A 
ATOM     15  C   UNL     1      -3.200   7.075  -9.197  0.00  0.00    +0.020 A 
ATOM     16  C   UNL     1      -3.295   8.153  -8.364  0.00  0.00    +0.014 A 
BRANCH  10  17
ATOM     17  N   UNL     1      -3.478  10.377  -6.547  0.00  0.00    +0.057 N 
ATOM     18  O   UNL     1      -2.927  11.333  -6.031  0.00  0.00    -0.126 OA
ATOM     19  O   UNL     1      -4.269  10.548  -7.457  0.00  0.00    -0.126 OA
ENDBRANCH  10  17
ENDBRANCH   5   7
ENDBRANCH   4   5
ENDBRANCH   2   4
BRANCH   2  20
ATOM     20  C   UNL     1      -1.651   3.237  -1.456  0.00  0.00    +0.113 C 
BRANCH  20  21
ATOM     21  N   UNL     1      -1.374   1.821  -1.206  0.00  0.00    -0.189 NA
ATOM     22  H   UNL     1      -1.559   1.161  -1.893  0.00  0.00    +0.148 HD
BRANCH  21  23
ATOM     23  S   UNL     1      -0.746   1.345   0.251  0.00  0.00    +0.058 S 
ATOM     24  O   UNL     1      -0.619  -0.069   0.196  0.00  0.00    -0.153 OA
ATOM     25  O   UNL     1       0.358   2.200   0.516  0.00  0.00    -0.153 OA
BRANCH  23  26
ATOM     26  C   UNL     1      -1.960   1.694   1.480  0.00  0.00    +0.105 A 
ATOM     27  C   UNL     1      -1.962   2.919   2.120  0.00  0.00    +0.029 A 
ATOM     28  C   UNL     1      -2.917   3.195   3.081  0.00  0.00    +0.017 A 
ATOM     29  C   UNL     1      -3.863   2.240   3.410  0.00  0.00    +0.018 A 
ATOM     30  C   UNL     1      -3.856   1.012   2.773  0.00  0.00    +0.017 A 
ATOM     31  C   UNL     1      -2.905   0.740   1.808  0.00  0.00    +0.029 A 
ATOM     32 BR   UNL     1      -5.165   2.614   4.729  0.00  0.00    -0.050 Br
ENDBRANCH  23  26
ENDBRANCH  21  23
ENDBRANCH  20  21
ENDBRANCH   2  20
TORSDOF 8
