REMARK  Name = ZINC56768123
REMARK  7 active torsions:
REMARK  status: ('A' for Active; 'I' for Inactive)
REMARK    1  A    between atoms: C_1  and  C_2
REMARK    2  A    between atoms: C_2  and  C_26
REMARK    3  A    between atoms: C_4  and  N_10
REMARK    4  A    between atoms: C_6  and  C_8
REMARK    5  A    between atoms: C_6  and  C_9
REMARK    6  A    between atoms: N_13  and  C_14
REMARK    7  A    between atoms: C_17  and  N_20
REMARK                            x       y       z     vdW  Elec       q    Type
REMARK                         _______ _______ _______ _____ _____    ______ ____
ROOT
ATOM      1  N   UNL     1      -2.928  -2.411   0.186  0.00  0.00    -0.296 N 
ATOM      2  C   UNL     1      -3.243  -3.683  -0.129  0.00  0.00    +0.304 C 
ATOM      3  O   UNL     1      -2.363  -4.478  -0.397  0.00  0.00    -0.253 OA
ATOM      4  N   UNL     1      -4.533  -4.073  -0.147  0.00  0.00    -0.269 N 
ATOM      5  H   UNL     1      -3.629  -1.776   0.400  0.00  0.00    +0.151 HD
ATOM      6  H   UNL     1      -5.229  -3.458   0.131  0.00  0.00    +0.156 HD
ENDROOT
BRANCH   1  10
ATOM      7  C   UNL     1      -0.022   1.544   0.033  0.00  0.00    -0.010 C 
ATOM      8  C   UNL     1       0.000  -0.002   0.014  0.00  0.00    -0.072 C 
ATOM      9  C   UNL     1      -1.448  -0.478  -0.034  0.00  0.00    +0.009 C 
ATOM     10  C   UNL     1      -1.522  -1.986   0.205  0.00  0.00    +0.072 C 
ATOM     11  C   UNL     1      -0.926  -2.280   1.582  0.00  0.00    +0.009 C 
ATOM     12  C   UNL     1       0.527  -1.819   1.641  0.00  0.00    -0.072 C 
ATOM     13  N   UNL     1       0.714  -0.449   1.198  0.00  0.00    +0.386 N 
ATOM     14  C   UNL     1       1.410  -2.787   0.848  0.00  0.00    -0.010 C 
ATOM     15  C   UNL     1       0.978  -1.901   3.118  0.00  0.00    -0.010 C 
ATOM     16  C   UNL     1       0.727  -0.425  -1.267  0.00  0.00    -0.010 C 
ATOM     17  H   UNL     1       1.715  -0.294   1.046  0.00  0.00    -0.084 HD
ATOM     18  H   UNL     1       0.469   0.175   1.973  0.00  0.00    -0.084 HD
ENDBRANCH   1  10
BRANCH   4  19
ATOM     19  C   UNL     1      -4.868  -5.367  -0.567  0.00  0.00    +0.035 A 
ATOM     20  C   UNL     1      -6.042  -5.584  -1.276  0.00  0.00    +0.025 A 
ATOM     21  C   UNL     1      -6.372  -6.859  -1.690  0.00  0.00    +0.025 A 
ATOM     22  C   UNL     1      -5.529  -7.924  -1.399  0.00  0.00    +0.040 A 
ATOM     23  C   UNL     1      -4.355  -7.706  -0.691  0.00  0.00    +0.025 A 
ATOM     24  C   UNL     1      -4.022  -6.430  -0.281  0.00  0.00    +0.025 A 
BRANCH  22  25
ATOM     25  N   UNL     1      -5.864  -9.218  -1.820  0.00  0.00    -0.234 N 
ATOM     26  C   UNL     1      -5.075 -10.442  -1.581  0.00  0.00    +0.158 C 
ATOM     27  C   UNL     1      -6.093 -11.558  -1.917  0.00  0.00    +0.253 C 
ATOM     28  O   UNL     1      -7.001 -10.879  -2.806  0.00  0.00    -0.448 OA
ATOM     29  C   UNL     1      -6.966  -9.568  -2.510  0.00  0.00    +0.407 C 
ATOM     30  O   UNL     1      -7.834  -8.782  -2.834  0.00  0.00    -0.226 OA
ENDBRANCH  22  25
ENDBRANCH   4  19
TORSDOF 3
