REMARK  Name = ZINC09630839
REMARK  14 active torsions:
REMARK  status: ('A' for Active; 'I' for Inactive)
REMARK    1  A    between atoms: C_1  and  C_2
REMARK    2  A    between atoms: C_4  and  N_12
REMARK    3  A    between atoms: C_5  and  N_9
REMARK    4  A    between atoms: C_7  and  C_8
REMARK    5  A    between atoms: C_13  and  C_15
REMARK    6  A    between atoms: C_15  and  O_16
REMARK    7  A    between atoms: O_16  and  C_17
REMARK    8  A    between atoms: C_17  and  C_19
REMARK    9  A    between atoms: C_19  and  C_21
REMARK   10  A    between atoms: C_19  and  N_25
REMARK   11  A    between atoms: C_21  and  C_23
REMARK   12  A    between atoms: C_21  and  O_24
REMARK   13  A    between atoms: N_25  and  S_26
REMARK   14  A    between atoms: S_26  and  C_29
REMARK                            x       y       z     vdW  Elec       q    Type
REMARK                         _______ _______ _______ _____ _____    ______ ____
ROOT
ATOM      1  C   UNL     1      -3.667   1.484   0.042  0.00  0.00    +0.329 C 
ATOM      2  O   UNL     1      -3.841   2.679   0.065  0.00  0.00    -0.249 OA
ENDROOT
BRANCH   1   3
ATOM      3  O   UNL     1      -2.420   0.988   0.023  0.00  0.00    -0.454 OA
BRANCH   3   4
ATOM      4  C   UNL     1      -1.329   1.946   0.031  0.00  0.00    +0.328 C 
BRANCH   4   6
ATOM      5  N   UNL     1       1.144   1.899   0.004  0.00  0.00    -0.281 N 
ATOM      6  C   UNL     1      -0.014   1.210   0.007  0.00  0.00    +0.255 C 
ATOM      7  O   UNL     1       0.002  -0.003  -0.014  0.00  0.00    -0.272 OA
ATOM      8  H   UNL     1       1.132   2.867  -0.060  0.00  0.00    +0.155 HD
BRANCH   5  12
ATOM      9  C   UNL     1       3.688  -2.060   1.427  0.00  0.00    +0.044 C 
ATOM     10  C   UNL     1       3.625  -0.701   0.777  0.00  0.00    -0.046 A 
ATOM     11  C   UNL     1       2.420  -0.032   0.692  0.00  0.00    +0.029 A 
ATOM     12  C   UNL     1       2.364   1.219   0.093  0.00  0.00    +0.064 A 
ATOM     13  C   UNL     1       3.519   1.792  -0.422  0.00  0.00    +0.148 A 
ATOM     14  C   UNL     1       4.722   1.120  -0.329  0.00  0.00    +0.038 A 
ATOM     15  C   UNL     1       4.775  -0.126   0.268  0.00  0.00    -0.045 A 
ATOM     16  C   UNL     1       6.088  -0.859   0.364  0.00  0.00    +0.044 C 
BRANCH  13  17
ATOM     17  N   UNL     1       3.462   3.124  -1.066  0.00  0.00    +0.058 N 
ATOM     18  O   UNL     1       4.456   3.586  -1.597  0.00  0.00    -0.126 OA
ATOM     19  O   UNL     1       2.422   3.757  -1.065  0.00  0.00    -0.126 OA
ENDBRANCH  13  17
ENDBRANCH   5  12
ENDBRANCH   4   6
ENDBRANCH   3   4
ENDBRANCH   1   3
BRANCH   1  20
ATOM     20  C   UNL     1      -4.850   0.550   0.036  0.00  0.00    +0.213 C 
BRANCH  20  21
ATOM     21  C   UNL     1      -4.814  -0.310  -1.229  0.00  0.00    +0.141 C 
ATOM     22  C   UNL     1      -3.582  -1.217  -1.194  0.00  0.00    +0.040 C 
BRANCH  21  23
ATOM     23  O   UNL     1      -4.749   0.536  -2.379  0.00  0.00    -0.390 OA
ATOM     24  H   UNL     1      -4.724   0.057  -3.218  0.00  0.00    +0.210 HD
ENDBRANCH  21  23
ENDBRANCH  20  21
BRANCH  20  25
ATOM     25  N   UNL     1      -6.089   1.331   0.060  0.00  0.00    -0.174 NA
ATOM     26  H   UNL     1      -6.136   2.180  -0.407  0.00  0.00    +0.149 HD
BRANCH  25  27
ATOM     27  S   UNL     1      -7.409   0.765   0.884  0.00  0.00    +0.059 S 
ATOM     28  O   UNL     1      -8.427   1.746   0.743  0.00  0.00    -0.153 OA
ATOM     29  O   UNL     1      -7.591  -0.586   0.480  0.00  0.00    -0.153 OA
BRANCH  27  30
ATOM     30  C   UNL     1      -6.980   0.726   2.592  0.00  0.00    +0.105 A 
ATOM     31  C   UNL     1      -6.414  -0.411   3.137  0.00  0.00    +0.030 A 
ATOM     32  C   UNL     1      -6.072  -0.440   4.476  0.00  0.00    +0.022 A 
ATOM     33  C   UNL     1      -6.306   0.666   5.274  0.00  0.00    +0.041 A 
ATOM     34  C   UNL     1      -6.877   1.802   4.729  0.00  0.00    +0.022 A 
ATOM     35  C   UNL     1      -7.213   1.832   3.389  0.00  0.00    +0.030 A 
ATOM     36 CL   UNL     1      -5.883   0.628   6.957  0.00  0.00    -0.084 Cl
ENDBRANCH  27  30
ENDBRANCH  25  27
ENDBRANCH  20  25
ENDBRANCH   1  20
TORSDOF 11
