REMARK  Name = ZINC34954484
REMARK  6 active torsions:
REMARK  status: ('A' for Active; 'I' for Inactive)
REMARK    1  A    between atoms: C_4  and  C_7
REMARK    2  A    between atoms: C_7  and  C_8
REMARK    3  A    between atoms: C_17  and  C_25
REMARK    4  A    between atoms: C_18  and  N_24
REMARK    5  A    between atoms: C_19  and  C_20
REMARK    6  A    between atoms: C_19  and  C_22
REMARK                            x       y       z     vdW  Elec       q    Type
REMARK                         _______ _______ _______ _____ _____    ______ ____
ROOT
ATOM      1  C   UNL     1       4.171  -0.963   1.399  0.00  0.00    +0.041 C 
ATOM      2  C   UNL     1       5.504  -1.715   1.384  0.00  0.00    +0.026 C 
ATOM      3  C   UNL     1       6.520  -1.043   0.491  0.00  0.00    +0.009 C 
ATOM      4  C   UNL     1       7.496  -0.179   1.288  0.00  0.00    +0.005 C 
ATOM      5  C   UNL     1       8.215  -1.077   2.304  0.00  0.00    +0.027 C 
ATOM      6  C   UNL     1       7.173  -1.651   3.229  0.00  0.00    -0.022 C 
ATOM      7  C   UNL     1       5.964  -1.888   2.801  0.00  0.00    -0.029 C 
ATOM      8  C   UNL     1       4.947  -2.336   3.788  0.00  0.00    +0.074 C 
ATOM      9  C   UNL     1       3.632  -2.284   3.458  0.00  0.00    +0.054 C 
ATOM     10  C   UNL     1       3.129  -1.812   2.127  0.00  0.00    +0.184 C 
ENDROOT
BRANCH   9  11
ATOM     11  N   UNL     1       2.715  -2.680   4.391  0.00  0.00    -0.358 N 
ATOM     12  H   UNL     1       3.011  -2.988   5.262  0.00  0.00    +0.142 HD
ATOM     13  H   UNL     1       1.768  -2.653   4.183  0.00  0.00    +0.142 HD
ENDBRANCH   9  11
BRANCH  10  14
ATOM     14  C   UNL     1       1.911  -1.010   2.327  0.00  0.00    +0.091 C 
ATOM     15  N   UNL     1       0.971  -0.391   2.481  0.00  0.00    -0.195 NA
ENDBRANCH  10  14
BRANCH  10  16
ATOM     16  C   UNL     1       2.800  -2.984   1.298  0.00  0.00    +0.091 C 
ATOM     17  N   UNL     1       2.546  -3.888   0.659  0.00  0.00    -0.195 NA
ENDBRANCH  10  16
BRANCH   8  18
ATOM     18  C   UNL     1       5.351  -2.819   5.074  0.00  0.00    +0.101 C 
ATOM     19  N   UNL     1       5.672  -3.202   6.095  0.00  0.00    -0.191 NA
ENDBRANCH   8  18
BRANCH   1  20
ATOM     20  C   UNL     1       3.711  -0.707  -0.038  0.00  0.00    +0.042 C 
BRANCH  20  24
ATOM     21  C   UNL     1       0.205   1.732   0.002  0.00  0.00    +0.000 A 
ATOM     22  C   UNL     1       1.455   2.320  -0.047  0.00  0.00    +0.000 A 
ATOM     23  C   UNL     1       2.590   1.531  -0.060  0.00  0.00    +0.003 A 
ATOM     24  C   UNL     1       2.474   0.154  -0.023  0.00  0.00    -0.047 A 
ATOM     25  C   UNL     1       1.224  -0.434   0.027  0.00  0.00    +0.003 A 
ATOM     26  C   UNL     1       0.089   0.355   0.038  0.00  0.00    +0.000 A 
ENDBRANCH  20  24
ENDBRANCH   1  20
TORSDOF 6
