REMARK  Name = ZINC25538128
REMARK  9 active torsions:
REMARK  status: ('A' for Active; 'I' for Inactive)
REMARK    1  A    between atoms: C_1  and  C_2
REMARK    2  A    between atoms: C_2  and  C_3
REMARK    3  A    between atoms: C_2  and  C_4
REMARK    4  A    between atoms: C_4  and  C_6
REMARK    5  A    between atoms: C_4  and  N_20
REMARK    6  A    between atoms: N_8  and  C_9
REMARK    7  A    between atoms: C_9  and  C_10
REMARK    8  A    between atoms: C_13  and  C_15
REMARK    9  A    between atoms: C_21  and  C_23
REMARK                            x       y       z     vdW  Elec       q    Type
REMARK                         _______ _______ _______ _____ _____    ______ ____
ROOT
ATOM      1  C   UNL     1      -3.761  -1.064   0.001  0.00  0.00    +0.162 C 
ENDROOT
BRANCH   1   2
ATOM      2  C   UNL     1      -3.691  -2.422  -0.647  0.00  0.00    +0.234 C 
ATOM      3  O   UNL     1      -2.617  -2.888  -0.965  0.00  0.00    -0.274 OA
ATOM      4  N   UNL     1      -4.821  -3.120  -0.874  0.00  0.00    -0.308 N 
ATOM      5  H   UNL     1      -5.787  -2.737  -0.512  0.00  0.00    +0.149 HD
BRANCH   4   6
ATOM      6  C   UNL     1      -4.765  -4.389  -1.604  0.00  0.00    +0.163 C 
BRANCH   6   7
ATOM      7  C   UNL     1      -6.154  -4.963  -1.722  0.00  0.00    +0.097 A 
ATOM      8  C   UNL     1      -6.990  -4.803  -2.763  0.00  0.00    +0.222 A 
ATOM      9  O   UNL     1      -8.123  -5.476  -2.474  0.00  0.00    -0.443 OA
ATOM     10  C   UNL     1      -7.971  -6.031  -1.258  0.00  0.00    +0.234 A 
ATOM     11  N   UNL     1      -6.777  -5.719  -0.804  0.00  0.00    -0.212 NA
BRANCH  10  12
ATOM     12  C   UNL     1      -8.971  -6.848  -0.555  0.00  0.00    +0.074 A 
ATOM     13  C   UNL     1     -10.241  -7.212  -0.962  0.00  0.00    +0.021 A 
ATOM     14  C   UNL     1     -10.998  -7.995  -0.122  0.00  0.00    +0.008 A 
ATOM     15  C   UNL     1     -10.482  -8.375   1.077  0.00  0.00    +0.046 A 
ATOM     16  S   UNL     1      -8.864  -7.622   1.050  0.00  0.00    -0.092 S 
ENDBRANCH  10  12
ENDBRANCH   6   7
ENDBRANCH   4   6
ENDBRANCH   1   2
BRANCH   1  17
ATOM     17  N   UNL     1      -2.499  -0.353  -0.217  0.00  0.00    -0.300 N 
ATOM     18  C   UNL     1      -2.472   0.995  -0.197  0.00  0.00    +0.246 C 
ATOM     19  O   UNL     1      -3.496   1.620   0.003  0.00  0.00    -0.270 OA
ATOM     20  H   UNL     1      -1.573  -0.919  -0.397  0.00  0.00    +0.150 HD
BRANCH  18  21
ATOM     21  C   UNL     1      -1.200   1.712  -0.417  0.00  0.00    +0.055 A 
ATOM     22  C   UNL     1      -0.022   0.996  -0.646  0.00  0.00    +0.016 A 
ATOM     23  C   UNL     1       1.161   1.671  -0.856  0.00  0.00    +0.021 A 
ATOM     24  C   UNL     1       1.186   3.056  -0.835  0.00  0.00    +0.042 A 
ATOM     25  C   UNL     1       0.024   3.772  -0.603  0.00  0.00    +0.040 A 
ATOM     26  C   UNL     1      -1.168   3.108  -0.391  0.00  0.00    +0.054 A 
ATOM     27 CL   UNL     1      -2.625   4.007  -0.101  0.00  0.00    -0.083 Cl
ATOM     28 CL   UNL     1       2.681   3.898  -1.099  0.00  0.00    -0.083 Cl
ENDBRANCH  18  21
ENDBRANCH   1  17
BRANCH   1  30
ATOM     29  C   UNL     1      -2.797  -1.926   2.139  0.00  0.00    +0.009 C 
ATOM     30  C   UNL     1      -4.001  -1.228   1.504  0.00  0.00    +0.012 C 
ATOM     31  C   UNL     1      -4.188   0.149   2.143  0.00  0.00    +0.009 C 
ENDBRANCH   1  30
TORSDOF 7
