REMARK  Name = ZINC12508832
REMARK  11 active torsions:
REMARK  status: ('A' for Active; 'I' for Inactive)
REMARK    1  A    between atoms: C_1  and  C_2
REMARK    2  A    between atoms: C_2  and  C_4
REMARK    3  A    between atoms: C_2  and  N_58
REMARK    4  A    between atoms: C_4  and  C_5
REMARK    5  A    between atoms: C_5  and  C_6
REMARK    6  A    between atoms: C_21  and  S_27
REMARK    7  A    between atoms: C_22  and  C_23
REMARK    8  A    between atoms: C_23  and  O_25
REMARK    9  A    between atoms: O_25  and  C_26
REMARK   10  A    between atoms: S_27  and  N_30
REMARK   11  A    between atoms: N_30  and  C_31
REMARK                            x       y       z     vdW  Elec       q    Type
REMARK                         _______ _______ _______ _____ _____    ______ ____
ROOT
ATOM      1  C   UNL     1       1.319   2.026  -0.157  0.00  0.00    -0.073 C 
ATOM      2  C   UNL     1       1.261   3.478  -0.641  0.00  0.00    +0.018 C 
ATOM      3  C   UNL     1       0.260   4.229   0.229  0.00  0.00    -0.025 A 
ATOM      4  C   UNL     1      -0.641   3.544   0.973  0.00  0.00    -0.021 A 
ATOM      5  S   UNL     1      -1.575   4.794   1.804  0.00  0.00    -0.074 S 
ATOM      6  C   UNL     1      -0.782   6.200   1.172  0.00  0.00    +0.157 A 
ATOM      7  C   UNL     1       0.181   5.671   0.338  0.00  0.00    +0.096 A 
ATOM      8  C   UNL     1      -0.783   2.057   1.048  0.00  0.00    -0.035 C 
ATOM      9  N   UNL     1      -0.050   1.472  -0.101  0.00  0.00    +0.385 N 
ATOM     10  H   UNL     1      -0.543   1.712  -0.969  0.00  0.00    -0.081 HD
ENDROOT
BRANCH   6  11
ATOM     11  S   UNL     1      -1.124   7.895   1.512  0.00  0.00    +0.065 S 
ATOM     12  O   UNL     1       0.010   8.407   2.199  0.00  0.00    -0.153 OA
ATOM     13  O   UNL     1      -1.603   8.464   0.302  0.00  0.00    -0.153 OA
BRANCH  11  14
ATOM     14  N   UNL     1      -2.385   7.934   2.585  0.00  0.00    -0.193 NA
ATOM     15  C   UNL     1      -2.215   7.389   3.935  0.00  0.00    +0.127 C 
ATOM     16  H   UNL     1      -3.235   8.318   2.320  0.00  0.00    +0.148 HD
ENDBRANCH  11  14
ENDBRANCH   6  11
BRANCH   9  18
ATOM     17  C   UNL     1       0.566  -0.590  -1.266  0.00  0.00    -0.013 C 
ATOM     18  C   UNL     1       0.005   0.000   0.029  0.00  0.00    -0.071 C 
BRANCH  18  19
ATOM     19  C   UNL     1      -1.409  -0.535   0.263  0.00  0.00    -0.011 C 
BRANCH  19  20
ATOM     20  C   UNL     1      -1.350  -2.045   0.502  0.00  0.00    +0.036 C 
BRANCH  20  21
ATOM     21  C   UNL     1      -2.749  -2.587   0.638  0.00  0.00    -0.022 A 
ATOM     22  C   UNL     1      -3.420  -2.791   1.783  0.00  0.00    +0.087 A 
ATOM     23  N   UNL     1      -4.663  -3.293   1.512  0.00  0.00    -0.360 N 
ATOM     24  H   UNL     1      -5.330  -3.520   2.180  0.00  0.00    +0.165 HD
ATOM     25  C   UNL     1      -4.828  -3.427   0.152  0.00  0.00    +0.047 A 
ATOM     26  C   UNL     1      -3.639  -2.986  -0.456  0.00  0.00    +0.003 A 
ATOM     27  C   UNL     1      -3.519  -3.003  -1.847  0.00  0.00    +0.010 A 
ATOM     28  C   UNL     1      -4.561  -3.447  -2.612  0.00  0.00    +0.001 A 
ATOM     29  C   UNL     1      -5.738  -3.880  -2.017  0.00  0.00    +0.002 A 
ATOM     30  C   UNL     1      -5.875  -3.878  -0.646  0.00  0.00    +0.026 A 
ENDBRANCH  20  21
ENDBRANCH  19  20
ENDBRANCH  18  19
ENDBRANCH   9  18
BRANCH   7  31
ATOM     31  C   UNL     1       1.096   6.542  -0.415  0.00  0.00    +0.342 C 
ATOM     32  O   UNL     1       0.793   6.925  -1.528  0.00  0.00    -0.245 OA
BRANCH  31  33
ATOM     33  O   UNL     1       2.271   6.916   0.130  0.00  0.00    -0.464 OA
ATOM     34  C   UNL     1       3.125   7.776  -0.670  0.00  0.00    +0.280 C 
ENDBRANCH  31  33
ENDBRANCH   7  31
TORSDOF 8
