REMARK  Name = ZINC38670054
REMARK  11 active torsions:
REMARK  status: ('A' for Active; 'I' for Inactive)
REMARK    1  A    between atoms: C_1  and  C_2
REMARK    2  A    between atoms: C_5  and  N_9
REMARK    3  A    between atoms: C_7  and  C_8
REMARK    4  A    between atoms: C_11  and  C_16
REMARK    5  A    between atoms: N_18  and  C_19
REMARK    6  A    between atoms: C_19  and  C_20
REMARK    7  A    between atoms: C_20  and  C_22
REMARK    8  A    between atoms: C_20  and  N_32
REMARK    9  A    between atoms: N_30  and  C_31
REMARK   10  A    between atoms: N_32  and  C_33
REMARK   11  A    between atoms: N_32  and  C_34
REMARK                            x       y       z     vdW  Elec       q    Type
REMARK                         _______ _______ _______ _____ _____    ______ ____
ROOT
ATOM      1  C   UNL     1       1.875  -6.649  -1.296  0.00  0.00    +0.218 C 
ATOM      2  O   UNL     1       2.507  -5.715  -1.740  0.00  0.00    -0.275 OA
ATOM      3  N   UNL     1       2.510  -7.785  -0.943  0.00  0.00    -0.316 N 
ATOM      4  H   UNL     1       2.004  -8.532  -0.587  0.00  0.00    +0.149 HD
ENDROOT
BRANCH   1   7
ATOM      5  N   UNL     1      -0.143  -4.321  -0.398  0.00  0.00    -0.271 N 
ATOM      6  C   UNL     1      -0.126  -5.158  -1.604  0.00  0.00    +0.127 C 
ATOM      7  C   UNL     1       0.380  -6.541  -1.138  0.00  0.00    +0.101 C 
ATOM      8  C   UNL     1      -0.021  -6.538   0.355  0.00  0.00    +0.110 C 
ATOM      9  C   UNL     1      -0.085  -5.070   0.717  0.00  0.00    +0.221 C 
ATOM     10  O   UNL     1      -0.086  -4.633   1.848  0.00  0.00    -0.275 OA
BRANCH   5  15
ATOM     11  C   UNL     1      -0.398   1.346  -0.438  0.00  0.00    +0.044 C 
ATOM     12  C   UNL     1      -0.330  -0.160  -0.428  0.00  0.00    -0.047 A 
ATOM     13  C   UNL     1      -0.388  -0.844   0.773  0.00  0.00    +0.005 A 
ATOM     14  C   UNL     1      -0.326  -2.224   0.786  0.00  0.00    +0.024 A 
ATOM     15  C   UNL     1      -0.207  -2.924  -0.408  0.00  0.00    +0.037 A 
ATOM     16  C   UNL     1      -0.150  -2.233  -1.611  0.00  0.00    +0.027 A 
ATOM     17  C   UNL     1      -0.217  -0.853  -1.618  0.00  0.00    -0.046 A 
ATOM     18  C   UNL     1      -0.161  -0.103  -2.924  0.00  0.00    +0.044 C 
ENDBRANCH   5  15
ENDBRANCH   1   7
BRANCH   3  19
ATOM     19  C   UNL     1       3.963  -7.890  -1.096  0.00  0.00    +0.093 C 
BRANCH  19  20
ATOM     20  C   UNL     1       4.412  -9.308  -0.740  0.00  0.00    -0.021 C 
BRANCH  20  21
ATOM     21  C   UNL     1       4.134  -9.572   0.718  0.00  0.00    -0.059 A 
ATOM     22  C   UNL     1       4.994  -9.087   1.687  0.00  0.00    +0.004 A 
ATOM     23  C   UNL     1       4.743  -9.327   3.020  0.00  0.00    +0.023 A 
ATOM     24  C   UNL     1       3.618 -10.060   3.405  0.00  0.00    +0.033 A 
ATOM     25  C   UNL     1       2.761 -10.540   2.426  0.00  0.00    -0.025 A 
ATOM     26  C   UNL     1       3.015 -10.293   1.091  0.00  0.00    +0.007 A 
ATOM     27  C   UNL     1       1.634 -11.290   3.099  0.00  0.00    +0.056 C 
ATOM     28  C   UNL     1       1.944 -11.185   4.602  0.00  0.00    +0.109 C 
ATOM     29  N   UNL     1       3.185 -10.409   4.685  0.00  0.00    -0.332 N 
ATOM     30  C   UNL     1       3.870 -10.053   5.929  0.00  0.00    +0.129 C 
ENDBRANCH  20  21
BRANCH  20  31
ATOM     31  N   UNL     1       5.852  -9.445  -0.996  0.00  0.00    +0.382 N 
ATOM     32  C   UNL     1       6.298 -10.784  -0.587  0.00  0.00    -0.096 C 
ATOM     33  C   UNL     1       6.115  -9.258  -2.429  0.00  0.00    -0.096 C 
ATOM     34  H   UNL     1       6.355  -8.747  -0.468  0.00  0.00    -0.082 HD
ENDBRANCH  20  31
ENDBRANCH  19  20
ENDBRANCH   3  19
TORSDOF 6
