REMARK  Name = ZINC39708160
REMARK  6 active torsions:
REMARK  status: ('A' for Active; 'I' for Inactive)
REMARK    1  A    between atoms: C_1  and  C_2
REMARK    2  A    between atoms: C_5  and  S_8
REMARK    3  A    between atoms: S_8  and  N_11
REMARK    4  A    between atoms: N_11  and  C_12
REMARK    5  A    between atoms: C_12  and  C_13
REMARK    6  A    between atoms: C_15  and  C_26
REMARK                            x       y       z     vdW  Elec       q    Type
REMARK                         _______ _______ _______ _____ _____    ______ ____
ROOT
ATOM      1  C   UNL     1       3.793  -5.557   1.027  0.00  0.00    +0.122 C 
ATOM      2  C   UNL     1       4.605  -5.273   2.276  0.00  0.00    -0.018 C 
ATOM      3  C   UNL     1       5.896  -4.770   2.092  0.00  0.00    +0.002 A 
ATOM      4  C   UNL     1       6.720  -4.478   3.200  0.00  0.00    +0.030 A 
ATOM      5  C   UNL     1       7.973  -3.989   2.993  0.00  0.00    +0.042 A 
ATOM      6  C   UNL     1       8.462  -3.769   1.706  0.00  0.00    +0.022 A 
ATOM      7  C   UNL     1       7.713  -4.032   0.599  0.00  0.00    +0.025 A 
ATOM      8  C   UNL     1       6.409  -4.539   0.737  0.00  0.00    +0.041 A 
ATOM      9  N   UNL     1       5.676  -4.797  -0.351  0.00  0.00    -0.284 N 
ATOM     10  C   UNL     1       4.447  -5.272  -0.305  0.00  0.00    +0.226 C 
ATOM     11  O   UNL     1       3.840  -5.483  -1.339  0.00  0.00    -0.275 OA
ATOM     12 CL   UNL     1       8.983  -3.631   4.359  0.00  0.00    -0.084 Cl
ATOM     13  H   UNL     1       6.069  -4.625  -1.221  0.00  0.00    +0.155 HD
ENDROOT
BRANCH   2  14
ATOM     14  C   UNL     1       4.078  -5.506   3.571  0.00  0.00    -0.020 A 
ATOM     15  C   UNL     1       3.868  -4.434   4.453  0.00  0.00    +0.008 A 
ATOM     16  C   UNL     1       3.356  -4.671   5.709  0.00  0.00    +0.001 A 
ATOM     17  C   UNL     1       3.049  -5.963   6.104  0.00  0.00    +0.000 A 
ATOM     18  C   UNL     1       3.252  -7.028   5.242  0.00  0.00    +0.001 A 
ATOM     19  C   UNL     1       3.758  -6.812   3.979  0.00  0.00    +0.008 A 
ENDBRANCH   2  14
BRANCH   1  20
ATOM     20  C   UNL     1       2.507  -4.731   1.105  0.00  0.00    +0.123 C 
BRANCH  20  21
ATOM     21  N   UNL     1       1.555  -5.215   0.102  0.00  0.00    -0.189 NA
ATOM     22  H   UNL     1       1.858  -5.793  -0.615  0.00  0.00    +0.148 HD
BRANCH  21  23
ATOM     23  S   UNL     1      -0.038  -4.773   0.192  0.00  0.00    +0.058 S 
ATOM     24  O   UNL     1      -0.450  -5.007   1.532  0.00  0.00    -0.153 OA
ATOM     25  O   UNL     1      -0.689  -5.371  -0.920  0.00  0.00    -0.153 OA
BRANCH  23  30
ATOM     26  C   UNL     1      -0.290   1.194  -0.668  0.00  0.00    +0.044 C 
ATOM     27  C   UNL     1      -0.227  -0.296  -0.454  0.00  0.00    -0.050 A 
ATOM     28  C   UNL     1      -0.312  -1.155  -1.534  0.00  0.00    +0.005 A 
ATOM     29  C   UNL     1      -0.255  -2.522  -1.337  0.00  0.00    +0.029 A 
ATOM     30  C   UNL     1      -0.111  -3.030  -0.059  0.00  0.00    +0.105 A 
ATOM     31  C   UNL     1      -0.024  -2.172   1.021  0.00  0.00    +0.029 A 
ATOM     32  C   UNL     1      -0.078  -0.805   0.823  0.00  0.00    +0.005 A 
ENDBRANCH  23  30
ENDBRANCH  21  23
ENDBRANCH  20  21
ENDBRANCH   1  20
TORSDOF 5
