REMARK  Name = ZINC36571168
REMARK  14 active torsions:
REMARK  status: ('A' for Active; 'I' for Inactive)
REMARK    1  A    between atoms: C_1  and  C_2
REMARK    2  A    between atoms: C_2  and  C_3
REMARK    3  A    between atoms: C_3  and  N_4
REMARK    4  A    between atoms: N_4  and  C_5
REMARK    5  A    between atoms: C_5  and  C_7
REMARK    6  A    between atoms: C_5  and  C_14
REMARK    7  A    between atoms: C_10  and  C_13
REMARK    8  A    between atoms: N_16  and  C_17
REMARK    9  A    between atoms: C_17  and  S_18
REMARK   10  A    between atoms: S_18  and  C_21
REMARK   11  A    between atoms: C_24  and  C_27
REMARK   12  A    between atoms: C_28  and  C_30
REMARK   13  A    between atoms: C_31  and  O_37
REMARK   14  A    between atoms: C_35  and  O_36
REMARK                            x       y       z     vdW  Elec       q    Type
REMARK                         _______ _______ _______ _____ _____    ______ ____
ROOT
ATOM      1  C   UNL     1      -1.291  -2.821   1.087  0.00  0.00    +0.192 C 
ENDROOT
BRANCH   1   2
ATOM      2  C   UNL     1      -0.279  -3.586   1.901  0.00  0.00    -0.018 A 
ATOM      3  C   UNL     1       0.515  -2.922   2.817  0.00  0.00    +0.006 A 
ATOM      4  C   UNL     1       1.444  -3.624   3.563  0.00  0.00    +0.004 A 
ATOM      5  C   UNL     1       1.577  -4.990   3.393  0.00  0.00    -0.050 A 
ATOM      6  C   UNL     1       0.783  -5.653   2.477  0.00  0.00    +0.004 A 
ATOM      7  C   UNL     1      -0.149  -4.952   1.734  0.00  0.00    +0.006 A 
ATOM      8  C   UNL     1       2.590  -5.755   4.206  0.00  0.00    +0.044 C 
ENDBRANCH   1   2
BRANCH   1   9
ATOM      9  C   UNL     1      -2.548  -2.634   1.897  0.00  0.00    +0.239 C 
ATOM     10  O   UNL     1      -3.458  -1.964   1.457  0.00  0.00    -0.273 OA
ATOM     11  N   UNL     1      -2.661  -3.212   3.109  0.00  0.00    -0.294 N 
ATOM     12  H   UNL     1      -1.933  -3.747   3.461  0.00  0.00    +0.150 HD
BRANCH  11  13
ATOM     13  C   UNL     1      -3.884  -3.030   3.896  0.00  0.00    +0.278 C 
BRANCH  13  14
ATOM     14  S   UNL     1      -5.003  -4.428   3.606  0.00  0.00    +0.013 S 
ATOM     15  O   UNL     1      -6.167  -4.298   4.410  0.00  0.00    -0.168 OA
ATOM     16  O   UNL     1      -5.110  -4.688   2.213  0.00  0.00    -0.168 OA
BRANCH  14  17
ATOM     17  C   UNL     1      -4.157  -5.829   4.260  0.00  0.00    +0.090 A 
ATOM     18  C   UNL     1      -3.309  -6.563   3.453  0.00  0.00    +0.027 A 
ATOM     19  C   UNL     1      -2.646  -7.662   3.966  0.00  0.00    +0.005 A 
ATOM     20  C   UNL     1      -2.830  -8.026   5.287  0.00  0.00    -0.050 A 
ATOM     21  C   UNL     1      -3.678  -7.291   6.094  0.00  0.00    +0.005 A 
ATOM     22  C   UNL     1      -4.338  -6.189   5.582  0.00  0.00    +0.027 A 
ATOM     23  C   UNL     1      -2.108  -9.224   5.846  0.00  0.00    +0.044 C 
ENDBRANCH  14  17
ENDBRANCH  13  14
ENDBRANCH  11  13
ENDBRANCH   1   9
BRANCH   1  24
ATOM     24  N   UNL     1      -0.741  -1.511   0.731  0.00  0.00    -0.282 N 
ATOM     25  C   UNL     1       0.391  -1.430   0.004  0.00  0.00    +0.255 C 
ATOM     26  O   UNL     1       0.956  -2.446  -0.356  0.00  0.00    -0.270 OA
BRANCH  25  27
ATOM     27  C   UNL     1       0.944  -0.114  -0.355  0.00  0.00    +0.119 A 
ATOM     28  C   UNL     1       1.869   0.518   0.490  0.00  0.00    +0.133 A 
ATOM     29  C   UNL     1       2.383   1.757   0.143  0.00  0.00    +0.046 A 
ATOM     30  C   UNL     1       1.988   2.370  -1.032  0.00  0.00    +0.007 A 
ATOM     31  C   UNL     1       1.077   1.756  -1.871  0.00  0.00    +0.046 A 
ATOM     32  C   UNL     1       0.555   0.515  -1.546  0.00  0.00    +0.133 A 
BRANCH  32  33
ATOM     33  O   UNL     1      -0.334  -0.088  -2.375  0.00  0.00    -0.506 OA
ATOM     34  H   UNL     1      -1.257   0.133  -2.189  0.00  0.00    +0.292 HD
ENDBRANCH  32  33
BRANCH  28  35
ATOM     35  O   UNL     1       2.257  -0.082   1.643  0.00  0.00    -0.506 OA
ATOM     36  H   UNL     1       3.033  -0.651   1.548  0.00  0.00    +0.292 HD
ENDBRANCH  28  35
ENDBRANCH  25  27
BRANCH  24  37
ATOM     37  C   UNL     1      -1.421  -0.288   1.164  0.00  0.00    +0.109 C 
BRANCH  37  39
ATOM     38  C   UNL     1      -1.961   1.154   3.132  0.00  0.00    +0.005 C 
ATOM     39  C   UNL     1      -1.173  -0.069   2.658  0.00  0.00    +0.016 C 
ENDBRANCH  37  39
ENDBRANCH  24  37
ENDBRANCH   1  24
TORSDOF 11
