REMARK  Name = ZINC09347385
REMARK  10 active torsions:
REMARK  status: ('A' for Active; 'I' for Inactive)
REMARK    1  A    between atoms: C_1  and  C_2
REMARK    2  A    between atoms: C_2  and  O_3
REMARK    3  A    between atoms: O_3  and  C_4
REMARK    4  A    between atoms: C_4  and  C_6
REMARK    5  A    between atoms: C_10  and  N_11
REMARK    6  A    between atoms: C_12  and  C_14
REMARK    7  A    between atoms: C_14  and  C_16
REMARK    8  A    between atoms: C_14  and  S_17
REMARK    9  A    between atoms: S_17  and  C_18
REMARK   10  A    between atoms: C_24  and  C_26
REMARK                            x       y       z     vdW  Elec       q    Type
REMARK                         _______ _______ _______ _____ _____    ______ ____
ROOT
ATOM      1  C   UNL     1       1.837  -9.455  -0.064  0.00  0.00    +0.136 C 
ATOM      2  C   UNL     1       1.097  -9.203   1.251  0.00  0.00    +0.029 C 
ENDROOT
BRANCH   1   4
ATOM      3  N   UNL     1       1.209 -11.759  -0.711  0.00  0.00    -0.278 N 
ATOM      4  C   UNL     1       2.137 -10.926  -0.199  0.00  0.00    +0.231 C 
ATOM      5  O   UNL     1       3.213 -11.360   0.154  0.00  0.00    -0.274 OA
ATOM      6  H   UNL     1       0.349 -11.412  -0.993  0.00  0.00    +0.155 HD
BRANCH   3  11
ATOM      7  C   UNL     1       0.667 -14.116  -1.326  0.00  0.00    +0.091 A 
ATOM      8  C   UNL     1       1.206 -15.476  -1.352  0.00  0.00    -0.021 A 
ATOM      9  C   UNL     1       2.458 -15.603  -0.876  0.00  0.00    -0.004 A 
ATOM     10  S   UNL     1       2.932 -13.958  -0.404  0.00  0.00    -0.077 S 
ATOM     11  C   UNL     1       1.485 -13.111  -0.834  0.00  0.00    +0.086 A 
ATOM     12  C   UNL     1       2.941 -17.027  -0.933  0.00  0.00    +0.043 C 
ATOM     13  C   UNL     1       1.975 -17.727  -1.915  0.00  0.00    +0.010 C 
ATOM     14  C   UNL     1       0.710 -16.855  -1.785  0.00  0.00    +0.037 C 
BRANCH   7  15
ATOM     15  C   UNL     1      -0.685 -13.826  -1.806  0.00  0.00    +0.342 C 
ATOM     16  O   UNL     1      -0.868 -13.540  -2.974  0.00  0.00    -0.245 OA
BRANCH  15  17
ATOM     17  O   UNL     1      -1.729 -13.876  -0.953  0.00  0.00    -0.461 OA
BRANCH  17  19
ATOM     18  C   UNL     1      -4.090 -13.683  -0.389  0.00  0.00    +0.048 C 
ATOM     19  C   UNL     1      -3.041 -13.577  -1.498  0.00  0.00    +0.229 C 
ENDBRANCH  17  19
ENDBRANCH  15  17
ENDBRANCH   7  15
ENDBRANCH   3  11
ENDBRANCH   1   4
BRANCH   1  20
ATOM     20  S   UNL     1       3.390  -8.518  -0.073  0.00  0.00    -0.084 S 
BRANCH  20  21
ATOM     21  C   UNL     1       2.872  -6.834  -0.060  0.00  0.00    +0.161 A 
ATOM     22  N   UNL     1       1.652  -6.318  -0.046  0.00  0.00    -0.133 NA
ATOM     23  N   UNL     1       1.454  -5.073  -0.038  0.00  0.00    -0.125 NA
ATOM     24  C   UNL     1       2.452  -4.204  -0.043  0.00  0.00    +0.189 A 
ATOM     25  S   UNL     1       3.844  -5.330  -0.070  0.00  0.00    -0.024 S 
ATOM     26  N   UNL     1       2.428  -2.813  -0.036  0.00  0.00    -0.259 N 
ATOM     27  C   UNL     1       1.249  -2.160  -0.021  0.00  0.00    +0.250 C 
ATOM     28  O   UNL     1       0.207  -2.787  -0.014  0.00  0.00    -0.270 OA
ATOM     29  H   UNL     1       3.259  -2.313  -0.041  0.00  0.00    +0.157 HD
BRANCH  27  30
ATOM     30  C   UNL     1       1.222  -0.683  -0.013  0.00  0.00    +0.037 A 
ATOM     31  C   UNL     1       0.002  -0.004   0.002  0.00  0.00    +0.016 A 
ATOM     32  C   UNL     1      -0.017   1.374   0.010  0.00  0.00    +0.039 A 
ATOM     33  C   UNL     1       1.173   2.086   0.002  0.00  0.00    +0.123 A 
ATOM     34  C   UNL     1       2.387   1.417  -0.013  0.00  0.00    +0.039 A 
ATOM     35  C   UNL     1       2.418   0.039  -0.021  0.00  0.00    +0.016 A 
ATOM     36  F   UNL     1       1.149   3.437   0.009  0.00  0.00    -0.205 F 
ENDBRANCH  27  30
ENDBRANCH  20  21
ENDBRANCH   1  20
TORSDOF 8
