REMARK  Name = ZINC09530395
REMARK  9 active torsions:
REMARK  status: ('A' for Active; 'I' for Inactive)
REMARK    1  A    between atoms: C_1  and  C_2
REMARK    2  A    between atoms: C_5  and  S_8
REMARK    3  A    between atoms: S_8  and  C_11
REMARK    4  A    between atoms: C_12  and  N_32
REMARK    5  A    between atoms: C_13  and  C_24
REMARK    6  A    between atoms: C_15  and  N_16
REMARK    7  A    between atoms: N_16  and  C_17
REMARK    8  A    between atoms: C_22  and  C_23
REMARK    9  A    between atoms: C_24  and  C_26
REMARK                            x       y       z     vdW  Elec       q    Type
REMARK                         _______ _______ _______ _____ _____    ______ ____
ROOT
ATOM      1  C   UNL     1       1.444  -2.146  -0.275  0.00  0.00    +0.143 A 
ATOM      2  C   UNL     1       2.781  -2.436  -0.374  0.00  0.00    +0.070 A 
ATOM      3  C   UNL     1       3.702  -1.462   0.034  0.00  0.00    +0.084 A 
ATOM      4  S   UNL     1       2.632  -0.130   0.551  0.00  0.00    -0.066 S 
ATOM      5  C   UNL     1       1.063  -0.913   0.220  0.00  0.00    +0.098 A 
ENDROOT
BRANCH   1   6
ATOM      6  S   UNL     1       0.232  -3.325  -0.769  0.00  0.00    +0.029 S 
ATOM      7  O   UNL     1       0.815  -4.608  -0.585  0.00  0.00    -0.164 OA
ATOM      8  O   UNL     1      -0.985  -2.945  -0.141  0.00  0.00    -0.164 OA
BRANCH   6  13
ATOM      9  C   UNL     1      -0.604  -2.644  -6.706  0.00  0.00    +0.044 C 
ATOM     10  C   UNL     1      -0.395  -2.815  -5.223  0.00  0.00    -0.050 A 
ATOM     11  C   UNL     1       0.566  -3.692  -4.756  0.00  0.00    +0.005 A 
ATOM     12  C   UNL     1       0.757  -3.848  -3.396  0.00  0.00    +0.027 A 
ATOM     13  C   UNL     1      -0.012  -3.126  -2.503  0.00  0.00    +0.094 A 
ATOM     14  C   UNL     1      -0.977  -2.253  -2.969  0.00  0.00    +0.027 A 
ATOM     15  C   UNL     1      -1.166  -2.094  -4.329  0.00  0.00    +0.005 A 
ENDBRANCH   6  13
ENDBRANCH   1   6
BRANCH   2  16
ATOM     16  N   UNL     1       3.210  -3.664  -0.866  0.00  0.00    -0.355 N 
ATOM     17  H   UNL     1       2.605  -4.217  -1.384  0.00  0.00    +0.142 HD
ATOM     18  H   UNL     1       4.115  -3.966  -0.691  0.00  0.00    +0.142 HD
ENDBRANCH   2  16
BRANCH   5  19
ATOM     19  N   UNL     1      -0.212  -0.410   0.405  0.00  0.00    -0.307 N 
ATOM     20  H   UNL     1      -0.982  -0.913   0.094  0.00  0.00    +0.153 HD
BRANCH  19  21
ATOM     21  C   UNL     1      -0.392   0.821   1.040  0.00  0.00    +0.035 A 
ATOM     22  C   UNL     1       0.472   1.214   2.055  0.00  0.00    +0.023 A 
ATOM     23  C   UNL     1       0.291   2.432   2.680  0.00  0.00    +0.002 A 
ATOM     24  C   UNL     1      -0.749   3.260   2.298  0.00  0.00    +0.000 A 
ATOM     25  C   UNL     1      -1.610   2.873   1.288  0.00  0.00    +0.005 A 
ATOM     26  C   UNL     1      -1.431   1.658   0.654  0.00  0.00    -0.029 A 
ATOM     27  C   UNL     1      -2.367   1.239  -0.451  0.00  0.00    +0.045 C 
ENDBRANCH  19  21
ENDBRANCH   5  19
BRANCH   3  28
ATOM     28  C   UNL     1       5.106  -1.517   0.030  0.00  0.00    +0.202 C 
ATOM     29  O   UNL     1       5.675  -2.560  -0.247  0.00  0.00    -0.286 OA
BRANCH  28  30
ATOM     30  C   UNL     1       5.895  -0.310   0.363  0.00  0.00    +0.023 A 
ATOM     31  C   UNL     1       5.410   0.956   0.035  0.00  0.00    +0.012 A 
ATOM     32  C   UNL     1       6.148   2.078   0.352  0.00  0.00    +0.001 A 
ATOM     33  C   UNL     1       7.371   1.949   0.985  0.00  0.00    +0.000 A 
ATOM     34  C   UNL     1       7.861   0.695   1.308  0.00  0.00    +0.001 A 
ATOM     35  C   UNL     1       7.130  -0.434   1.001  0.00  0.00    +0.012 A 
ENDBRANCH  28  30
ENDBRANCH   3  28
TORSDOF 7
