REMARK  Name = ZINC04682531
REMARK  6 active torsions:
REMARK  status: ('A' for Active; 'I' for Inactive)
REMARK    1  A    between atoms: C_1  and  C_2
REMARK    2  A    between atoms: C_5  and  N_9
REMARK    3  A    between atoms: C_6  and  C_8
REMARK    4  A    between atoms: N_11  and  C_12
REMARK    5  A    between atoms: C_12  and  C_13
REMARK    6  A    between atoms: C_13  and  C_14
REMARK                            x       y       z     vdW  Elec       q    Type
REMARK                         _______ _______ _______ _____ _____    ______ ____
ROOT
ATOM      1  N   UNL     1       0.059  -4.169  -0.021  0.00  0.00    -0.295 N 
ATOM      2  C   UNL     1      -0.041  -4.848  -1.204  0.00  0.00    +0.143 C 
ATOM      3  N   UNL     1      -0.125  -6.212  -1.205  0.00  0.00    -0.367 N 
ATOM      4  S   UNL     1      -0.059  -4.015  -2.640  0.00  0.00    -0.016 SA
ATOM      5  H   UNL     1      -0.114  -6.699  -0.366  0.00  0.00    +0.161 HD
ATOM      6  H   UNL     1      -0.514  -4.407   0.725  0.00  0.00    +0.154 HD
ENDROOT
BRANCH   1  11
ATOM      7  C   UNL     1       3.827   0.036   0.527  0.00  0.00    +0.044 C 
ATOM      8  C   UNL     1       2.826  -1.081   0.381  0.00  0.00    -0.050 A 
ATOM      9  C   UNL     1       2.835  -1.872  -0.753  0.00  0.00    +0.005 A 
ATOM     10  C   UNL     1       1.919  -2.897  -0.889  0.00  0.00    +0.024 A 
ATOM     11  C   UNL     1       0.989  -3.132   0.114  0.00  0.00    +0.036 A 
ATOM     12  C   UNL     1       0.982  -2.336   1.252  0.00  0.00    -0.029 A 
ATOM     13  C   UNL     1       1.904  -1.316   1.384  0.00  0.00    +0.008 A 
ATOM     14  C   UNL     1      -0.026  -2.588   2.343  0.00  0.00    +0.045 C 
ENDBRANCH   1  11
BRANCH   3  15
ATOM     15  C   UNL     1      -0.232  -6.939  -2.472  0.00  0.00    +0.119 C 
BRANCH  15  16
ATOM     16  C   UNL     1      -0.311  -8.442  -2.193  0.00  0.00    +0.056 C 
BRANCH  16  17
ATOM     17  C   UNL     1      -0.421  -9.190  -3.497  0.00  0.00    -0.046 A 
ATOM     18  C   UNL     1      -1.665  -9.454  -4.039  0.00  0.00    +0.005 A 
ATOM     19  C   UNL     1      -1.767 -10.139  -5.234  0.00  0.00    +0.020 A 
ATOM     20  C   UNL     1      -0.624 -10.562  -5.889  0.00  0.00    +0.041 A 
ATOM     21  C   UNL     1       0.621 -10.297  -5.346  0.00  0.00    +0.020 A 
ATOM     22  C   UNL     1       0.722  -9.606  -4.153  0.00  0.00    +0.005 A 
ATOM     23 CL   UNL     1      -0.751 -11.424  -7.390  0.00  0.00    -0.084 Cl
ENDBRANCH  16  17
ENDBRANCH  15  16
ENDBRANCH   3  15
TORSDOF 4
